data_image0
_chemical_formula_structural       FeS2HSHFeH2S2CFeS2FeS2HCH2SH3C2HC6H4CHC8H5C2H2CHC2H4C4FeH2CH5N2C9H14NHC6HFeCHCH8C4FeS2FeSFeSFeS3FeS2FeSFeSFeSCFeCSFeC2H2S3HSH3NSHC4HCH2CHFeC6HCH3C4H2C7H4C6H4CHCHNHSHNH3CH2C2H2CHCH2CH3CH2NC6HC2H6C2H3C3H4CNSHSCH4CH5CH2NCSHC2H8CH5CHCH3CSHFe2S2FeSFeSFeS3CHFeS2FeSHS2NHCH4SH2SFeHSC2HS2H4FeH3C3H2C6H3CHC9H4C6H4CHCH4C2HS2CH3CHNC6H2CSH8C5NC3HCFeC2H4CH2FeHC3H3CH2SCNH3CHNHNH4FeS2FeSFeHS2FeS2CFeS2HCH3C4NC2H2C6H6SHCH4C6H5CHCH2CHCH5C2HCH2C2HCHCHCNHC2HCHCHCH3C2HCHCHSCFeCHCH3CH3CSCSFeSFeSHFeSCSFeSHFeS2FeS2FeSFeS3FeS2FeS2FeSFeS3H2C7H5NHC6H4C6H4SC4H2C7H4CHCS2C2H3CHC2H2C2HC2HNC9H14CH2CHC2FeH2C2SHC3H2C3H2CHCH4C9H7C2FeH2C4H7CH3CHSHCHC2HC5HSCNH3NH4CHNSCHCH3CHCHSC2H2C2NCFeHFeH2CHCH2FeH3C3H4NH6SHFeS2FeS2FeSFeS3C7H3CHC5H3CH3NC7H4C6H4CH2CHCHCHCH3CHC2H8NHC2HC2H2CH3CH3C3H4CH5CH2C3SNH2CHCHC2HC2H3CHCH2CH2C2H4C2S2HFeS2FeS2FeSFeS3C3HC2HCH2CHC5H2NH3C7H4C6H4CH5CHSCH2NCH2CHCHCHCHC2HCH3CHCH4C2HCH3CHNCHC2H2C2H3C4H2CHC4H2C2NCH2NH2C3H2CHC4HCHCH5CHCH5CH2C2H5CHCHC2H2CH3C3HS2FeSHS2HFeSFeS2FeS2FeSFeS3FeS2FeS2FeSFeS3C7H5FeHC6H4C6H4C4H5C6H6C2HC3SC2SHC3H4NC6HCH17CHC2HCH3C3Fe2NC9H15FeH3SHFeH3C2NH2CSH2SC4H4C2NH2C3H3CH2N2H5C2HCHC2HNHCSHCH2CH3CSC2HCH2CH3CHC2HC2FeNC4HC2H3CH2FeHCFeS2FeSHFeSFeS3C2HSCNCH2C2SCH3CH2C3H6CHCHCHC6H4C2SC3HCH2CNCHC4HCS2C2H4CHNC7H13CH4CH2C7HCH2C2HC3H2FeCH2CH5CH2CSH2SCNH2C2H2SHCSCH2SFeHCHSH2FeS2FeS2FeSFeS3FeSHFeS2Fe2SHSFeSFeS2FeH2FeCHC5H3CHCH2CH2C6H4C6H5CH2SNHNC7SHCHSH2CH6CH3CHSHCHSH2CHC2H2CH6C2HCH3FeCH4CNH2C2HSH2C5H2CH2C2H6C2HC9FeSHFeS2FeSFeS3HFeS2FeSH2SCFeS2CSFeNCH3C6H2SHC2H2C7H3C6H5CFeCH3CHCHCHCH2CHSCH3SH2SCHCHFeNC3NC8H11NC6HCH14SC2SHNHCH2SC2HCH3CHC3HCH6Fe2H4CHCSH6C3H2CHFeS2FeSCFeSFeS3H2FeSHCH2SC2HCH2CHC6H2CSHC3H3C6H4C4HCH5C2H3C2H3CH3SHC5H2CSHCHCSH4CNH5SHCH2NHC2HC2H2C2HCH4S2HCHC3H4C2H2C3HNC2HNC2H2C
_chemical_formula_sum              "Fe112 S224 H1008 C840 N56"
_cell_length_a       48.936
_cell_length_b       35.6746
_cell_length_c       44.2384
_cell_angle_alpha    90.1615
_cell_angle_beta     112.783
_cell_angle_gamma    90.674

_space_group_name_H-M_alt    "P 1"
_space_group_IT_number       1

loop_
  _space_group_symop_operation_xyz
  'x, y, z'

loop_
  _atom_site_type_symbol
  _atom_site_label
  _atom_site_symmetry_multiplicity
  _atom_site_fract_x
  _atom_site_fract_y
  _atom_site_fract_z
  _atom_site_occupancy
  Fe  Fe1       1.0  0.29002  0.15358  0.37624  1.0000
  S   S1        1.0  0.31139  0.10319  0.36353  1.0000
  S   S2        1.0  0.24053  0.15282  0.36723  1.0000
  H   H1        1.0  0.18927  0.37169  0.03575  1.0000
  S   S3        1.0  0.03073  0.21803  0.21528  1.0000
  H   H2        1.0  0.14828  0.36125  0.05562  1.0000
  Fe  Fe2       1.0  0.00997  0.21100  0.25249  1.0000
  H   H3        1.0  0.14142  0.49465  0.09877  1.0000
  H   H4        1.0  0.12100  0.44983  0.05338  1.0000
  S   S4        1.0  0.31423  0.19563  0.35762  1.0000
  S   S5        1.0  0.32383  0.15737  0.42854  1.0000
  C   C1        1.0  0.18667  0.48436  0.10652  1.0000
  Fe  Fe3       1.0  0.07412  0.22909  0.25855  1.0000
  S   S6        1.0  0.05415  0.21672  0.29564  1.0000
  S   S7        1.0  0.12037  0.21614  0.25959  1.0000
  Fe  Fe4       1.0  0.04420  0.27824  0.29300  1.0000
  S   S8        1.0  0.05342  0.31131  0.33983  1.0000
  S   S9        1.0  0.06634  0.29110  0.25830  1.0000
  H   H5        1.0  0.01408  0.34981  0.23884  1.0000
  C   C2        1.0  0.17434  0.11658  0.26405  1.0000
  H   H6        1.0  0.16424  0.11176  0.28166  1.0000
  H   H7        1.0  0.13359  0.13390  0.22611  1.0000
  S   S10       1.0  0.10173  0.47500  0.33272  1.0000
  H   H8        1.0  0.02210  0.47251  0.28971  1.0000
  H   H9        1.0  0.03851  0.42775  0.21172  1.0000
  H   H10       1.0  0.22951  0.47047  0.10751  1.0000
  C   C3        1.0  0.19470  0.43981  0.06945  1.0000
  C   C4        1.0  0.13369  0.49181  0.26612  1.0000
  H   H11       1.0  0.25340  0.10257  0.21632  1.0000
  C   C5        1.0  0.06520  0.35782  0.33818  1.0000
  C   C6        1.0  0.07650  0.38013  0.36667  1.0000
  C   C7        1.0  0.08751  0.41660  0.36557  1.0000
  C   C8        1.0  0.08709  0.43063  0.33586  1.0000
  C   C9        1.0  0.07523  0.40852  0.30745  1.0000
  C   C10       1.0  0.06435  0.37237  0.30863  1.0000
  H   H12       1.0  0.07698  0.36903  0.38957  1.0000
  H   H13       1.0  0.09655  0.43361  0.38761  1.0000
  H   H14       1.0  0.07441  0.41930  0.28434  1.0000
  H   H15       1.0  0.05520  0.35585  0.28654  1.0000
  C   C11       1.0  0.13395  0.37649  0.03326  1.0000
  H   H16       1.0  0.25792  0.17551  0.27832  1.0000
  C   C12       1.0  0.17012  0.13650  0.21044  1.0000
  C   C13       1.0  0.14479  0.45313  0.06476  1.0000
  C   C14       1.0  0.20775  0.17292  0.33803  1.0000
  C   C15       1.0  0.18062  0.16676  0.34147  1.0000
  C   C16       1.0  0.15382  0.18072  0.31835  1.0000
  C   C17       1.0  0.15374  0.20080  0.29120  1.0000
  C   C18       1.0  0.18093  0.20754  0.28803  1.0000
  C   C19       1.0  0.20779  0.19406  0.31143  1.0000
  H   H17       1.0  0.18030  0.15062  0.36200  1.0000
  H   H18       1.0  0.13313  0.17490  0.32103  1.0000
  H   H19       1.0  0.18116  0.22293  0.26710  1.0000
  H   H20       1.0  0.22842  0.19974  0.30869  1.0000
  H   H21       1.0  0.12481  0.34038  0.49416  1.0000
  C   C20       1.0  0.07394  0.46911  0.22862  1.0000
  C   C21       1.0  0.15705  0.12910  0.23276  1.0000
  H   H22       1.0  0.25839  0.15230  0.22613  1.0000
  H   H23       1.0  0.13643  0.46980  0.24967  1.0000
  C   C22       1.0  0.20586  0.46492  0.09590  1.0000
  H   H24       1.0  0.10431  0.38325  0.44806  1.0000
  C   C23       1.0  0.16368  0.43304  0.05307  1.0000
  C   C24       1.0  0.12272  0.36952  0.49948  1.0000
  H   H25       1.0  0.28641  0.07751  0.28474  1.0000
  H   H26       1.0  0.20934  0.13874  0.20111  1.0000
  H   H27       1.0  0.08876  0.44855  0.24410  1.0000
  H   H28       1.0  0.21743  0.10446  0.29861  1.0000
  C   C25       1.0  0.26531  0.14707  0.28814  1.0000
  C   C26       1.0  0.17361  0.38849  0.01538  1.0000
  C   C27       1.0  0.02433  0.48112  0.18922  1.0000
  C   C28       1.0  0.15621  0.47857  0.09093  1.0000
  Fe  Fe5       1.0  0.33784  0.14577  0.34810  1.0000
  H   H29       1.0  0.15654  0.14653  0.18619  1.0000
  H   H30       1.0  0.25792  0.07560  0.30014  1.0000
  C   C29       1.0  0.11085  0.39378  0.47289  1.0000
  H   H31       1.0  0.25077  0.05749  0.25977  1.0000
  H   H32       1.0  0.28764  0.12080  0.24586  1.0000
  H   H33       1.0  0.28987  0.14697  0.29707  1.0000
  H   H34       1.0  0.25956  0.14320  0.30994  1.0000
  H   H35       1.0  0.03044  0.04198  0.11589  1.0000
  N   N1        1.0  0.15095  0.40666  0.02498  1.0000
  N   N2        1.0  0.15003  0.29746  0.34687  1.0000
  C   C30       1.0  0.14817  0.30965  0.31403  1.0000
  C   C31       1.0  0.12430  0.27214  0.34161  1.0000
  C   C32       1.0  0.14724  0.33130  0.36499  1.0000
  C   C33       1.0  0.17793  0.27806  0.36621  1.0000
  C   C34       1.0  0.18249  0.26343  0.39761  1.0000
  C   C35       1.0  0.20131  0.27346  0.35501  1.0000
  C   C36       1.0  0.20843  0.24451  0.41618  1.0000
  C   C37       1.0  0.22735  0.25502  0.37405  1.0000
  C   C38       1.0  0.23075  0.24018  0.40433  1.0000
  H   H36       1.0  0.14931  0.28526  0.29873  1.0000
  H   H37       1.0  0.12680  0.32372  0.30002  1.0000
  H   H38       1.0  0.16607  0.33017  0.31594  1.0000
  H   H39       1.0  0.10308  0.28585  0.32689  1.0000
  H   H40       1.0  0.12227  0.26372  0.36478  1.0000
  H   H41       1.0  0.12566  0.24616  0.32830  1.0000
  H   H42       1.0  0.16691  0.35024  0.37091  1.0000
  H   H43       1.0  0.12723  0.34769  0.35046  1.0000
  H   H44       1.0  0.14499  0.32419  0.38836  1.0000
  H   H45       1.0  0.16588  0.26617  0.40790  1.0000
  H   H46       1.0  0.19988  0.28307  0.33134  1.0000
  H   H47       1.0  0.21119  0.23274  0.43973  1.0000
  H   H48       1.0  0.24465  0.25090  0.36480  1.0000
  H   H49       1.0  0.25055  0.22468  0.41832  1.0000
  N   N3        1.0  0.25169  0.11774  0.26283  1.0000
  H   H50       1.0  0.18618  0.47393  0.48886  1.0000
  C   C39       1.0  0.26303  0.12357  0.23646  1.0000
  C   C40       1.0  0.26202  0.08049  0.27743  1.0000
  C   C41       1.0  0.21903  0.11996  0.25147  1.0000
  C   C42       1.0  0.20065  0.13198  0.21946  1.0000
  C   C43       1.0  0.20487  0.11228  0.27344  1.0000
  C   C44       1.0  0.10756  0.43166  0.47818  1.0000
  H   H51       1.0  0.32297  0.06323  0.47010  1.0000
  Fe  Fe6       1.0  0.02182  0.27928  0.21874  1.0000
  C   C45       1.0  0.02529  0.49759  0.27642  1.0000
  H   H52       1.0  0.09875  0.45063  0.45763  1.0000
  C   C46       1.0  0.04501  0.45665  0.21003  1.0000
  H   H53       1.0  0.21086  0.42690  0.06183  1.0000
  H   H54       1.0  0.11476  0.38747  0.03788  1.0000
  H   H55       1.0  0.19540  0.50493  0.12618  1.0000
  H   H56       1.0  0.12467  0.35558  0.01290  1.0000
  H   H57       1.0  0.15615  0.50341  0.28063  1.0000
  H   H58       1.0  0.12615  0.47851  0.28432  1.0000
  H   H59       1.0  0.01138  0.49254  0.25017  1.0000
  H   H60       1.0  0.04877  0.49811  0.27888  1.0000
  C   C47       1.0  0.08297  0.50691  0.22706  1.0000
  C   C48       1.0  0.00930  0.01360  0.19529  1.0000
  C   C49       1.0  0.01305  0.01977  0.11094  1.0000
  C   C50       1.0  0.00926  0.02731  0.16514  1.0000
  Fe  Fe7       1.0  0.20222  0.34332  0.67652  1.0000
  S   S11       1.0  0.20244  0.40567  0.67037  1.0000
  S   S12       1.0  0.15613  0.32343  0.66928  1.0000
  Fe  Fe8       1.0  0.27029  0.33917  0.69828  1.0000
  S   S13       1.0  0.27472  0.40147  0.69418  1.0000
  Fe  Fe9       1.0  0.24152  0.40480  0.71833  1.0000
  S   S14       1.0  0.24352  0.44157  0.76113  1.0000
  Fe  Fe10      1.0  0.23467  0.39559  0.64648  1.0000
  S   S15       1.0  0.23197  0.41323  0.59589  1.0000
  S   S16       1.0  0.23995  0.34298  0.72557  1.0000
  S   S17       1.0  0.23182  0.33273  0.64948  1.0000
  Fe  Fe11      1.0  0.15416  0.42078  0.87651  1.0000
  S   S18       1.0  0.10492  0.42769  0.85562  1.0000
  S   S19       1.0  0.16922  0.38529  0.84336  1.0000
  Fe  Fe12      1.0  0.16091  0.46526  0.93845  1.0000
  S   S20       1.0  0.11203  0.47559  0.92155  1.0000
  Fe  Fe13      1.0  0.10647  0.41485  0.90561  1.0000
  S   S21       1.0  0.06908  0.38088  0.91107  1.0000
  Fe  Fe14      1.0  0.11477  0.48706  0.87311  1.0000
  S   S22       1.0  0.15528  0.40332  0.92600  1.0000
  C   C51       1.0  0.13061  0.42695  0.99592  1.0000
  Fe  Fe15      1.0  0.05238  0.16049  0.60172  1.0000
  C   C52       1.0  0.12248  0.47034  0.78534  1.0000
  S   S23       1.0  0.09537  0.17403  0.59599  1.0000
  Fe  Fe16      1.0  0.02745  0.13994  0.65351  1.0000
  C   C53       1.0  0.12167  0.19234  0.73385  1.0000
  C   C54       1.0  0.01893  0.37454  0.74658  1.0000
  H   H61       1.0  0.05496  0.32496  0.81578  1.0000
  H   H62       1.0  0.12124  0.40825  0.97396  1.0000
  S   S24       1.0  0.05103  0.10709  0.62769  1.0000
  S   S25       1.0  0.03278  0.19409  0.63081  1.0000
  S   S26       1.0  0.30810  0.29735  0.71574  1.0000
  H   H63       1.0  0.11561  0.11573  0.56438  1.0000
  S   S27       1.0  0.03463  0.10030  0.89205  1.0000
  H   H64       1.0  0.32022  0.41239  0.85380  1.0000
  H   H65       1.0  0.13218  0.05630  0.61850  1.0000
  H   H66       1.0  0.14175  0.18650  0.75619  1.0000
  N   N4        1.0  0.09877  0.06080  0.56916  1.0000
  S   S28       1.0  0.06183  0.20233  0.90287  1.0000
  H   H67       1.0  0.14172  0.07915  0.57096  1.0000
  C   C55       1.0  0.13048  0.27807  0.77933  1.0000
  C   C56       1.0  0.02536  0.12778  0.73258  1.0000
  C   C57       1.0  0.03085  0.14216  0.76399  1.0000
  C   C58       1.0  0.17415  0.50162  0.52510  1.0000
  H   H68       1.0  0.29254  0.35275  0.83958  1.0000
  C   C59       1.0  0.13988  0.25133  0.72314  1.0000
  H   H69       1.0  0.01917  0.25875  0.90467  1.0000
  H   H70       1.0  0.05945  0.07546  0.52728  1.0000
  C   C60       1.0  0.02217  0.44299  0.84534  1.0000
  H   H71       1.0  0.11132  0.43886  0.99973  1.0000
  Fe  Fe17      1.0  0.02386  0.16097  0.89625  1.0000
  C   C61       1.0  0.06635  0.33139  0.90644  1.0000
  C   C62       1.0  0.04085  0.31255  0.90621  1.0000
  C   C63       1.0  0.03860  0.27306  0.90415  1.0000
  C   C64       1.0  0.06208  0.25209  0.90270  1.0000
  C   C65       1.0  0.08727  0.27108  0.90222  1.0000
  C   C66       1.0  0.08935  0.31051  0.90384  1.0000
  H   H72       1.0  0.29017  0.32694  0.80366  1.0000
  C   C67       1.0  0.13199  0.38268  0.53233  1.0000
  H   H73       1.0  0.10554  0.25506  0.90121  1.0000
  H   H74       1.0  0.10910  0.32461  0.90400  1.0000
  H   H75       1.0  0.21731  0.42649  0.52769  1.0000
  C   C68       1.0  0.04284  0.34767  0.80028  1.0000
  C   C69       1.0  0.20598  0.44732  0.53620  1.0000
  C   C70       1.0  0.20899  0.44713  0.56915  1.0000
  C   C71       1.0  0.19429  0.47414  0.57993  1.0000
  H   H76       1.0  0.11644  0.30953  0.53599  1.0000
  H   H77       1.0  0.04434  0.16718  0.77259  1.0000
  C   C72       1.0  0.02384  0.46320  0.69489  1.0000
  C   C73       1.0  0.22160  0.42710  0.78301  1.0000
  C   C74       1.0  0.22191  0.44827  0.80999  1.0000
  C   C75       1.0  0.20555  0.43631  0.82848  1.0000
  C   C76       1.0  0.18917  0.40271  0.82037  1.0000
  C   C77       1.0  0.18859  0.38188  0.79318  1.0000
  C   C78       1.0  0.20438  0.39421  0.77437  1.0000
  H   H78       1.0  0.23505  0.47384  0.81681  1.0000
  H   H79       1.0  0.20621  0.45261  0.84942  1.0000
  H   H80       1.0  0.17585  0.35602  0.78658  1.0000
  H   H81       1.0  0.20328  0.37807  0.75326  1.0000
  C   C79       1.0  0.13967  0.28340  0.64600  1.0000
  C   C80       1.0  0.15633  0.25640  0.63805  1.0000
  C   C81       1.0  0.14247  0.22314  0.62186  1.0000
  C   C82       1.0  0.11205  0.21695  0.61369  1.0000
  C   C83       1.0  0.09533  0.24476  0.62043  1.0000
  C   C84       1.0  0.10913  0.27775  0.63674  1.0000
  H   H82       1.0  0.17997  0.26059  0.64524  1.0000
  H   H83       1.0  0.15549  0.20177  0.61649  1.0000
  H   H84       1.0  0.07172  0.24088  0.61310  1.0000
  H   H85       1.0  0.09610  0.29883  0.64246  1.0000
  C   C85       1.0  0.09151  0.23197  0.77140  1.0000
  H   H86       1.0  0.12829  0.49832  0.77827  1.0000
  C   C86       1.0  0.03525  0.37892  0.81443  1.0000
  H   H87       1.0  0.14705  0.29226  0.77286  1.0000
  N   N5        1.0  0.01117  0.44298  0.80895  1.0000
  H   H88       1.0  0.10631  0.09273  0.61326  1.0000
  S   S29       1.0  0.02400  0.03692  0.95658  1.0000
  H   H89       1.0  0.10638  0.42538  0.71268  1.0000
  N   N6        1.0  0.11562  0.23315  0.73040  1.0000
  H   H90       1.0  0.04215  0.37864  0.84075  1.0000
  H   H91       1.0  0.02298  0.32849  0.90828  1.0000
  H   H92       1.0  0.07703  0.20921  0.75804  1.0000
  C   C87       1.0  0.08756  0.23893  0.70173  1.0000
  H   H93       1.0  0.31126  0.35325  0.76609  1.0000
  H   H94       1.0  0.04771  0.47422  0.80570  1.0000
  C   C88       1.0  0.11271  0.24792  0.76035  1.0000
  C   C89       1.0  0.15484  0.37501  0.59269  1.0000
  H   H95       1.0  0.18337  0.32076  0.57953  1.0000
  H   H96       1.0  0.04677  0.44203  0.85678  1.0000
  C   C90       1.0  0.01704  0.49769  0.70480  1.0000
  H   H97       1.0  0.13222  0.30717  0.57965  1.0000
  C   C91       1.0  0.01159  0.40608  0.76057  1.0000
  H   H98       1.0  0.12520  0.18063  0.71227  1.0000
  H   H99       1.0  0.11212  0.47440  0.80344  1.0000
  C   C92       1.0  0.01940  0.40924  0.79493  1.0000
  H   H100      1.0  0.29560  0.39804  0.76620  1.0000
  H   H101      1.0  0.06843  0.22408  0.70420  1.0000
  H   H102      1.0  0.08509  0.41241  0.78351  1.0000
  C   C93       1.0  0.06808  0.07527  0.55454  1.0000
  H   H103      1.0  0.14184  0.23897  0.70091  1.0000
  H   H104      1.0  0.01302  0.41888  0.85453  1.0000
  N   N7        1.0  0.10276  0.44838  0.75634  1.0000
  C   C94       1.0  0.11848  0.44421  0.73383  1.0000
  C   C95       1.0  0.10855  0.06362  0.60532  1.0000
  C   C96       1.0  0.06605  0.50146  0.74795  1.0000
  C   C97       1.0  0.07362  0.46598  0.73879  1.0000
  C   C98       1.0  0.05170  0.44753  0.71147  1.0000
  C   C99       1.0  0.09834  0.41069  0.76802  1.0000
  H   H105      1.0  0.30197  0.43096  0.81397  1.0000
  C   C100      1.0  0.17165  0.33869  0.55789  1.0000
  C   C101      1.0  0.31517  0.38047  0.77963  1.0000
  H   H106      1.0  0.12146  0.47184  0.72375  1.0000
  H   H107      1.0  0.14096  0.43211  0.74655  1.0000
  H   H108      1.0  0.18791  0.36032  0.55690  1.0000
  H   H109      1.0  0.11984  0.39747  0.78298  1.0000
  H   H110      1.0  0.14384  0.45597  0.79859  1.0000
  H   H111      1.0  0.14251  0.45058  0.98976  1.0000
  C   C102      1.0  0.03465  0.34543  0.76642  1.0000
  C   C103      1.0  0.12800  0.42144  0.53681  1.0000
  H   H112      1.0  0.08675  0.39080  0.74759  1.0000
  H   H113      1.0  0.05589  0.42083  0.70260  1.0000
  H   H114      1.0  0.16334  0.36894  0.99417  1.0000
  C   C104      1.0  0.17713  0.50141  0.55803  1.0000
  C   C105      1.0  0.02352  0.47692  0.79926  1.0000
  C   C106      1.0  0.12762  0.29051  0.80799  1.0000
  H   H115      1.0  0.10543  0.28285  0.84115  1.0000
  H   H116      1.0  0.27171  0.37103  0.79987  1.0000
  H   H117      1.0  0.01577  0.46889  0.85497  1.0000
  H   H118      1.0  0.01223  0.32761  0.64382  1.0000
  C   C107      1.0  0.32095  0.41319  0.82905  1.0000
  N   N8        1.0  0.14518  0.35652  0.56003  1.0000
  S   S30       1.0  0.19598  0.48572  0.98693  1.0000
  H   H119      1.0  0.13456  0.43430  0.56076  1.0000
  S   S31       1.0  0.04073  0.15152  0.70780  1.0000
  C   C108      1.0  0.08893  0.24453  0.80016  1.0000
  H   H120      1.0  0.02372  0.13544  0.80889  1.0000
  H   H121      1.0  0.06682  0.10470  0.56234  1.0000
  H   H122      1.0  0.10295  0.17573  0.73554  1.0000
  H   H123      1.0  0.08897  0.22793  0.67882  1.0000
  C   C109      1.0  0.11782  0.08575  0.55859  1.0000
  H   H124      1.0  0.07315  0.23114  0.80862  1.0000
  H   H125      1.0  0.14183  0.31301  0.82251  1.0000
  H   H126      1.0  0.11173  0.08345  0.53165  1.0000
  H   H127      1.0  0.08212  0.26921  0.69803  1.0000
  H   H128      1.0  0.13594  0.28179  0.71797  1.0000
  C   C110      1.0  0.12321  0.32687  0.55867  1.0000
  H   H129      1.0  0.13593  0.38760  0.59696  1.0000
  H   H130      1.0  0.17201  0.39709  0.59571  1.0000
  N   N9        1.0  0.31912  0.37527  0.81437  1.0000
  C   C111      1.0  0.29228  0.35562  0.81447  1.0000
  S   S32       1.0  0.16400  0.48139  0.89048  1.0000
  H   H131      1.0  0.19659  0.47445  0.60527  1.0000
  C   C112      1.0  0.01909  0.12426  0.78460  1.0000
  C   C113      1.0  0.10707  0.27362  0.81852  1.0000
  H   H132      1.0  0.16607  0.32039  0.53595  1.0000
  H   H133      1.0  0.04030  0.32098  0.75554  1.0000
  H   H134      1.0  0.16181  0.24784  0.74361  1.0000
  H   H135      1.0  0.18652  0.40966  0.00763  1.0000
  H   H136      1.0  0.16493  0.35468  0.61290  1.0000
  H   H137      1.0  0.05269  0.05843  0.56237  1.0000
  H   H138      1.0  0.10281  0.33926  0.55972  1.0000
  H   H139      1.0  0.31761  0.03637  0.51933  1.0000
  C   C114      1.0  0.10139  0.02161  0.55950  1.0000
  H   H140      1.0  0.03025  0.01219  0.85240  1.0000
  H   H141      1.0  0.09499  0.04472  0.61421  1.0000
  H   H142      1.0  0.05502  0.01180  0.52638  1.0000
  H   H143      1.0  0.02005  0.50287  0.81136  1.0000
  H   H144      1.0  0.33472  0.39482  0.77763  1.0000
  C   C115      1.0  0.33896  0.03591  0.51734  1.0000
  H   H145      1.0  0.11352  0.47499  0.51399  1.0000
  C   C116      1.0  0.18846  0.47425  0.51417  1.0000
  H   H146      1.0  0.01301  0.48233  0.77256  1.0000
  H   H147      1.0  0.14884  0.01769  0.58890  1.0000
  H   H148      1.0  0.01210  0.37269  0.72011  1.0000
  C   C117      1.0  0.11585  0.44534  0.51002  1.0000
  S   S33       1.0  0.00886  0.15040  0.55936  1.0000
  H   H149      1.0  0.34084  0.35995  0.88036  1.0000
  Fe  Fe18      1.0  0.00942  0.82433  0.41485  1.0000
  Fe  Fe19      1.0  0.21419  0.68287  0.18653  1.0000
  S   S34       1.0  0.18726  0.62990  0.17776  1.0000
  S   S35       1.0  0.19630  0.74122  0.18619  1.0000
  Fe  Fe20      1.0  0.27096  0.64212  0.19353  1.0000
  S   S36       1.0  0.24776  0.58531  0.18509  1.0000
  Fe  Fe21      1.0  0.21008  0.61258  0.14450  1.0000
  S   S37       1.0  0.17757  0.58952  0.09508  1.0000
  Fe  Fe22      1.0  0.22647  0.60674  0.21892  1.0000
  S   S38       1.0  0.21661  0.56690  0.25377  1.0000
  S   S39       1.0  0.23421  0.66781  0.15039  1.0000
  S   S40       1.0  0.25243  0.66128  0.23033  1.0000
  C   C118      1.0  0.07116  0.76313  0.24825  1.0000
  H   H150      1.0  0.03594  0.64948  0.22105  1.0000
  Fe  Fe23      1.0  0.09645  0.59243  0.39059  1.0000
  S   S41       1.0  0.14120  0.60570  0.42892  1.0000
  S   S42       1.0  0.05560  0.62880  0.37137  1.0000
  Fe  Fe24      1.0  0.15974  0.58369  0.39317  1.0000
  S   S43       1.0  0.19253  0.61758  0.37942  1.0000
  H   H151      1.0  0.03472  0.82353  0.27769  1.0000
  S   S44       1.0  0.11506  0.57501  0.35387  1.0000
  S   S45       1.0  0.09482  0.53351  0.40784  1.0000
  N   N10       1.0  0.11312  0.52142  0.24719  1.0000
  H   H152      1.0  0.25760  0.61008  0.46091  1.0000
  C   C119      1.0  0.19130  0.67854  0.46461  1.0000
  H   H153      1.0  0.13724  0.56124  0.03311  1.0000
  H   H154      1.0  0.05441  0.85203  0.32689  1.0000
  H   H155      1.0  0.02838  0.79519  0.35850  1.0000
  H   H156      1.0  0.18721  0.69984  0.44599  1.0000
  S   S46       1.0  0.04769  0.78454  0.43762  1.0000
  H   H157      1.0  0.11796  0.68119  0.09049  1.0000
  H   H158      1.0  0.10091  0.53704  0.28718  1.0000
  S   S47       1.0  0.02938  0.89822  0.20379  1.0000
  Fe  Fe25      1.0  0.03337  0.81806  0.11040  1.0000
  H   H159      1.0  0.18983  0.67072  0.08243  1.0000
  S   S48       1.0  0.06182  0.77360  0.10119  1.0000
  C   C120      1.0  0.04417  0.98455  0.15736  1.0000
  C   C121      1.0  0.11116  0.54958  0.27098  1.0000
  H   H160      1.0  0.05455  0.59658  0.31293  1.0000
  S   S49       1.0  0.03935  0.88039  0.12054  1.0000
  S   S50       1.0  0.01788  0.87564  0.39008  1.0000
  H   H161      1.0  0.01661  0.99929  0.09371  1.0000
  H   H162      1.0  0.32245  0.95573  0.03198  1.0000
  H   H163      1.0  0.06238  0.64788  0.28158  1.0000
  H   H164      1.0  0.22448  0.58188  0.44103  1.0000
  Fe  Fe26      1.0  0.14136  0.54541  0.44432  1.0000
  H   H165      1.0  0.23100  0.55889  0.08959  1.0000
  H   H166      1.0  0.03177  0.93582  0.03521  1.0000
  H   H167      1.0  0.23767  0.52863  0.49601  1.0000
  C   C122      1.0  0.01033  0.88522  0.22899  1.0000
  C   C123      1.0  0.21075  0.64936  0.46651  1.0000
  C   C124      1.0  0.01262  0.59741  0.21879  1.0000
  H   H168      1.0  0.03687  0.92129  0.26908  1.0000
  H   H169      1.0  0.33657  0.66752  0.26415  1.0000
  C   C125      1.0  0.05337  0.67114  0.39106  1.0000
  C   C126      1.0  0.07702  0.68455  0.41878  1.0000
  C   C127      1.0  0.07466  0.71889  0.43329  1.0000
  C   C128      1.0  0.04873  0.74011  0.42021  1.0000
  C   C129      1.0  0.02501  0.72647  0.39267  1.0000
  C   C130      1.0  0.02737  0.69221  0.37810  1.0000
  H   H170      1.0  0.09711  0.66850  0.42904  1.0000
  H   H171      1.0  0.09309  0.72921  0.45463  1.0000
  H   H172      1.0  0.10556  0.77523  0.37185  1.0000
  C   C131      1.0  0.18369  0.56269  0.06447  1.0000
  H   H173      1.0  0.06968  0.84253  0.36952  1.0000
  C   C132      1.0  0.15913  0.55211  0.03610  1.0000
  C   C133      1.0  0.22402  0.55280  0.49741  1.0000
  C   C134      1.0  0.03239  0.62622  0.23490  1.0000
  C   C135      1.0  0.20996  0.58218  0.28843  1.0000
  C   C136      1.0  0.21065  0.62010  0.29690  1.0000
  C   C137      1.0  0.20522  0.63076  0.32479  1.0000
  C   C138      1.0  0.19815  0.60373  0.34378  1.0000
  C   C139      1.0  0.19698  0.56588  0.33495  1.0000
  C   C140      1.0  0.20349  0.55520  0.30784  1.0000
  H   H174      1.0  0.21585  0.64116  0.28230  1.0000
  H   H175      1.0  0.20645  0.66007  0.33160  1.0000
  H   H176      1.0  0.19218  0.54475  0.34975  1.0000
  H   H177      1.0  0.13350  0.56073  0.28710  1.0000
  C   C141      1.0  0.09783  0.76495  0.12998  1.0000
  C   C142      1.0  0.10770  0.72788  0.13506  1.0000
  C   C143      1.0  0.13764  0.72014  0.15361  1.0000
  C   C144      1.0  0.15797  0.74954  0.16681  1.0000
  C   C145      1.0  0.14784  0.78658  0.16293  1.0000
  C   C146      1.0  0.11780  0.79431  0.14465  1.0000
  H   H178      1.0  0.09220  0.70511  0.12402  1.0000
  H   H179      1.0  0.14511  0.69154  0.15695  1.0000
  H   H180      1.0  0.16346  0.80945  0.17323  1.0000
  H   H181      1.0  0.11043  0.82301  0.14063  1.0000
  C   C147      1.0  0.21529  0.52778  0.04374  1.0000
  H   H182      1.0  0.18044  0.69704  0.04546  1.0000
  C   C148      1.0  0.02290  0.56519  0.27107  1.0000
  H   H183      1.0  0.09770  0.57411  0.25869  1.0000
  H   H184      1.0  0.09723  0.73570  0.06155  1.0000
  H   H185      1.0  0.12706  0.64348  0.06950  1.0000
  H   H186      1.0  0.11494  0.56527  0.21398  1.0000
  C   C149      1.0  0.12668  0.53959  0.22605  1.0000
  C   C150      1.0  0.06123  0.53112  0.20570  1.0000
  H   H187      1.0  0.00895  0.68192  0.35675  1.0000
  S   S51       1.0  0.31744  0.65175  0.19341  1.0000
  S   S52       1.0  0.16382  0.52441  0.41154  1.0000
  C   C151      1.0  0.05252  0.79196  0.24908  1.0000
  H   H188      1.0  0.12702  0.52002  0.20655  1.0000
  H   H189      1.0  0.14397  0.74358  0.09571  1.0000
  H   H190      1.0  0.20139  0.54849  0.47829  1.0000
  C   C152      1.0  0.08645  0.74294  0.27661  1.0000
  H   H191      1.0  0.07394  0.75671  0.22561  1.0000
  N   N11       1.0  0.06233  0.79314  0.33877  1.0000
  C   C153      1.0  0.07015  0.83352  0.34557  1.0000
  C   C154      1.0  0.03128  0.78723  0.33554  1.0000
  C   C155      1.0  0.08177  0.77196  0.36788  1.0000
  C   C156      1.0  0.06518  0.78173  0.30789  1.0000
  C   C157      1.0  0.04938  0.80095  0.27832  1.0000
  C   C158      1.0  0.01759  0.95730  0.02013  1.0000
  H   H192      1.0  0.01625  0.53708  0.17047  1.0000
  H   H193      1.0  0.06626  0.56033  0.20357  1.0000
  C   C159      1.0  0.17651  0.67979  0.48590  1.0000
  S   S53       1.0  0.01389  0.80650  0.14792  1.0000
  H   H194      1.0  0.01541  0.80437  0.31568  1.0000
  H   H195      1.0  0.03125  0.50922  0.33769  1.0000
  H   H196      1.0  0.04082  0.80797  0.22708  1.0000
  H   H197      1.0  0.01078  0.90285  0.30536  1.0000
  H   H198      1.0  0.07978  0.78210  0.39080  1.0000
  H   H199      1.0  0.15010  0.54876  0.24038  1.0000
  H   H200      1.0  0.02434  0.75731  0.33009  1.0000
  H   H201      1.0  0.07574  0.74157  0.36576  1.0000
  C   C160      1.0  0.03248  0.51820  0.18686  1.0000
  C   C161      1.0  0.33982  0.96800  0.02562  1.0000
  C   C162      1.0  0.16255  0.52924  0.01180  1.0000
  C   C163      1.0  0.07348  0.73857  0.01004  1.0000
  C   C164      1.0  0.17116  0.67830  0.05927  1.0000
  N   N12       1.0  0.14684  0.69656  0.06583  1.0000
  C   C165      1.0  0.04725  0.62524  0.26885  1.0000
  C   C166      1.0  0.15988  0.72980  0.08707  1.0000
  C   C167      1.0  0.13595  0.66954  0.08412  1.0000
  H   H202      1.0  0.16370  0.65132  0.04563  1.0000
  C   C168      1.0  0.01886  0.90096  0.26055  1.0000
  Fe  Fe27      1.0  0.01560  0.86899  0.15446  1.0000
  C   C169      1.0  0.08351  0.75182  0.30606  1.0000
  C   C170      1.0  0.04260  0.59531  0.28675  1.0000
  H   H203      1.0  0.17911  0.72218  0.10981  1.0000
  H   H204      1.0  0.16098  0.70199  0.48389  1.0000
  H   H205      1.0  0.05957  0.53440  0.33034  1.0000
  H   H206      1.0  0.09273  0.83966  0.34622  1.0000
  C   C171      1.0  0.12171  0.70790  0.03575  1.0000
  H   H207      1.0  0.23713  0.51820  0.04696  1.0000
  H   H208      1.0  0.16764  0.75128  0.07393  1.0000
  Fe  Fe28      1.0  0.11718  0.51717  0.37414  1.0000
  H   H209      1.0  0.15397  0.66111  0.10753  1.0000
  C   C172      1.0  0.19063  0.51643  0.01577  1.0000
  C   C173      1.0  0.24471  0.58549  0.46392  1.0000
  C   C174      1.0  0.03548  0.53421  0.32500  1.0000
  H   H210      1.0  0.09607  0.73511  0.32709  1.0000
  H   H211      1.0  0.20415  0.52583  0.30219  1.0000
  H   H212      1.0  0.25889  0.56075  0.46572  1.0000
  C   C175      1.0  0.21189  0.55090  0.06794  1.0000
  H   H213      1.0  0.05551  0.75398  0.01263  1.0000
  H   H214      1.0  0.10112  0.72068  0.27589  1.0000
  S   S54       1.0  0.15251  0.53686  0.49884  1.0000
  C   C176      1.0  0.09771  0.72812  0.03803  1.0000
  N   N13       1.0  0.23681  0.58940  0.49303  1.0000
  H   H215      1.0  0.04607  0.96694  0.17879  1.0000
  H   H216      1.0  0.22095  0.64992  0.44880  1.0000
  H   H217      1.0  0.04922  0.96576  0.14009  1.0000
  C   C177      1.0  0.21585  0.62024  0.48993  1.0000
  H   H218      1.0  0.03019  0.55923  0.33676  1.0000
  N   N14       1.0  0.01445  0.00147  0.14167  1.0000
  H   H219      1.0  0.01328  0.98431  0.20174  1.0000
  N   N15       1.0  0.01769  0.53280  0.28916  1.0000
  H   H220      1.0  0.06186  0.00655  0.16616  1.0000
  H   H221      1.0  0.13355  0.65395  0.82054  1.0000
  H   H222      1.0  0.17858  0.69001  0.84012  1.0000
  H   H223      1.0  0.26083  0.88686  0.92441  1.0000
  Fe  Fe29      1.0  0.28222  0.84211  0.87244  1.0000
  S   S55       1.0  0.28472  0.90521  0.87036  1.0000
  S   S56       1.0  0.24138  0.80414  0.86296  1.0000
  Fe  Fe30      1.0  0.32436  0.89562  0.85679  1.0000
  S   S57       1.0  0.08994  0.52986  0.83602  1.0000
  Fe  Fe31      1.0  0.31738  0.90244  0.92289  1.0000
  H   H224      1.0  0.04221  0.95142  0.83930  1.0000
  S   S58       1.0  0.31983  0.83267  0.85519  1.0000
  S   S59       1.0  0.31299  0.84019  0.92560  1.0000
  Fe  Fe32      1.0  0.06448  0.78647  0.79743  1.0000
  S   S60       1.0  0.04829  0.78934  0.83858  1.0000
  S   S61       1.0  0.10078  0.82714  0.79663  1.0000
  C   C178      1.0  0.23290  0.94991  0.90348  1.0000
  Fe  Fe33      1.0  0.04898  0.72648  0.83662  1.0000
  S   S62       1.0  0.06878  0.69072  0.88163  1.0000
  S   S63       1.0  0.06786  0.72374  0.79781  1.0000
  H   H225      1.0  0.04085  0.92949  0.87532  1.0000
  C   C179      1.0  0.07699  0.00061  0.53722  1.0000
  H   H226      1.0  0.11031  0.91840  0.53396  1.0000
  H   H227      1.0  0.15259  0.58284  0.88340  1.0000
  H   H228      1.0  0.28093  0.57438  0.52558  1.0000
  C   C180      1.0  0.14523  0.69091  0.87655  1.0000
  C   C181      1.0  0.14237  0.63678  0.84323  1.0000
  C   C182      1.0  0.18794  0.91075  0.89379  1.0000
  C   C183      1.0  0.13232  0.96665  0.56296  1.0000
  N   N16       1.0  0.21999  0.91658  0.91349  1.0000
  C   C184      1.0  0.02721  0.93766  0.84963  1.0000
  C   C185      1.0  0.34041  0.96062  0.99463  1.0000
  H   H229      1.0  0.13133  0.84841  0.88569  1.0000
  H   H230      1.0  0.17291  0.54996  0.93517  1.0000
  C   C186      1.0  0.07218  0.64446  0.86990  1.0000
  C   C187      1.0  0.06039  0.63448  0.83673  1.0000
  C   C188      1.0  0.06494  0.59861  0.82680  1.0000
  C   C189      1.0  0.08156  0.57254  0.85001  1.0000
  C   C190      1.0  0.09278  0.58199  0.88339  1.0000
  C   C191      1.0  0.08812  0.61804  0.89334  1.0000
  H   H231      1.0  0.04808  0.65464  0.81861  1.0000
  H   H232      1.0  0.05614  0.59145  0.80094  1.0000
  H   H233      1.0  0.10569  0.56199  0.90145  1.0000
  H   H234      1.0  0.09736  0.62568  0.91906  1.0000
  H   H235      1.0  0.09393  0.70098  0.95159  1.0000
  H   H236      1.0  0.26001  0.59841  0.54500  1.0000
  S   S64       1.0  0.31284  0.93080  0.96683  1.0000
  H   H237      1.0  0.04967  0.97637  0.00081  1.0000
  C   C192      1.0  0.22508  0.92157  0.94857  1.0000
  H   H238      1.0  0.10371  0.89125  0.84097  1.0000
  H   H239      1.0  0.05340  0.73682  0.95724  1.0000
  H   H240      1.0  0.12891  0.94628  0.82917  1.0000
  H   H241      1.0  0.12855  0.68112  0.88626  1.0000
  C   C193      1.0  0.20242  0.81195  0.84470  1.0000
  C   C194      1.0  0.19028  0.84363  0.82591  1.0000
  C   C195      1.0  0.15920  0.84778  0.81127  1.0000
  C   C196      1.0  0.13985  0.82051  0.81531  1.0000
  C   C197      1.0  0.15203  0.78917  0.83450  1.0000
  C   C198      1.0  0.18307  0.78490  0.84899  1.0000
  H   H242      1.0  0.20474  0.86457  0.82207  1.0000
  H   H243      1.0  0.15005  0.87218  0.79652  1.0000
  H   H244      1.0  0.13742  0.76828  0.83800  1.0000
  H   H245      1.0  0.19221  0.76047  0.86360  1.0000
  H   H246      1.0  0.22232  0.97629  0.90657  1.0000
  C   C199      1.0  0.23658  0.88338  0.91017  1.0000
  H   H247      1.0  0.22985  0.85711  0.91897  1.0000
  C   C200      1.0  0.12678  0.89725  0.85612  1.0000
  H   H248      1.0  0.21879  0.89618  0.95898  1.0000
  H   H249      1.0  0.20081  0.65064  0.86037  1.0000
  C   C201      1.0  0.16726  0.59863  0.90441  1.0000
  H   H250      1.0  0.13284  0.70559  0.85314  1.0000
  C   C202      1.0  0.09522  0.70877  0.97585  1.0000
  H   H251      1.0  0.16611  0.52251  0.56668  1.0000
  H   H252      1.0  0.12271  0.62621  0.84739  1.0000
  H   H253      1.0  0.24896  0.92739  0.96387  1.0000
  H   H254      1.0  0.15949  0.71241  0.89390  1.0000
  H   H255      1.0  0.20030  0.68373  0.93264  1.0000
  C   C203      1.0  0.18700  0.67381  0.86341  1.0000
  C   C204      1.0  0.17252  0.87969  0.90006  1.0000
  H   H256      1.0  0.32874  0.86184  0.78577  1.0000
  C   C205      1.0  0.02768  0.98037  0.00051  1.0000
  H   H257      1.0  0.18379  0.85976  0.91900  1.0000
  H   H258      1.0  0.23086  0.94738  0.87758  1.0000
  C   C206      1.0  0.07226  0.72894  0.97899  1.0000
  C   C207      1.0  0.11962  0.69824  0.00368  1.0000
  H   H259      1.0  0.25705  0.95334  0.91860  1.0000
  C   C208      1.0  0.17123  0.93498  0.86786  1.0000
  H   H260      1.0  0.18094  0.95908  0.86092  1.0000
  C   C209      1.0  0.19392  0.65456  0.93213  1.0000
  H   H261      1.0  0.20394  0.60242  0.53064  1.0000
  C   C210      1.0  0.20540  0.63477  0.96157  1.0000
  N   N17       1.0  0.16241  0.65898  0.87187  1.0000
  H   H262      1.0  0.23306  0.87850  0.88409  1.0000
  C   C211      1.0  0.18140  0.65210  0.50948  1.0000
  C   C212      1.0  0.08035  0.96392  0.52813  1.0000
  H   H263      1.0  0.08120  0.51799  0.76807  1.0000
  C   C213      1.0  0.17874  0.57922  0.93408  1.0000
  H   H264      1.0  0.15390  0.61257  0.83776  1.0000
  C   C214      1.0  0.14111  0.92812  0.84940  1.0000
  H   H265      1.0  0.20675  0.58178  0.98534  1.0000
  C   C215      1.0  0.19780  0.59718  0.96253  1.0000
  H   H266      1.0  0.22035  0.64856  0.98381  1.0000
  H   H267      1.0  0.21209  0.94546  0.95200  1.0000
  H   H268      1.0  0.03266  0.54382  0.73869  1.0000
  C   C216      1.0  0.17452  0.63710  0.90257  1.0000
  C   C217      1.0  0.14244  0.87309  0.88138  1.0000
  H   H269      1.0  0.20202  0.69323  0.88244  1.0000
  C   C218      1.0  0.20098  0.62299  0.51179  1.0000
  H   H270      1.0  0.22228  0.55027  0.52163  1.0000
  C   C219      1.0  0.12922  0.00348  0.57203  1.0000
  H   H271      1.0  0.13637  0.68226  0.99935  1.0000
  S   S65       1.0  0.01779  0.78611  0.75832  1.0000
  C   C220      1.0  0.10791  0.94692  0.54103  1.0000
  Fe  Fe34      1.0  0.01997  0.72313  0.76293  1.0000
  C   C221      1.0  0.26438  0.59683  0.52212  1.0000
  H   H272      1.0  0.27480  0.62402  0.51979  1.0000
  C   C222      1.0  0.03812  0.51687  0.73112  1.0000
  H   H273      1.0  0.15376  0.95331  0.57295  1.0000
  H   H274      1.0  0.03144  0.99484  0.89091  1.0000
  H   H275      1.0  0.06135  0.94863  0.51087  1.0000
  C   C223      1.0  0.01664  0.99872  0.86468  1.0000
  H   H276      1.0  0.14341  0.52127  0.99024  1.0000
  H   H277      1.0  0.16964  0.65285  0.52581  1.0000
  H   H278      1.0  0.01888  0.91142  0.83516  1.0000
  C   C224      1.0  0.34030  0.88143  0.77610  1.0000
  S   S66       1.0  0.33941  0.93205  0.82375  1.0000
  C   C225      1.0  0.00976  0.00868  0.98068  1.0000
  S   S67       1.0  0.40777  0.09384  0.14628  1.0000
  Fe  Fe35      1.0  0.40881  0.05098  0.18437  1.0000
  S   S68       1.0  0.45625  0.06297  0.21624  1.0000
  Fe  Fe36      1.0  0.42212  0.04567  0.12251  1.0000
  S   S69       1.0  0.47087  0.05700  0.15069  1.0000
  H   H279      1.0  0.59405  0.27779  0.28162  1.0000
  Fe  Fe37      1.0  0.45660  0.10191  0.17666  1.0000
  S   S70       1.0  0.48591  0.15380  0.19522  1.0000
  C   C226      1.0  0.55327  0.01642  0.34972  1.0000
  S   S71       1.0  0.62036  0.07097  0.34209  1.0000
  Fe  Fe38      1.0  0.62079  0.08466  0.39155  1.0000
  S   S72       1.0  0.58050  0.11789  0.38865  1.0000
  H   H280      1.0  0.51612  0.03225  0.26855  1.0000
  Fe  Fe39      1.0  0.55583  0.33619  0.39921  1.0000
  S   S73       1.0  0.51849  0.34128  0.35016  1.0000
  S   S74       1.0  0.59304  0.29482  0.40827  1.0000
  Fe  Fe40      1.0  0.53633  0.40496  0.42801  1.0000
  S   S75       1.0  0.49718  0.41481  0.38094  1.0000
  S   S76       1.0  0.55260  0.43971  0.47565  1.0000
  Fe  Fe41      1.0  0.49048  0.35218  0.37916  1.0000
  S   S77       1.0  0.44452  0.32637  0.35633  1.0000
  Fe  Fe42      1.0  0.52814  0.40293  0.35553  1.0000
  S   S78       1.0  0.52544  0.43863  0.31223  1.0000
  S   S79       1.0  0.52718  0.34251  0.42829  1.0000
  S   S80       1.0  0.56791  0.39770  0.40250  1.0000
  Fe  Fe43      1.0  0.57235  0.34212  0.10643  1.0000
  S   S81       1.0  0.52583  0.35503  0.07232  1.0000
  S   S82       1.0  0.59879  0.30484  0.08710  1.0000
  Fe  Fe44      1.0  0.56519  0.37959  0.16488  1.0000
  S   S83       1.0  0.51818  0.39542  0.13512  1.0000
  S   S84       1.0  0.58882  0.38176  0.22009  1.0000
  Fe  Fe45      1.0  0.51362  0.33703  0.11421  1.0000
  S   S85       1.0  0.47517  0.29674  0.10615  1.0000
  Fe  Fe46      1.0  0.53513  0.41230  0.09585  1.0000
  S   S86       1.0  0.52013  0.46828  0.06909  1.0000
  S   S87       1.0  0.55942  0.32038  0.14632  1.0000
  S   S88       1.0  0.58292  0.40034  0.12772  1.0000
  H   H281      1.0  0.60446  0.11012  0.15196  1.0000
  H   H282      1.0  0.52991  0.08664  0.20095  1.0000
  C   C227      1.0  0.37137  0.06956  0.23714  1.0000
  C   C228      1.0  0.54334  0.42262  0.28699  1.0000
  C   C229      1.0  0.56412  0.39397  0.29708  1.0000
  C   C230      1.0  0.57809  0.38188  0.27641  1.0000
  C   C231      1.0  0.57063  0.39744  0.24515  1.0000
  C   C232      1.0  0.54941  0.42558  0.23482  1.0000
  C   C233      1.0  0.53623  0.43862  0.25595  1.0000
  H   H283      1.0  0.56984  0.38161  0.32104  1.0000
  H   H284      1.0  0.59470  0.36033  0.28465  1.0000
  H   H285      1.0  0.54376  0.43797  0.21089  1.0000
  H   H286      1.0  0.52023  0.46088  0.24807  1.0000
  H   H287      1.0  0.43676  0.27696  0.45669  1.0000
  N   N18       1.0  0.44549  0.19261  0.35221  1.0000
  H   H288      1.0  0.45537  0.22747  0.39532  1.0000
  C   C234      1.0  0.58881  0.24550  0.40505  1.0000
  C   C235      1.0  0.56090  0.22786  0.39289  1.0000
  C   C236      1.0  0.55863  0.18857  0.38865  1.0000
  C   C237      1.0  0.58416  0.16678  0.39627  1.0000
  C   C238      1.0  0.61200  0.18440  0.40900  1.0000
  C   C239      1.0  0.61429  0.22355  0.41341  1.0000
  H   H289      1.0  0.54121  0.24458  0.38668  1.0000
  H   H290      1.0  0.53710  0.17493  0.37930  1.0000
  H   H291      1.0  0.63182  0.16789  0.41554  1.0000
  H   H292      1.0  0.63596  0.23697  0.42311  1.0000
  C   C240      1.0  0.48324  0.19230  0.16933  1.0000
  C   C241      1.0  0.50604  0.21952  0.17885  1.0000
  C   C242      1.0  0.50416  0.25120  0.15931  1.0000
  C   C243      1.0  0.47919  0.25626  0.13039  1.0000
  C   C244      1.0  0.45647  0.22899  0.12088  1.0000
  C   C245      1.0  0.45858  0.19692  0.14009  1.0000
  H   H293      1.0  0.52514  0.21624  0.20152  1.0000
  H   H294      1.0  0.52177  0.27200  0.16697  1.0000
  H   H295      1.0  0.43703  0.23272  0.09858  1.0000
  H   H296      1.0  0.44083  0.17618  0.13258  1.0000
  S   S89       1.0  0.37811  0.24419  0.43565  1.0000
  C   C246      1.0  0.64630  0.25814  0.10845  1.0000
  C   C247      1.0  0.63179  0.28773  0.11666  1.0000
  C   C248      1.0  0.64356  0.30294  0.14836  1.0000
  C   C249      1.0  0.35797  0.11993  0.27872  1.0000
  H   H297      1.0  0.63715  0.24622  0.08397  1.0000
  H   H298      1.0  0.63248  0.32583  0.15482  1.0000
  C   C250      1.0  0.39676  0.26725  0.41393  1.0000
  C   C251      1.0  0.38272  0.27232  0.38011  1.0000
  C   C252      1.0  0.39746  0.29140  0.36301  1.0000
  C   C253      1.0  0.42661  0.30457  0.37940  1.0000
  C   C254      1.0  0.44088  0.29921  0.41320  1.0000
  C   C255      1.0  0.42577  0.28107  0.43053  1.0000
  C   C256      1.0  0.63529  0.26166  0.23716  1.0000
  H   H299      1.0  0.38628  0.29555  0.33687  1.0000
  H   H300      1.0  0.46359  0.30849  0.42585  1.0000
  H   H301      1.0  0.40162  0.19345  0.31378  1.0000
  H   H302      1.0  0.65621  0.18848  0.28924  1.0000
  C   C257      1.0  0.34195  0.05131  0.48944  1.0000
  H   H303      1.0  0.60338  0.15921  0.32964  1.0000
  C   C258      1.0  0.58812  0.21579  0.13507  1.0000
  S   S90       1.0  0.37466  0.14814  0.39766  1.0000
  S   S91       1.0  0.37783  0.03739  0.21023  1.0000
  C   C259      1.0  0.64624  0.21283  0.34699  1.0000
  C   C260      1.0  0.43429  0.38222  0.47407  1.0000
  H   H304      1.0  0.57382  0.23273  0.30445  1.0000
  H   H305      1.0  0.51077  0.15096  0.09231  1.0000
  H   H306      1.0  0.54206  0.47885  0.37918  1.0000
  C   C261      1.0  0.64108  0.48663  0.38100  1.0000
  H   H307      1.0  0.53279  0.25193  0.11421  1.0000
  C   C262      1.0  0.59869  0.50161  0.10469  1.0000
  C   C263      1.0  0.62354  0.22941  0.28964  1.0000
  H   H308      1.0  0.40498  0.21748  0.35031  1.0000
  H   H309      1.0  0.55674  0.12900  0.11099  1.0000
  C   C264      1.0  0.49864  0.04781  0.34622  1.0000
  C   C265      1.0  0.55381  0.09058  0.21050  1.0000
  H   H310      1.0  0.55476  0.02455  0.29081  1.0000
  C   C266      1.0  0.56571  0.12671  0.21371  1.0000
  C   C267      1.0  0.49947  0.02643  0.31938  1.0000
  H   H311      1.0  0.35755  0.02647  0.26248  1.0000
  N   N19       1.0  0.47768  0.34008  0.21416  1.0000
  C   C268      1.0  0.46033  0.34112  0.17816  1.0000
  C   C269      1.0  0.47614  0.37798  0.22738  1.0000
  C   C270      1.0  0.50909  0.33281  0.22016  1.0000
  C   C271      1.0  0.46634  0.30985  0.22932  1.0000
  C   C272      1.0  0.46215  0.27286  0.21619  1.0000
  C   C273      1.0  0.46018  0.31561  0.25791  1.0000
  C   C274      1.0  0.45142  0.24386  0.22994  1.0000
  C   C275      1.0  0.44933  0.28642  0.27142  1.0000
  C   C276      1.0  0.44465  0.25075  0.25724  1.0000
  H   H312      1.0  0.43617  0.34338  0.17244  1.0000
  H   H313      1.0  0.46706  0.36519  0.16644  1.0000
  H   H314      1.0  0.46361  0.31596  0.16519  1.0000
  H   H315      1.0  0.45311  0.38470  0.22451  1.0000
  H   H316      1.0  0.48357  0.40027  0.21457  1.0000
  H   H317      1.0  0.49095  0.38078  0.25377  1.0000
  H   H318      1.0  0.51192  0.30501  0.21049  1.0000
  H   H319      1.0  0.51826  0.35410  0.20810  1.0000
  H   H320      1.0  0.52320  0.33347  0.24687  1.0000
  H   H321      1.0  0.46712  0.26596  0.19513  1.0000
  H   H322      1.0  0.46347  0.34240  0.27037  1.0000
  H   H323      1.0  0.44833  0.21588  0.21923  1.0000
  H   H324      1.0  0.44450  0.29168  0.29303  1.0000
  H   H325      1.0  0.43593  0.22830  0.26750  1.0000
  C   C277      1.0  0.51347  0.49842  0.46951  1.0000
  H   H326      1.0  0.54822  0.25727  0.08326  1.0000
  H   H327      1.0  0.64314  0.20063  0.36859  1.0000
  C   C278      1.0  0.67239  0.24352  0.13191  1.0000
  H   H328      1.0  0.41799  0.41166  0.35754  1.0000
  C   C279      1.0  0.57241  0.05954  0.21956  1.0000
  C   C280      1.0  0.36844  0.13315  0.25522  1.0000
  Fe  Fe47      1.0  0.63278  0.01294  0.36088  1.0000
  H   H329      1.0  0.55512  0.20201  0.05428  1.0000
  H   H330      1.0  0.51847  0.05559  0.36708  1.0000
  C   C281      1.0  0.60382  0.06400  0.23218  1.0000
  C   C282      1.0  0.53187  0.24130  0.09024  1.0000
  S   S92       1.0  0.34866  0.15307  0.30280  1.0000
  H   H331      1.0  0.56154  0.03240  0.21654  1.0000
  C   C283      1.0  0.35454  0.08134  0.28169  1.0000
  C   C284      1.0  0.41694  0.21124  0.33404  1.0000
  C   C285      1.0  0.61538  0.20427  0.15828  1.0000
  H   H332      1.0  0.60263  0.26072  0.33516  1.0000
  H   H333      1.0  0.60551  0.16033  0.22938  1.0000
  C   C286      1.0  0.52295  0.48665  0.03278  1.0000
  C   C287      1.0  0.37558  0.10808  0.23489  1.0000
  C   C288      1.0  0.53423  0.03461  0.29326  1.0000
  H   H334      1.0  0.64004  0.27437  0.21746  1.0000
  H   H335      1.0  0.47818  0.36625  0.45494  1.0000
  C   C289      1.0  0.43544  0.40954  0.41025  1.0000
  H   H336      1.0  0.37096  0.16300  0.25261  1.0000
  C   C290      1.0  0.57237  0.15081  0.12412  1.0000
  H   H337      1.0  0.58766  0.17069  0.28669  1.0000
  H   H338      1.0  0.49547  0.21982  0.34165  1.0000
  H   H339      1.0  0.51370  0.18632  0.12239  1.0000
  H   H340      1.0  0.62517  0.15489  0.30582  1.0000
  C   C291      1.0  0.64404  0.21326  0.27797  1.0000
  C   C292      1.0  0.44528  0.03193  0.29364  1.0000
  C   C293      1.0  0.46499  0.21961  0.37714  1.0000
  C   C294      1.0  0.45816  0.17971  0.32858  1.0000
  C   C295      1.0  0.48369  0.19665  0.32616  1.0000
  C   C296      1.0  0.44413  0.15027  0.30603  1.0000
  C   C297      1.0  0.49479  0.18395  0.30322  1.0000
  C   C298      1.0  0.45523  0.13802  0.28301  1.0000
  C   C299      1.0  0.48059  0.15472  0.28168  1.0000
  H   H341      1.0  0.42143  0.14175  0.35428  1.0000
  H   H342      1.0  0.48722  0.20762  0.39113  1.0000
  H   H343      1.0  0.46786  0.24654  0.36594  1.0000
  H   H344      1.0  0.48905  0.14522  0.26369  1.0000
  H   H345      1.0  0.42417  0.13675  0.30574  1.0000
  H   H346      1.0  0.51443  0.19705  0.30200  1.0000
  H   H347      1.0  0.44398  0.11554  0.26599  1.0000
  C   C300      1.0  0.64977  0.22920  0.25211  1.0000
  C   C301      1.0  0.61516  0.27836  0.24807  1.0000
  Fe  Fe48      1.0  0.46666  0.01743  0.18774  1.0000
  H   H348      1.0  0.42424  0.06109  0.32115  1.0000
  H   H349      1.0  0.58550  0.24561  0.13104  1.0000
  C   C302      1.0  0.44417  0.42961  0.44036  1.0000
  C   C303      1.0  0.53646  0.18858  0.05901  1.0000
  C   C304      1.0  0.44510  0.05181  0.32067  1.0000
  C   C305      1.0  0.43991  0.16021  0.37021  1.0000
  H   H350      1.0  0.53737  0.06493  0.29995  1.0000
  H   H351      1.0  0.42023  0.23812  0.32308  1.0000
  H   H352      1.0  0.50138  0.48877  0.44462  1.0000
  H   H353      1.0  0.43307  0.16943  0.39033  1.0000
  H   H354      1.0  0.58291  0.49353  0.07971  1.0000
  H   H355      1.0  0.51542  0.19671  0.03874  1.0000
  H   H356      1.0  0.41235  0.48071  0.35555  1.0000
  C   C306      1.0  0.66997  0.28882  0.17163  1.0000
  H   H357      1.0  0.55072  0.44328  0.02691  1.0000
  H   H358      1.0  0.63879  0.10715  0.24729  1.0000
  H   H359      1.0  0.65491  0.24200  0.35365  1.0000
  C   C307      1.0  0.36087  0.05629  0.26064  1.0000
  H   H360      1.0  0.46017  0.14308  0.38148  1.0000
  S   S93       1.0  0.37303  0.06418  0.44943  1.0000
  H   H361      1.0  0.62134  0.49471  0.10636  1.0000
  C   C308      1.0  0.60815  0.17263  0.30940  1.0000
  H   H362      1.0  0.50963  0.24881  0.07178  1.0000
  C   C309      1.0  0.59971  0.13965  0.14744  1.0000
  C   C310      1.0  0.53909  0.47978  0.48945  1.0000
  H   H363      1.0  0.60441  0.30408  0.23671  1.0000
  C   C311      1.0  0.36912  0.04972  0.48594  1.0000
  C   C312      1.0  0.61519  0.10138  0.23627  1.0000
  C   C313      1.0  0.48331  0.38872  0.47376  1.0000
  C   C314      1.0  0.60935  0.26275  0.27399  1.0000
  C   C315      1.0  0.59633  0.13213  0.22669  1.0000
  H   H364      1.0  0.43756  0.37949  0.40971  1.0000
  S   S94       1.0  0.62886  0.02470  0.40890  1.0000
  C   C316      1.0  0.56565  0.18928  0.11725  1.0000
  N   N20       1.0  0.45662  0.40944  0.47192  1.0000
  H   H365      1.0  0.64273  0.15771  0.18184  1.0000
  H   H366      1.0  0.65090  0.05834  0.28838  1.0000
  H   H367      1.0  0.59308  0.48285  0.12160  1.0000
  N   N21       1.0  0.62425  0.03185  0.24225  1.0000
  H   H368      1.0  0.55104  0.15051  0.20635  1.0000
  H   H369      1.0  0.55914  0.04626  0.35700  1.0000
  H   H370      1.0  0.63241  0.22493  0.17098  1.0000
  H   H371      1.0  0.49005  0.19266  0.08022  1.0000
  C   C317      1.0  0.51195  0.18168  0.09682  1.0000
  H   H372      1.0  0.36029  0.26204  0.36718  1.0000
  N   N22       1.0  0.53702  0.20027  0.09141  1.0000
  S   S95       1.0  0.41191  0.03695  0.06821  1.0000
  C   C318      1.0  0.62124  0.16635  0.16438  1.0000
  H   H373      1.0  0.53859  0.15773  0.05726  1.0000
  C   C319      1.0  0.44038  0.46914  0.43835  1.0000
  H   H374      1.0  0.38343  0.11862  0.21672  1.0000
  H   H375      1.0  0.59782  0.46046  0.36717  1.0000
  H   H376      1.0  0.49968  0.40797  0.46998  1.0000
  C   C320      1.0  0.54009  0.46964  0.01769  1.0000
  H   H377      1.0  0.59093  0.21700  0.34550  1.0000
  C   C321      1.0  0.42097  0.46659  0.37898  1.0000
  H   H378      1.0  0.49463  0.37507  0.49796  1.0000
  S   S96       1.0  0.66896  0.10155  0.41201  1.0000
  C   C322      1.0  0.42906  0.48719  0.40803  1.0000
  C   C323      1.0  0.64744  0.03522  0.22842  1.0000
  H   H379      1.0  0.66296  0.05925  0.23898  1.0000
  H   H380      1.0  0.63739  0.03860  0.20133  1.0000
  C   C324      1.0  0.47174  0.05995  0.34680  1.0000
  C   C325      1.0  0.59541  0.23171  0.32576  1.0000
  N   N23       1.0  0.61825  0.21219  0.31738  1.0000
  C   C326      1.0  0.42407  0.42781  0.38010  1.0000
  Fe  Fe49      1.0  0.34977  0.19497  0.40826  1.0000
  H   H381      1.0  0.65073  0.46519  0.39905  1.0000
  Fe  Fe50      1.0  0.66902  0.08373  0.36304  1.0000
  H   H382      1.0  0.66398  0.19620  0.34367  1.0000
  H   H383      1.0  0.47162  0.07565  0.36775  1.0000
  C   C327      1.0  0.47199  0.01970  0.29277  1.0000
  H   H384      1.0  0.62221  0.02776  0.28951  1.0000
  C   C328      1.0  0.63885  0.03165  0.27842  1.0000
  H   H385      1.0  0.42460  0.02597  0.27312  1.0000
  H   H386      1.0  0.44641  0.48691  0.45982  1.0000
  Fe  Fe51      1.0  0.34662  0.11001  0.41477  1.0000
  H   H387      1.0  0.66598  0.21679  0.24402  1.0000
  H   H388      1.0  0.42814  0.36042  0.45443  1.0000
  H   H389      1.0  0.55270  0.50714  0.43365  1.0000
  C   C329      1.0  0.61050  0.48353  0.36283  1.0000
  C   C330      1.0  0.53722  0.50814  0.38107  1.0000
  C   C331      1.0  0.46561  0.43453  0.50116  1.0000
  H   H390      1.0  0.34652  0.07083  0.29970  1.0000
  H   H391      1.0  0.41351  0.39660  0.47176  1.0000
  H   H392      1.0  0.44645  0.45022  0.50217  1.0000
  H   H393      1.0  0.66191  0.01017  0.23385  1.0000
  N   N24       1.0  0.52743  0.01277  0.31798  1.0000
  H   H394      1.0  0.48314  0.45502  0.50156  1.0000
  H   H395      1.0  0.44262  0.36694  0.49778  1.0000
  H   H396      1.0  0.57255  0.50653  0.32439  1.0000
  H   H397      1.0  0.66961  0.09526  0.00927  1.0000
  H   H398      1.0  0.41464  0.03271  0.50882  1.0000
  H   H399      1.0  0.59100  0.21491  0.85595  1.0000
  S   S97       1.0  0.61298  0.04626  0.83582  1.0000
  H   H400      1.0  0.38863  0.19033  0.60399  1.0000
  Fe  Fe52      1.0  0.55026  0.28675  0.78989  1.0000
  S   S98       1.0  0.52628  0.28323  0.82411  1.0000
  S   S99       1.0  0.58700  0.33143  0.80302  1.0000
  Fe  Fe53      1.0  0.50835  0.22707  0.74437  1.0000
  S   S100      1.0  0.48134  0.22076  0.77526  1.0000
  S   S101      1.0  0.49748  0.18985  0.69963  1.0000
  Fe  Fe54      1.0  0.48390  0.28365  0.77883  1.0000
  S   S102      1.0  0.44823  0.32698  0.77352  1.0000
  Fe  Fe55      1.0  0.52619  0.22093  0.81682  1.0000
  S   S103      1.0  0.54031  0.18074  0.85965  1.0000
  S   S104      1.0  0.50796  0.29022  0.74484  1.0000
  S   S105      1.0  0.55308  0.22446  0.78565  1.0000
  C   C332      1.0  0.64421  0.27311  0.90685  1.0000
  C   C333      1.0  0.35877  0.34269  0.73225  1.0000
  C   C334      1.0  0.38981  0.34852  0.74555  1.0000
  C   C335      1.0  0.40933  0.31811  0.75530  1.0000
  C   C336      1.0  0.39744  0.28173  0.75164  1.0000
  C   C337      1.0  0.36645  0.27595  0.73903  1.0000
  C   C338      1.0  0.55466  0.49315  0.52164  1.0000
  H   H401      1.0  0.39874  0.37677  0.74824  1.0000
  H   H402      1.0  0.41212  0.25806  0.75914  1.0000
  H   H403      1.0  0.35754  0.24772  0.73695  1.0000
  C   C339      1.0  0.66668  0.28151  0.82216  1.0000
  H   H404      1.0  0.61597  0.42656  0.69961  1.0000
  C   C340      1.0  0.64617  0.35180  0.83018  1.0000
  C   C341      1.0  0.62552  0.32262  0.81578  1.0000
  C   C342      1.0  0.63599  0.28751  0.81153  1.0000
  C   C343      1.0  0.48727  0.41874  0.76887  1.0000
  C   C344      1.0  0.37933  0.32857  0.88661  1.0000
  H   H405      1.0  0.63833  0.37921  0.83327  1.0000
  H   H406      1.0  0.62045  0.26500  0.79973  1.0000
  H   H407      1.0  0.65846  0.02620  0.74621  1.0000
  C   C345      1.0  0.65894  0.15211  0.86097  1.0000
  H   H408      1.0  0.35633  0.16173  0.59737  1.0000
  H   H409      1.0  0.39441  0.07161  0.59470  1.0000
  H   H410      1.0  0.50476  0.03244  0.79384  1.0000
  N   N25       1.0  0.51662  0.41512  0.79621  1.0000
  C   C346      1.0  0.51706  0.37795  0.81135  1.0000
  C   C347      1.0  0.59237  0.08221  0.84370  1.0000
  C   C348      1.0  0.59120  0.08778  0.87452  1.0000
  C   C349      1.0  0.57452  0.11751  0.87932  1.0000
  C   C350      1.0  0.55894  0.14139  0.85327  1.0000
  C   C351      1.0  0.55947  0.13469  0.82243  1.0000
  C   C352      1.0  0.57633  0.10559  0.81773  1.0000
  H   H411      1.0  0.60356  0.06978  0.89473  1.0000
  H   H412      1.0  0.57413  0.12244  0.90329  1.0000
  H   H413      1.0  0.54679  0.15185  0.80198  1.0000
  H   H414      1.0  0.57671  0.10111  0.79367  1.0000
  C   C353      1.0  0.47617  0.06971  0.72037  1.0000
  C   C354      1.0  0.48589  0.09665  0.74551  1.0000
  C   C355      1.0  0.49328  0.13303  0.73934  1.0000
  C   C356      1.0  0.49112  0.14298  0.70802  1.0000
  C   C357      1.0  0.48259  0.11568  0.68308  1.0000
  C   C358      1.0  0.47476  0.07912  0.68908  1.0000
  H   H415      1.0  0.48689  0.08995  0.76971  1.0000
  H   H416      1.0  0.50025  0.15353  0.75882  1.0000
  H   H417      1.0  0.48193  0.12302  0.65916  1.0000
  H   H418      1.0  0.46775  0.05834  0.66966  1.0000
  C   C359      1.0  0.35399  0.34852  0.86786  1.0000
  H   H419      1.0  0.41810  0.11924  0.73599  1.0000
  H   H420      1.0  0.55166  0.02126  0.88158  1.0000
  C   C360      1.0  0.62522  0.21625  0.92086  1.0000
  H   H421      1.0  0.57457  0.47910  0.53728  1.0000
  C   C361      1.0  0.38931  0.31655  0.83823  1.0000
  H   H422      1.0  0.38529  0.06874  0.64107  1.0000
  C   C362      1.0  0.41304  0.12151  0.70995  1.0000
  H   H423      1.0  0.46917  0.41933  0.77827  1.0000
  C   C363      1.0  0.37726  0.16351  0.59303  1.0000
  H   H424      1.0  0.66998  0.04149  0.97362  1.0000
  H   H425      1.0  0.40296  0.30403  0.82659  1.0000
  H   H426      1.0  0.35928  0.33770  0.79346  1.0000
  C   C364      1.0  0.54412  0.48722  0.99108  1.0000
  H   H427      1.0  0.43896  0.11074  0.61232  1.0000
  C   C365      1.0  0.36403  0.33637  0.81930  1.0000
  C   C366      1.0  0.66146  0.41156  0.72706  1.0000
  H   H428      1.0  0.38531  0.32536  0.91277  1.0000
  H   H429      1.0  0.49899  0.37486  0.82063  1.0000
  H   H430      1.0  0.56252  0.41381  0.80269  1.0000
  H   H431      1.0  0.66557  0.27078  0.92839  1.0000
  H   H432      1.0  0.61168  0.19017  0.91202  1.0000
  H   H433      1.0  0.51328  0.35495  0.79308  1.0000
  H   H434      1.0  0.34174  0.42808  0.83110  1.0000
  H   H435      1.0  0.52035  0.49018  0.78400  1.0000
  N   N26       1.0  0.63117  0.23558  0.89430  1.0000
  H   H436      1.0  0.60564  0.25727  0.84646  1.0000
  C   C367      1.0  0.65038  0.21203  0.88330  1.0000
  C   C368      1.0  0.39477  0.09351  0.65564  1.0000
  H   H437      1.0  0.37118  0.16585  0.56609  1.0000
  C   C369      1.0  0.39702  0.31277  0.87183  1.0000
  C   C370      1.0  0.38078  0.09726  0.58679  1.0000
  H   H438      1.0  0.62864  0.32167  0.74976  1.0000
  H   H439      1.0  0.39590  0.06529  0.69919  1.0000
  C   C371      1.0  0.52295  0.48424  0.80891  1.0000
  H   H440      1.0  0.53887  0.37263  0.83155  1.0000
  H   H441      1.0  0.66947  0.43727  0.72030  1.0000
  H   H442      1.0  0.37658  0.10095  0.56034  1.0000
  C   C372      1.0  0.52481  0.44221  0.85260  1.0000
  H   H443      1.0  0.53158  0.46919  0.89892  1.0000
  H   H444      1.0  0.40156  0.01308  0.00292  1.0000
  H   H445      1.0  0.52197  0.05596  0.83246  1.0000
  C   C373      1.0  0.52158  0.44693  0.81943  1.0000
  C   C374      1.0  0.40158  0.12677  0.64208  1.0000
  C   C375      1.0  0.63792  0.34670  0.74331  1.0000
  H   H446      1.0  0.55783  0.47402  0.98003  1.0000
  H   H447      1.0  0.52392  0.41505  0.86290  1.0000
  H   H448      1.0  0.41668  0.29740  0.88639  1.0000
  H   H449      1.0  0.54391  0.03632  0.81190  1.0000
  C   C376      1.0  0.63076  0.40576  0.71514  1.0000
  H   H450      1.0  0.67444  0.25423  0.81858  1.0000
  H   H451      1.0  0.62867  0.04533  0.75451  1.0000
  H   H452      1.0  0.42142  0.18272  0.65605  1.0000
  H   H453      1.0  0.62245  0.02985  0.71362  1.0000
  H   H454      1.0  0.61231  0.23408  0.93115  1.0000
  C   C377      1.0  0.42463  0.13557  0.60299  1.0000
  H   H455      1.0  0.58693  0.25786  0.87423  1.0000
  H   H456      1.0  0.47515  0.41858  0.52446  1.0000
  C   C378      1.0  0.52925  0.47307  0.87369  1.0000
  C   C379      1.0  0.41456  0.15702  0.66414  1.0000
  C   C380      1.0  0.34578  0.35352  0.83363  1.0000
  S   S106      1.0  0.46663  0.02460  0.72949  1.0000
  N   N27       1.0  0.39604  0.13044  0.60684  1.0000
  H   H457      1.0  0.42136  0.13919  0.57681  1.0000
  H   H458      1.0  0.43060  0.17761  0.71390  1.0000
  C   C381      1.0  0.34691  0.30632  0.72941  1.0000
  H   H459      1.0  0.53945  0.44024  0.76773  1.0000
  C   C382      1.0  0.52391  0.03162  0.81759  1.0000
  H   H460      1.0  0.48228  0.39455  0.75143  1.0000
  C   C383      1.0  0.60252  0.24166  0.86658  1.0000
  C   C384      1.0  0.36318  0.01949  0.54236  1.0000
  H   H461      1.0  0.53787  0.39027  0.76644  1.0000
  C   C385      1.0  0.63419  0.02322  0.74009  1.0000
  C   C386      1.0  0.64131  0.17500  0.87149  1.0000
  H   H462      1.0  0.35886  0.09164  0.58820  1.0000
  H   H463      1.0  0.43737  0.16055  0.61664  1.0000
  H   H464      1.0  0.48574  0.44458  0.75439  1.0000
  C   C387      1.0  0.40055  0.09113  0.68913  1.0000
  H   H465      1.0  0.34408  0.36632  0.72473  1.0000
  C   C388      1.0  0.41998  0.15440  0.69747  1.0000
  H   H466      1.0  0.53487  0.02509  0.74584  1.0000
  H   H467      1.0  0.59522  0.36903  0.71434  1.0000
  C   C389      1.0  0.54004  0.41507  0.78266  1.0000
  H   H468      1.0  0.62036  0.16348  0.87010  1.0000
  H   H469      1.0  0.64624  0.20852  0.94129  1.0000
  C   C390      1.0  0.39072  0.01946  0.53960  1.0000
  C   C391      1.0  0.61902  0.37342  0.72333  1.0000
  H   H470      1.0  0.65135  0.12394  0.85199  1.0000
  H   H471      1.0  0.62918  0.29009  0.91480  1.0000
  H   H472      1.0  0.58880  0.02876  0.76541  1.0000
  H   H473      1.0  0.64801  0.28977  0.88747  1.0000
  C   C392      1.0  0.66866  0.35220  0.75541  1.0000
  C   C393      1.0  0.39349  0.03384  0.51124  1.0000
  S   S107      1.0  0.50348  0.97880  0.21693  1.0000
  S   S108      1.0  0.61270  0.96644  0.32408  1.0000
  H   H474      1.0  0.52120  0.61279  0.38948  1.0000
  Fe  Fe56      1.0  0.48280  0.72468  0.29515  1.0000
  S   S109      1.0  0.49480  0.70946  0.25272  1.0000
  S   S110      1.0  0.44277  0.70121  0.30373  1.0000
  Fe  Fe57      1.0  0.53548  0.78065  0.32266  1.0000
  S   S111      1.0  0.55065  0.76983  0.28163  1.0000
  S   S112      1.0  0.55899  0.82154  0.36402  1.0000
  Fe  Fe58      1.0  0.50205  0.77152  0.24959  1.0000
  S   S113      1.0  0.47930  0.80349  0.20271  1.0000
  Fe  Fe59      1.0  0.54236  0.70924  0.28941  1.0000
  S   S114      1.0  0.57436  0.66324  0.28953  1.0000
  S   S115      1.0  0.48758  0.78676  0.29018  1.0000
  S   S116      1.0  0.52980  0.71983  0.33242  1.0000
  C   C394      1.0  0.40810  0.68723  0.27283  1.0000
  C   C395      1.0  0.38334  0.68203  0.28121  1.0000
  C   C396      1.0  0.35538  0.67145  0.25732  1.0000
  H   H475      1.0  0.48374  0.54404  0.46617  1.0000
  C   C397      1.0  0.37672  0.67081  0.21641  1.0000
  C   C398      1.0  0.40461  0.68157  0.24024  1.0000
  H   H476      1.0  0.38574  0.68628  0.30635  1.0000
  C   C399      1.0  0.58950  0.56209  0.05538  1.0000
  H   H477      1.0  0.37436  0.66617  0.19133  1.0000
  H   H478      1.0  0.42345  0.68505  0.23342  1.0000
  C   C400      1.0  0.64692  0.84054  0.50840  1.0000
  H   H479      1.0  0.35278  0.92178  0.19218  1.0000
  C   C401      1.0  0.63353  0.64602  0.30876  1.0000
  C   C402      1.0  0.61242  0.66690  0.31574  1.0000
  C   C403      1.0  0.62186  0.68941  0.34395  1.0000
  C   C404      1.0  0.52451  0.97246  0.30848  1.0000
  C   C405      1.0  0.64708  0.80894  0.35134  1.0000
  H   H480      1.0  0.62640  0.62836  0.28708  1.0000
  H   H481      1.0  0.60576  0.70487  0.35002  1.0000
  N   N28       1.0  0.59660  0.54177  0.11230  1.0000
  H   H482      1.0  0.39858  0.80058  0.04421  1.0000
  H   H483      1.0  0.57161  0.54201  0.04506  1.0000
  H   H484      1.0  0.40071  0.89873  0.47032  1.0000
  C   C406      1.0  0.36171  0.99100  0.04864  1.0000
  C   C407      1.0  0.57341  0.86232  0.35294  1.0000
  C   C408      1.0  0.57354  0.86577  0.32157  1.0000
  C   C409      1.0  0.58618  0.89754  0.31331  1.0000
  C   C410      1.0  0.59831  0.92648  0.33617  1.0000
  C   C411      1.0  0.59797  0.92345  0.36754  1.0000
  C   C412      1.0  0.58568  0.89128  0.37596  1.0000
  H   H485      1.0  0.56412  0.84383  0.30368  1.0000
  H   H486      1.0  0.58630  0.89978  0.28896  1.0000
  H   H487      1.0  0.60733  0.94565  0.38538  1.0000
  H   H488      1.0  0.58548  0.88910  0.40022  1.0000
  C   C413      1.0  0.49551  0.93033  0.21325  1.0000
  C   C414      1.0  0.47073  0.91559  0.18750  1.0000
  C   C415      1.0  0.46582  0.87659  0.18431  1.0000
  C   C416      1.0  0.48522  0.85230  0.20735  1.0000
  C   C417      1.0  0.50938  0.86716  0.23369  1.0000
  C   C418      1.0  0.51472  0.90603  0.23639  1.0000
  H   H489      1.0  0.45570  0.93410  0.16961  1.0000
  H   H490      1.0  0.44692  0.86525  0.16403  1.0000
  H   H491      1.0  0.52440  0.84857  0.25148  1.0000
  H   H492      1.0  0.53389  0.91724  0.25634  1.0000
  C   C419      1.0  0.51854  0.56821  0.35440  1.0000
  H   H493      1.0  0.65900  0.70745  0.38714  1.0000
  H   H494      1.0  0.59655  0.99363  0.20463  1.0000
  H   H495      1.0  0.40688  0.79058  0.18738  1.0000
  H   H496      1.0  0.52241  0.63868  0.30449  1.0000
  H   H497      1.0  0.66151  0.82059  0.33933  1.0000
  C   C420      1.0  0.54318  0.52403  0.41177  1.0000
  H   H498      1.0  0.42915  0.85403  0.45346  1.0000
  S   S117      1.0  0.41925  0.00232  0.15803  1.0000
  C   C421      1.0  0.36666  0.86283  0.03042  1.0000
  H   H499      1.0  0.48559  0.63412  0.34407  1.0000
  H   H500      1.0  0.44251  0.84546  0.24555  1.0000
  N   N29       1.0  0.66200  0.81048  0.38769  1.0000
  C   C422      1.0  0.65209  0.69119  0.36476  1.0000
  H   H501      1.0  0.59361  0.98836  0.24404  1.0000
  H   H502      1.0  0.44706  0.91279  0.23943  1.0000
  C   C423      1.0  0.37215  0.90458  0.20378  1.0000
  H   H503      1.0  0.44470  0.82374  0.07568  1.0000
  C   C424      1.0  0.63030  0.84904  0.47558  1.0000
  H   H504      1.0  0.48860  0.58985  0.27198  1.0000
  C   C425      1.0  0.66395  0.64869  0.32914  1.0000
  H   H505      1.0  0.35233  0.79154  0.18282  1.0000
  C   C426      1.0  0.67340  0.67168  0.35710  1.0000
  H   H506      1.0  0.55047  0.60591  0.32666  1.0000
  C   C427      1.0  0.36898  0.86587  0.20695  1.0000
  C   C428      1.0  0.50941  0.52104  0.02028  1.0000
  H   H507      1.0  0.40746  0.75070  0.21237  1.0000
  C   C429      1.0  0.60682  0.82572  0.45677  1.0000
  H   H508      1.0  0.59352  0.83266  0.43158  1.0000
  H   H509      1.0  0.36040  0.75533  0.21284  1.0000
  H   H510      1.0  0.44231  0.96116  0.09166  1.0000
  C   C430      1.0  0.41992  0.91392  0.06133  1.0000
  H   H511      1.0  0.47088  0.00518  0.27082  1.0000
  C   C431      1.0  0.36117  0.78634  0.20968  1.0000
  H   H512      1.0  0.36709  0.85010  0.05352  1.0000
  H   H513      1.0  0.42504  0.80234  0.27571  1.0000
  H   H514      1.0  0.34574  0.79811  0.22015  1.0000
  H   H515      1.0  0.42676  0.51742  0.40711  1.0000
  C   C432      1.0  0.60503  0.56562  0.08981  1.0000
  C   C433      1.0  0.41960  0.87479  0.05526  1.0000
  H   H516      1.0  0.64132  0.59792  0.12669  1.0000
  C   C434      1.0  0.66441  0.88126  0.38098  1.0000
  H   H517      1.0  0.62581  0.82439  0.34257  1.0000
  H   H518      1.0  0.48338  0.85462  0.12160  1.0000
  H   H519      1.0  0.52089  0.51536  0.32984  1.0000
  C   C435      1.0  0.44440  0.82363  0.49866  1.0000
  H   H520      1.0  0.66837  0.94128  0.37871  1.0000
  N   N30       1.0  0.39528  0.85759  0.02681  1.0000
  C   C436      1.0  0.61931  0.61107  0.04517  1.0000
  H   H521      1.0  0.63371  0.76429  0.38971  1.0000
  C   C437      1.0  0.59995  0.79377  0.47054  1.0000
  C   C438      1.0  0.41221  0.87740  0.48772  1.0000
  H   H522      1.0  0.62170  0.80962  0.39625  1.0000
  H   H523      1.0  0.49605  0.53453  0.03162  1.0000
  C   C439      1.0  0.63514  0.61533  0.07884  1.0000
  C   C440      1.0  0.39879  0.81676  0.02284  1.0000
  H   H524      1.0  0.51843  0.95504  0.32582  1.0000
  H   H525      1.0  0.48327  0.92320  0.12957  1.0000
  H   H526      1.0  0.63921  0.54162  0.15270  1.0000
  C   C441      1.0  0.66947  0.84904  0.40117  1.0000
  C   C442      1.0  0.41097  0.78158  0.21283  1.0000
  C   C443      1.0  0.46578  0.87118  0.10432  1.0000
  C   C444      1.0  0.46568  0.90981  0.10904  1.0000
  H   H527      1.0  0.34662  0.85473  0.19745  1.0000
  H   H528      1.0  0.36032  0.91404  0.48369  1.0000
  C   C445      1.0  0.42234  0.86103  0.23379  1.0000
  H   H529      1.0  0.61397  0.57706  0.15550  1.0000
  C   C446      1.0  0.60909  0.99488  0.23166  1.0000
  C   C447      1.0  0.44267  0.93111  0.08771  1.0000
  C   C448      1.0  0.62821  0.59305  0.10100  1.0000
  C   C449      1.0  0.59654  0.58445  0.03348  1.0000
  H   H530      1.0  0.65225  0.78778  0.42797  1.0000
  H   H531      1.0  0.46334  0.59309  0.32641  1.0000
  C   C450      1.0  0.61557  0.54783  0.14751  1.0000
  C   C451      1.0  0.42860  0.85187  0.47767  1.0000
  N   N31       1.0  0.39175  0.80187  0.22625  1.0000
  C   C452      1.0  0.61224  0.53903  0.33261  1.0000
  H   H532      1.0  0.53688  0.63826  0.34836  1.0000
  H   H533      1.0  0.40247  0.93161  0.04569  1.0000
  N   N32       1.0  0.50689  0.59227  0.32500  1.0000
  H   H534      1.0  0.51754  0.55760  0.29098  1.0000
  H   H535      1.0  0.46961  0.62861  0.30105  1.0000
  C   C453      1.0  0.40019  0.92144  0.21547  1.0000
  C   C454      1.0  0.42522  0.89970  0.23053  1.0000
  C   C455      1.0  0.52502  0.58357  0.38615  1.0000
  H   H536      1.0  0.65286  0.63612  0.08778  1.0000
  H   H537      1.0  0.64140  0.77957  0.34206  1.0000
  C   C456      1.0  0.39413  0.84281  0.22196  1.0000
  H   H538      1.0  0.55813  0.53176  0.12397  1.0000
  C   C457      1.0  0.53010  0.61995  0.32623  1.0000
  C   C458      1.0  0.52500  0.52967  0.35273  1.0000
  C   C459      1.0  0.44318  0.85372  0.07782  1.0000
  C   C460      1.0  0.49815  0.57111  0.29358  1.0000
  H   H539      1.0  0.40247  0.95144  0.21280  1.0000
  C   C461      1.0  0.48033  0.61271  0.32424  1.0000
  H   H540      1.0  0.54140  0.57372  0.43836  1.0000
  C   C462      1.0  0.56560  0.54965  0.10793  1.0000
  H   H541      1.0  0.40018  0.76317  0.26616  1.0000
  H   H542      1.0  0.63523  0.87431  0.46493  1.0000
  H   H543      1.0  0.57350  0.00403  0.34834  1.0000
  H   H544      1.0  0.65394  0.87975  0.35456  1.0000
  H   H545      1.0  0.56295  0.57956  0.11334  1.0000
  C   C463      1.0  0.64171  0.79227  0.40111  1.0000
  H   H546      1.0  0.43490  0.78617  0.22768  1.0000
  C   C464      1.0  0.53690  0.56161  0.41432  1.0000
  H   H547      1.0  0.36126  0.89292  0.03096  1.0000
  H   H548      1.0  0.41961  0.81092  0.01915  1.0000
  H   H549      1.0  0.58136  0.77603  0.45575  1.0000
  H   H550      1.0  0.48106  0.54921  0.29140  1.0000
  H   H551      1.0  0.54965  0.54378  0.08253  1.0000
  C   C465      1.0  0.64285  0.54219  0.35038  1.0000
  H   H552      1.0  0.60874  0.52912  0.16357  1.0000
  H   H553      1.0  0.54549  0.96145  0.30802  1.0000
  C   C466      1.0  0.50354  0.52979  0.48181  1.0000
  C   C467      1.0  0.38401  0.00749  0.04052  1.0000
  H   H554      1.0  0.60108  0.55926  0.31368  1.0000
  H   H555      1.0  0.34779  0.85009  0.00949  1.0000
  H   H556      1.0  0.36112  0.99639  0.07246  1.0000
  H   H557      1.0  0.62515  0.97142  0.23833  1.0000
  H   H558      1.0  0.50788  0.96709  0.28335  1.0000
  C   C468      1.0  0.38442  0.00033  0.00941  1.0000
  H   H559      1.0  0.66352  0.97695  0.47732  1.0000
  C   C469      1.0  0.37644  0.92861  0.50578  1.0000
  H   H560      1.0  0.45711  0.80391  0.49083  1.0000
  C   C470      1.0  0.65826  0.51621  0.37531  1.0000
  C   C471      1.0  0.35192  0.66560  0.22473  1.0000
  H   H561      1.0  0.65439  0.56484  0.34392  1.0000
  H   H562      1.0  0.38783  0.80851  0.27278  1.0000
  C   C472      1.0  0.40162  0.79368  0.26170  1.0000
  H   H563      1.0  0.62463  0.62842  0.02804  1.0000
  H   H564      1.0  0.54917  0.00168  0.36974  1.0000
  H   H565      1.0  0.39083  0.94768  0.49824  1.0000
  C   C473      1.0  0.61633  0.78506  0.50339  1.0000
  C   C474      1.0  0.67257  0.91711  0.39459  1.0000
  C   C475      1.0  0.59614  0.50958  0.33868  1.0000
  H   H566      1.0  0.65509  0.00856  0.28744  1.0000
  S   S118      1.0  0.44488  0.92445  0.70130  1.0000
  S   S119      1.0  0.44049  0.97888  0.63935  1.0000
  Fe  Fe60      1.0  0.44192  0.91704  0.64992  1.0000
  S   S120      1.0  0.47598  0.88235  0.64027  1.0000
  H   H567      1.0  0.40685  0.74860  0.76278  1.0000
  S   S121      1.0  0.62688  0.98211  0.91684  1.0000
  S   S122      1.0  0.61882  0.94291  0.84694  1.0000
  H   H568      1.0  0.44136  0.63078  0.74336  1.0000
  Fe  Fe61      1.0  0.61721  0.92412  0.89429  1.0000
  S   S123      1.0  0.57562  0.88996  0.88701  1.0000
  Fe  Fe62      1.0  0.55694  0.69153  0.60487  1.0000
  S   S124      1.0  0.51169  0.68058  0.56597  1.0000
  S   S125      1.0  0.58233  0.74321  0.60073  1.0000
  Fe  Fe63      1.0  0.54875  0.63194  0.64958  1.0000
  S   S126      1.0  0.50281  0.61616  0.61410  1.0000
  S   S127      1.0  0.57196  0.61249  0.70206  1.0000
  Fe  Fe64      1.0  0.52217  0.61900  0.57512  1.0000
  S   S128      1.0  0.50468  0.58193  0.52848  1.0000
  Fe  Fe65      1.0  0.49624  0.67841  0.60739  1.0000
  S   S129      1.0  0.45594  0.70844  0.60852  1.0000
  S   S130      1.0  0.56904  0.63055  0.61146  1.0000
  S   S131      1.0  0.54065  0.69354  0.64549  1.0000
  Fe  Fe66      1.0  0.48126  0.66120  0.88382  1.0000
  S   S132      1.0  0.51957  0.65730  0.93313  1.0000
  S   S133      1.0  0.43455  0.68338  0.86262  1.0000
  Fe  Fe67      1.0  0.51406  0.62395  0.84624  1.0000
  S   S134      1.0  0.55520  0.61649  0.89164  1.0000
  S   S135      1.0  0.49773  0.60933  0.79206  1.0000
  Fe  Fe68      1.0  0.52514  0.59841  0.91728  1.0000
  S   S136      1.0  0.53877  0.54377  0.94676  1.0000
  Fe  Fe69      1.0  0.54745  0.67534  0.90507  1.0000
  S   S137      1.0  0.58640  0.71642  0.92222  1.0000
  S   S138      1.0  0.48470  0.60130  0.87035  1.0000
  S   S139      1.0  0.50901  0.68391  0.85786  1.0000
  C   C476      1.0  0.44793  0.68124  0.78906  1.0000
  C   C477      1.0  0.55128  0.61076  0.72699  1.0000
  C   C478      1.0  0.52043  0.61369  0.71338  1.0000
  C   C479      1.0  0.50437  0.61249  0.73369  1.0000
  C   C480      1.0  0.51905  0.60932  0.76782  1.0000
  C   C481      1.0  0.54993  0.60640  0.78153  1.0000
  C   C482      1.0  0.56594  0.60668  0.76107  1.0000
  H   H569      1.0  0.50892  0.61641  0.68713  1.0000
  H   H570      1.0  0.48049  0.61428  0.72283  1.0000
  H   H571      1.0  0.56141  0.60344  0.80777  1.0000
  H   H572      1.0  0.58978  0.60377  0.77164  1.0000
  H   H573      1.0  0.42261  0.71773  0.66142  1.0000
  Fe  Fe70      1.0  0.43895  0.98551  0.68903  1.0000
  H   H574      1.0  0.55698  0.53434  0.55875  1.0000
  C   C483      1.0  0.57875  0.84187  0.89737  1.0000
  C   C484      1.0  0.55299  0.81955  0.88932  1.0000
  C   C485      1.0  0.55490  0.78117  0.89718  1.0000
  C   C486      1.0  0.58264  0.76485  0.91322  1.0000
  C   C487      1.0  0.60831  0.78723  0.92135  1.0000
  C   C488      1.0  0.60642  0.82551  0.91334  1.0000
  H   H575      1.0  0.53148  0.83188  0.87690  1.0000
  H   H576      1.0  0.53496  0.76422  0.89089  1.0000
  H   H577      1.0  0.39619  0.65122  0.78878  1.0000
  H   H578      1.0  0.62638  0.84243  0.92005  1.0000
  C   C489      1.0  0.46933  0.83435  0.63047  1.0000
  C   C490      1.0  0.44279  0.81660  0.62771  1.0000
  C   C491      1.0  0.43832  0.77818  0.61967  1.0000
  C   C492      1.0  0.46057  0.75725  0.61508  1.0000
  C   C493      1.0  0.48686  0.77521  0.61743  1.0000
  C   C494      1.0  0.49118  0.81362  0.62503  1.0000
  H   H579      1.0  0.42573  0.83244  0.63164  1.0000
  H   H580      1.0  0.41774  0.76453  0.61732  1.0000
  H   H581      1.0  0.50391  0.75955  0.61330  1.0000
  H   H582      1.0  0.51158  0.82728  0.62667  1.0000
  C   C495      1.0  0.63764  0.71922  0.64165  1.0000
  C   C496      1.0  0.61894  0.74965  0.62922  1.0000
  C   C497      1.0  0.63042  0.78622  0.63676  1.0000
  C   C498      1.0  0.66072  0.79241  0.65530  1.0000
  H   H583      1.0  0.62894  0.69089  0.63590  1.0000
  H   H584      1.0  0.61595  0.80984  0.62751  1.0000
  H   H585      1.0  0.63176  0.83666  0.80420  1.0000
  H   H586      1.0  0.38846  0.90619  0.99548  1.0000
  H   H587      1.0  0.40852  0.78193  0.67094  1.0000
  C   C499      1.0  0.40342  0.77084  0.91730  1.0000
  C   C500      1.0  0.43210  0.75640  0.93192  1.0000
  C   C501      1.0  0.44196  0.72934  0.91546  1.0000
  C   C502      1.0  0.42296  0.71632  0.88453  1.0000
  C   C503      1.0  0.39420  0.73050  0.87008  1.0000
  C   C504      1.0  0.38448  0.75785  0.88636  1.0000
  H   H588      1.0  0.44682  0.76635  0.95590  1.0000
  H   H589      1.0  0.46416  0.71845  0.92672  1.0000
  H   H590      1.0  0.37938  0.72031  0.84623  1.0000
  H   H591      1.0  0.42252  0.97943  0.79555  1.0000
  H   H592      1.0  0.60944  0.69032  0.73014  1.0000
  H   H593      1.0  0.66598  0.82896  0.60460  1.0000
  C   C505      1.0  0.36981  0.93212  0.75026  1.0000
  C   C506      1.0  0.66810  0.72547  0.65979  1.0000
  H   H594      1.0  0.36345  0.97160  0.96280  1.0000
  C   C507      1.0  0.52927  0.96482  0.81437  1.0000
  C   C508      1.0  0.44402  0.82085  0.52987  1.0000
  C   C509      1.0  0.63372  0.76009  0.80521  1.0000
  S   S140      1.0  0.66470  0.90632  0.91449  1.0000
  C   C510      1.0  0.57643  0.95350  0.71343  1.0000
  C   C511      1.0  0.41891  0.72406  0.68358  1.0000
  S   S141      1.0  0.39227  0.80611  0.93766  1.0000
  H   H595      1.0  0.39539  0.70028  0.78641  1.0000
  C   C512      1.0  0.36288  0.97679  0.98665  1.0000
  C   C513      1.0  0.36216  0.94267  0.77665  1.0000
  C   C514      1.0  0.42177  0.69583  0.70649  1.0000
  H   H596      1.0  0.42250  0.61381  0.76738  1.0000
  H   H597      1.0  0.66046  0.93272  0.51922  1.0000
  H   H598      1.0  0.42799  0.90517  0.58016  1.0000
  H   H599      1.0  0.36744  0.97070  0.78683  1.0000
  N   N33       1.0  0.51874  0.74852  0.72003  1.0000
  C   C515      1.0  0.54137  0.76475  0.70911  1.0000
  C   C516      1.0  0.50779  0.71277  0.70173  1.0000
  C   C517      1.0  0.49318  0.77425  0.71071  1.0000
  C   C518      1.0  0.53183  0.74373  0.75606  1.0000
  C   C519      1.0  0.53720  0.70793  0.77105  1.0000
  C   C520      1.0  0.53977  0.77546  0.77734  1.0000
  H   H600      1.0  0.63189  0.99896  0.79717  1.0000
  C   C521      1.0  0.55098  0.77142  0.81145  1.0000
  H   H601      1.0  0.56078  0.74600  0.71535  1.0000
  H   H602      1.0  0.53236  0.76866  0.68202  1.0000
  H   H603      1.0  0.54963  0.79260  0.72048  1.0000
  H   H604      1.0  0.52620  0.69304  0.70507  1.0000
  H   H605      1.0  0.49700  0.71730  0.67483  1.0000
  H   H606      1.0  0.49106  0.69857  0.70922  1.0000
  H   H607      1.0  0.49991  0.80372  0.71846  1.0000
  H   H608      1.0  0.48108  0.77539  0.68369  1.0000
  H   H609      1.0  0.47706  0.76499  0.72139  1.0000
  H   H610      1.0  0.65391  0.74054  0.55545  1.0000
  H   H611      1.0  0.53714  0.80360  0.76774  1.0000
  H   H612      1.0  0.53280  0.93045  0.68514  1.0000
  H   H613      1.0  0.39944  0.86252  0.80218  1.0000
  H   H614      1.0  0.50319  0.56526  0.98471  1.0000
  H   H615      1.0  0.63219  0.75180  0.72696  1.0000
  H   H616      1.0  0.46881  0.98756  0.78791  1.0000
  H   H617      1.0  0.42793  0.66856  0.70077  1.0000
  C   C522      1.0  0.37321  0.88042  0.54186  1.0000
  H   H618      1.0  0.35824  0.86191  0.52185  1.0000
  C   C523      1.0  0.41494  0.92334  0.55931  1.0000
  C   C524      1.0  0.54548  0.95166  0.70288  1.0000
  H   H619      1.0  0.58643  0.93294  0.70311  1.0000
  C   C525      1.0  0.39367  0.87596  0.99614  1.0000
  H   H620      1.0  0.53411  0.53292  0.87905  1.0000
  H   H621      1.0  0.46736  0.68159  0.78185  1.0000
  H   H622      1.0  0.38045  0.80500  0.00076  1.0000
  C   C526      1.0  0.51904  0.54305  0.51411  1.0000
  C   C527      1.0  0.62751  0.82201  0.82413  1.0000
  C   C528      1.0  0.53063  0.97737  0.71459  1.0000
  Fe  Fe71      1.0  0.35017  0.83656  0.90841  1.0000
  Fe  Fe72      1.0  0.66695  0.92902  0.86802  1.0000
  N   N34       1.0  0.42675  0.85338  0.85305  1.0000
  C   C529      1.0  0.42499  0.81225  0.84740  1.0000
  C   C530      1.0  0.40264  0.86445  0.86362  1.0000
  C   C531      1.0  0.42113  0.87155  0.82106  1.0000
  C   C532      1.0  0.45594  0.86340  0.87885  1.0000
  C   C533      1.0  0.46454  0.84815  0.91079  1.0000
  C   C534      1.0  0.47695  0.88711  0.87302  1.0000
  C   C535      1.0  0.49273  0.85506  0.93495  1.0000
  C   C536      1.0  0.50501  0.89400  0.89748  1.0000
  C   C537      1.0  0.51302  0.87771  0.92821  1.0000
  H   H623      1.0  0.42772  0.79643  0.86991  1.0000
  H   H624      1.0  0.40314  0.80330  0.82855  1.0000
  H   H625      1.0  0.44273  0.80269  0.83941  1.0000
  H   H626      1.0  0.40327  0.84904  0.88568  1.0000
  H   H627      1.0  0.38029  0.85865  0.84423  1.0000
  H   H628      1.0  0.40377  0.89501  0.86933  1.0000
  H   H629      1.0  0.43800  0.86392  0.81110  1.0000
  H   H630      1.0  0.66438  0.86010  0.52232  1.0000
  H   H631      1.0  0.42031  0.90261  0.82291  1.0000
  H   H632      1.0  0.44967  0.83016  0.91718  1.0000
  H   H633      1.0  0.47243  0.90045  0.84974  1.0000
  H   H634      1.0  0.49901  0.84231  0.95889  1.0000
  H   H635      1.0  0.52102  0.91139  0.89240  1.0000
  H   H636      1.0  0.53513  0.88238  0.94672  1.0000
  H   H637      1.0  0.51172  0.96429  0.78919  1.0000
  Fe  Fe73      1.0  0.39112  0.97140  0.62171  1.0000
  H   H638      1.0  0.62779  0.82916  0.57621  1.0000
  H   H639      1.0  0.55628  0.79593  0.82737  1.0000
  H   H640      1.0  0.40295  0.94339  0.56894  1.0000
  S   S142      1.0  0.39257  0.90867  0.62862  1.0000
  H   H641      1.0  0.63552  0.92824  0.73758  1.0000
  Fe  Fe74      1.0  0.39525  0.92073  0.67988  1.0000
  H   H642      1.0  0.62982  0.77487  0.93401  1.0000
  H   H643      1.0  0.61605  0.76697  0.85815  1.0000
  H   H644      1.0  0.43113  0.93966  0.55236  1.0000
  C   C538      1.0  0.64001  0.97914  0.78326  1.0000
  C   C539      1.0  0.44318  0.98142  0.81688  1.0000
  N   N35       1.0  0.64401  0.78646  0.83350  1.0000
  H   H645      1.0  0.50663  0.97623  0.70598  1.0000
  H   H646      1.0  0.38477  0.86256  0.56352  1.0000
  C   C540      1.0  0.41111  0.76020  0.68892  1.0000
  S   S143      1.0  0.35771  0.99921  0.57626  1.0000
  H   H647      1.0  0.45193  0.65909  0.80800  1.0000
  H   H648      1.0  0.37325  0.67289  0.75072  1.0000
  S   S144      1.0  0.35675  0.89875  0.90928  1.0000
  C   C541      1.0  0.40673  0.76848  0.71750  1.0000
  C   C542      1.0  0.61148  0.70019  0.77900  1.0000
  C   C543      1.0  0.46993  0.98609  0.81277  1.0000
  C   C544      1.0  0.64046  0.80827  0.52336  1.0000
  H   H649      1.0  0.35910  0.89965  0.54938  1.0000
  H   H650      1.0  0.64823  0.79233  0.88381  1.0000
  H   H651      1.0  0.60158  0.67316  0.78016  1.0000
  H   H652      1.0  0.38104  0.95188  0.74034  1.0000
  C   C545      1.0  0.63985  0.77198  0.86294  1.0000
  C   C546      1.0  0.53107  0.52197  0.97899  1.0000
  N   N36       1.0  0.52528  0.99570  0.83482  1.0000
  H   H653      1.0  0.66394  0.96128  0.74070  1.0000
  H   H654      1.0  0.60323  0.81701  0.81574  1.0000
  C   C547      1.0  0.41665  0.70305  0.73553  1.0000
  C   C548      1.0  0.55516  0.73580  0.82520  1.0000
  C   C549      1.0  0.63935  0.95768  0.73172  1.0000
  H   H655      1.0  0.61646  0.71508  0.82714  1.0000
  H   H656      1.0  0.55069  0.96775  0.81117  1.0000
  H   H657      1.0  0.55527  0.97071  0.87962  1.0000
  C   C550      1.0  0.46943  0.98351  0.87556  1.0000
  H   H658      1.0  0.46911  0.98270  0.89993  1.0000
  H   H659      1.0  0.37589  0.86317  0.97431  1.0000
  N   N37       1.0  0.39414  0.90150  0.53106  1.0000
  N   N38       1.0  0.42000  0.67393  0.76051  1.0000
  H   H660      1.0  0.65214  0.74551  0.87185  1.0000
  H   H661      1.0  0.62684  0.76294  0.56791  1.0000
  H   H662      1.0  0.40071  0.79678  0.72151  1.0000
  H   H663      1.0  0.56370  0.73243  0.85153  1.0000
  H   H664      1.0  0.53289  0.68229  0.75702  1.0000
  C   C551      1.0  0.54844  0.70420  0.80509  1.0000
  C   C552      1.0  0.40982  0.74053  0.74071  1.0000
  H   H665      1.0  0.40982  0.00807  0.55904  1.0000
  C   C553      1.0  0.39504  0.67477  0.77178  1.0000
  H   H666      1.0  0.66444  0.98337  0.79279  1.0000
  C   C554      1.0  0.65118  0.83080  0.57827  1.0000
  C   C555      1.0  0.61584  0.70986  0.75071  1.0000
  H   H667      1.0  0.40116  0.62845  0.72612  1.0000
  N   N39       1.0  0.62609  0.98503  0.74738  1.0000
  H   H668      1.0  0.44771  0.70843  0.80133  1.0000
  C   C556      1.0  0.41112  0.87509  0.51935  1.0000
  S   S145      1.0  0.38932  0.98271  0.67122  1.0000
  H   H669      1.0  0.36226  0.76856  0.87509  1.0000
  C   C557      1.0  0.62859  0.74450  0.74899  1.0000
  H   H670      1.0  0.55180  0.67653  0.81599  1.0000
  H   H671      1.0  0.63565  0.95019  0.78976  1.0000
  C   C558      1.0  0.63726  0.76940  0.77569  1.0000
  H   H672      1.0  0.52927  0.93707  0.82590  1.0000
  H   H673      1.0  0.63419  0.84228  0.84510  1.0000
  H   H674      1.0  0.64725  0.79582  0.77322  1.0000
  C   C559      1.0  0.42112  0.63522  0.74852  1.0000
  S   S146      1.0  0.37296  0.88131  0.70417  1.0000
  C   C560      1.0  0.57749  0.00684  0.74794  1.0000
  C   C561      1.0  0.62024  0.72472  0.80595  1.0000
  H   H675      1.0  0.52868  0.54298  0.82175  1.0000
  C   C562      1.0  0.36267  0.89618  0.73654  1.0000
  H   H676      1.0  0.51603  0.99099  0.89394  1.0000
  H   H677      1.0  0.65471  0.85936  0.57044  1.0000
  C   C563      1.0  0.42775  0.84620  0.54014  1.0000
  H   H678      1.0  0.45651  0.79900  0.54632  1.0000
  H   H679      1.0  0.42851  0.84316  0.56469  1.0000
  H   H680      1.0  0.36320  0.94717  0.51510  1.0000
  C   C564      1.0  0.59341  0.98147  0.73621  1.0000
  H   H681      1.0  0.63053  0.96108  0.70461  1.0000
  C   C565      1.0  0.44290  0.98018  0.84821  1.0000
  C   C566      1.0  0.52759  0.51477  0.83028  1.0000
  H   H682      1.0  0.42200  0.97700  0.85124  1.0000
  C   C567      1.0  0.34758  0.91737  0.78987  1.0000
  C   C568      1.0  0.51342  0.53861  0.99363  1.0000
  Fe  Fe75      1.0  0.63268  0.99906  0.87083  1.0000
  N   N40       1.0  0.65750  0.80097  0.55859  1.0000
  C   C569      1.0  0.54477  0.52456  0.53391  1.0000
  C   C570      1.0  0.34772  0.87097  0.74946  1.0000
  C   C571      1.0  0.49637  0.98830  0.87172  1.0000
  C   C572      1.0  0.55221  0.99732  0.86562  1.0000
  H   H683      1.0  0.57256  0.00180  0.86050  1.0000
  C   C573      1.0  0.49740  0.98978  0.84003  1.0000
  C   C574      1.0  0.65018  0.76427  0.56969  1.0000
  H   H684      1.0  0.58416  0.58109  0.00723  1.0000
  H   H685      1.0  0.66939  0.82066  0.66072  1.0000
  H   H686      1.0  0.41490  0.87325  0.99263  1.0000
  C   C575      1.0  0.54660  0.00484  0.73711  1.0000
  H   H687      1.0  0.34189  0.84320  0.73884  1.0000
  H   H688      1.0  0.66416  0.75910  0.59595  1.0000
  Fe  Fe76      1.0  0.67486  0.96595  0.93384  1.0000
  H   H689      1.0  0.60931  0.76038  0.51269  1.0000
  C   C576      1.0  0.53068  0.50920  0.86256  1.0000
  Fe  Fe77      1.0  0.79367  0.15885  0.17792  1.0000
  S   S147      1.0  0.77383  0.10044  0.16494  1.0000
  S   S148      1.0  0.83523  0.18605  0.17459  1.0000
  Fe  Fe78      1.0  0.73566  0.18976  0.17949  1.0000
  S   S149      1.0  0.71134  0.13484  0.16593  1.0000
  H   H690      1.0  0.00026  0.04267  0.45517  1.0000
  Fe  Fe79      1.0  0.75351  0.11142  0.20237  1.0000
  S   S150      1.0  0.74917  0.06923  0.23862  1.0000
  Fe  Fe80      1.0  0.73292  0.12816  0.12955  1.0000
  S   S151      1.0  0.70571  0.11575  0.07547  1.0000
  S   S152      1.0  0.77686  0.16712  0.21818  1.0000
  S   S153      1.0  0.75354  0.18581  0.14021  1.0000
  C   C577      1.0  0.72644  0.04679  0.06423  1.0000
  C   C578      1.0  0.94111  0.29284  0.03379  1.0000
  H   H691      1.0  0.00190  0.47131  0.17498  1.0000
  S   S154      1.0  0.97533  0.16665  0.25107  1.0000
  C   C579      1.0  0.68554  0.07320  0.01908  1.0000
  N   N41       1.0  0.80671  0.11723  0.08436  1.0000
  C   C580      1.0  0.81381  0.09286  0.11348  1.0000
  H   H692      1.0  0.73513  0.03049  0.28800  1.0000
  H   H693      1.0  0.79385  0.07651  0.11222  1.0000
  C   C581      1.0  0.72680  0.01647  0.04381  1.0000
  C   C582      1.0  0.68425  0.25892  0.16351  1.0000
  S   S155      1.0  0.95461  0.46198  0.22291  1.0000
  C   C583      1.0  0.99018  0.23303  0.32757  1.0000
  H   H694      1.0  0.91588  0.24847  0.25762  1.0000
  H   H695      1.0  0.83009  0.15409  0.06399  1.0000
  H   H696      1.0  0.74976  0.43478  0.14708  1.0000
  C   C584      1.0  0.82595  0.46926  0.05316  1.0000
  H   H697      1.0  0.97534  0.36617  0.28808  1.0000
  H   H698      1.0  0.99087  0.03205  0.09726  1.0000
  C   C585      1.0  0.96669  0.38081  0.16485  1.0000
  C   C586      1.0  0.95629  0.41304  0.17517  1.0000
  C   C587      1.0  0.96705  0.42248  0.20851  1.0000
  H   H699      1.0  0.00407  0.02607  0.24047  1.0000
  H   H700      1.0  0.77229  0.27982  0.20713  1.0000
  H   H701      1.0  0.95813  0.37323  0.13920  1.0000
  H   H702      1.0  0.93981  0.43032  0.15745  1.0000
  H   H703      1.0  0.85894  0.40427  0.03689  1.0000
  H   H704      1.0  0.76561  0.13421  0.08711  1.0000
  C   C588      1.0  0.70595  0.07551  0.05183  1.0000
  H   H705      1.0  0.98730  0.31573  0.32786  1.0000
  C   C589      1.0  0.92312  0.30281  0.24309  1.0000
  H   H706      1.0  0.82542  0.39947  0.12921  1.0000
  C   C590      1.0  0.96343  0.33468  0.07998  1.0000
  H   H707      1.0  0.85180  0.11593  0.08702  1.0000
  C   C591      1.0  0.87402  0.18015  0.19680  1.0000
  C   C592      1.0  0.88558  0.15053  0.21853  1.0000
  C   C593      1.0  0.91658  0.14652  0.23460  1.0000
  C   C594      1.0  0.93641  0.17229  0.22955  1.0000
  C   C595      1.0  0.92482  0.20213  0.20811  1.0000
  C   C596      1.0  0.89387  0.20583  0.19170  1.0000
  H   H708      1.0  0.87067  0.13046  0.22269  1.0000
  H   H709      1.0  0.92525  0.12334  0.25115  1.0000
  H   H710      1.0  0.93971  0.22224  0.20396  1.0000
  H   H711      1.0  0.88527  0.22881  0.17491  1.0000
  C   C597      1.0  0.73075  0.08388  0.26401  1.0000
  C   C598      1.0  0.72673  0.05865  0.28635  1.0000
  S   S156      1.0  0.82745  0.47658  0.09333  1.0000
  C   C599      1.0  0.70175  0.10639  0.30528  1.0000
  C   C600      1.0  0.70566  0.13148  0.28281  1.0000
  C   C601      1.0  0.71997  0.12029  0.26220  1.0000
  H   H712      1.0  0.79403  0.32244  0.21624  1.0000
  C   C602      1.0  0.87849  0.38579  0.04685  1.0000
  H   H713      1.0  0.99688  0.40724  0.25712  1.0000
  H   H714      1.0  0.72308  0.14005  0.24525  1.0000
  C   C603      1.0  0.93940  0.21378  0.31147  1.0000
  N   N42       1.0  0.96006  0.24656  0.32186  1.0000
  C   C604      1.0  0.00410  0.03726  0.21771  1.0000
  H   H715      1.0  0.00367  0.07939  0.13695  1.0000
  C   C605      1.0  0.96223  0.34048  0.28203  1.0000
  C   C606      1.0  0.95232  0.27713  0.29747  1.0000
  C   C607      1.0  0.96872  0.31143  0.30479  1.0000
  C   C608      1.0  0.84355  0.49054  0.04103  1.0000
  H   H716      1.0  0.98165  0.28161  0.07498  1.0000
  C   C609      1.0  0.99816  0.36746  0.22108  1.0000
  S   S157      1.0  0.71326  0.02163  0.47439  1.0000
  S   S158      1.0  0.71688  0.24143  0.19332  1.0000
  C   C610      1.0  0.91638  0.35185  0.03582  1.0000
  C   C611      1.0  0.91770  0.31767  0.01981  1.0000
  H   H717      1.0  0.84409  0.15444  0.10816  1.0000
  H   H718      1.0  0.83146  0.07247  0.11582  1.0000
  H   H719      1.0  0.78068  0.16683  0.06613  1.0000
  H   H720      1.0  0.83216  0.05762  0.06614  1.0000
  C   C612      1.0  0.95978  0.26066  0.35336  1.0000
  H   H721      1.0  0.91903  0.42860  0.03648  1.0000
  N   N43       1.0  0.77420  0.30825  0.16483  1.0000
  C   C613      1.0  0.74508  0.29422  0.14116  1.0000
  C   C614      1.0  0.79707  0.28099  0.16513  1.0000
  C   C615      1.0  0.77370  0.30869  0.19820  1.0000
  C   C616      1.0  0.77956  0.34669  0.15558  1.0000
  C   C617      1.0  0.76033  0.37617  0.15568  1.0000
  C   C618      1.0  0.80326  0.35599  0.14571  1.0000
  C   C619      1.0  0.80733  0.39264  0.13679  1.0000
  H   H722      1.0  0.74399  0.29495  0.11557  1.0000
  H   H723      1.0  0.74063  0.26486  0.14648  1.0000
  H   H724      1.0  0.72625  0.31078  0.14196  1.0000
  H   H725      1.0  0.79742  0.27708  0.14032  1.0000
  H   H726      1.0  0.99783  0.07208  0.50517  1.0000
  H   H727      1.0  0.81956  0.28971  0.18264  1.0000
  H   H728      1.0  0.75412  0.32342  0.19909  1.0000
  H   H729      1.0  0.93807  0.27352  0.34959  1.0000
  H   H730      1.0  0.69296  0.49802  0.43904  1.0000
  H   H731      1.0  0.74164  0.37112  0.16249  1.0000
  H   H732      1.0  0.81892  0.33556  0.14458  1.0000
  H   H733      1.0  0.79663  0.16355  0.10969  1.0000
  H   H734      1.0  0.81065  0.01732  0.01763  1.0000
  C   C620      1.0  0.79397  0.09421  0.05404  1.0000
  H   H735      1.0  0.90588  0.29925  0.21883  1.0000
  H   H736      1.0  0.94118  0.38570  0.07927  1.0000
  H   H737      1.0  0.82019  0.46239  0.47895  1.0000
  H   H738      1.0  0.97741  0.28211  0.36516  1.0000
  C   C621      1.0  0.81024  0.06402  0.04861  1.0000
  H   H739      1.0  0.79145  0.44918  0.13033  1.0000
  H   H740      1.0  0.82192  0.10953  0.13675  1.0000
  C   C622      1.0  0.92923  0.27366  0.26578  1.0000
  C   C623      1.0  0.76468  0.41267  0.14678  1.0000
  C   C624      1.0  0.93952  0.33617  0.25121  1.0000
  C   C625      1.0  0.78814  0.42087  0.13736  1.0000
  C   C626      1.0  0.71228  0.06982  0.30692  1.0000
  C   C627      1.0  0.80662  0.44170  0.03291  1.0000
  C   C628      1.0  0.78644  0.14670  0.08675  1.0000
  H   H741      1.0  0.75080  0.12196  0.03160  1.0000
  C   C629      1.0  0.96376  0.30116  0.06394  1.0000
  H   H742      1.0  0.74213  0.04805  0.08939  1.0000
  H   H743      1.0  0.94015  0.19998  0.28923  1.0000
  C   C630      1.0  0.99888  0.07523  0.21093  1.0000
  C   C631      1.0  0.99899  0.02508  0.47449  1.0000
  H   H744      1.0  0.96367  0.23782  0.37162  1.0000
  C   C632      1.0  0.82113  0.48716  0.49351  1.0000
  C   C633      1.0  0.00401  0.06627  0.15904  1.0000
  C   C634      1.0  0.83436  0.13618  0.08589  1.0000
  H   H745      1.0  0.70966  0.05031  0.32431  1.0000
  H   H746      1.0  0.91615  0.22194  0.30636  1.0000
  Fe  Fe81      1.0  0.67726  0.04037  0.42618  1.0000
  C   C635      1.0  0.76530  0.10041  0.02947  1.0000
  H   H747      1.0  0.89407  0.40051  0.06913  1.0000
  H   H748      1.0  0.99492  0.11936  0.17677  1.0000
  C   C636      1.0  0.94030  0.35990  0.06604  1.0000
  H   H749      1.0  0.87110  0.35926  0.05470  1.0000
  H   H750      1.0  0.79281  0.42529  0.04210  1.0000
  H   H751      1.0  0.69818  0.48065  0.35876  1.0000
  H   H752      1.0  0.94535  0.19163  0.33055  1.0000
  H   H753      1.0  0.93499  0.35854  0.23341  1.0000
  C   C637      1.0  0.98750  0.35782  0.18786  1.0000
  H   H754      1.0  0.69799  0.15993  0.28157  1.0000
  H   H755      1.0  0.79281  0.25262  0.17305  1.0000
  C   C638      1.0  0.98828  0.39991  0.23134  1.0000
  S   S159      1.0  0.99891  0.27150  0.25339  1.0000
  H   H756      1.0  0.68327  0.22036  0.12552  1.0000
  H   H757      1.0  0.99477  0.09357  0.22833  1.0000
  S   S160      1.0  0.87347  0.49998  0.18283  1.0000
  C   C639      1.0  0.99892  0.08970  0.18174  1.0000
  N   N44       1.0  0.89160  0.37842  0.02228  1.0000
  H   H758      1.0  0.98110  0.34090  0.10356  1.0000
  H   H759      1.0  0.00737  0.25554  0.33696  1.0000
  C   C640      1.0  0.70315  0.49317  0.42083  1.0000
  C   C641      1.0  0.99766  0.04187  0.50286  1.0000
  H   H760      1.0  0.67922  0.30091  0.19604  1.0000
  H   H761      1.0  0.72761  0.49713  0.43405  1.0000
  S   S161      1.0  0.68161  0.02452  0.37872  1.0000
  H   H762      1.0  0.94153  0.26687  0.02115  1.0000
  C   C642      1.0  0.90283  0.41430  0.01434  1.0000
  S   S162      1.0  0.00022  0.31705  0.17536  1.0000
  C   C643      1.0  0.70649  0.01431  0.01098  1.0000
  H   H763      1.0  0.99117  0.22212  0.30441  1.0000
  H   H764      1.0  0.99691  0.20981  0.34562  1.0000
  S   S163      1.0  0.68283  0.12175  0.32999  1.0000
  Fe  Fe82      1.0  0.92065  0.49979  0.18760  1.0000
  H   H765      1.0  0.69993  0.46322  0.41297  1.0000
  C   C644      1.0  0.79825  0.04091  0.02085  1.0000
  H   H766      1.0  0.98105  0.50667  0.29721  1.0000
  S   S164      1.0  0.91096  0.50884  0.13446  1.0000
  H   H767      1.0  0.90371  0.00956  0.43095  1.0000
  H   H768      1.0  0.99958  0.42808  0.74418  1.0000
  Fe  Fe83      1.0  0.83403  0.33165  0.89870  1.0000
  S   S165      1.0  0.84059  0.39276  0.89272  1.0000
  S   S166      1.0  0.87760  0.30305  0.92568  1.0000
  Fe  Fe84      1.0  0.76673  0.33854  0.86985  1.0000
  S   S167      1.0  0.76880  0.40089  0.86281  1.0000
  S   S168      1.0  0.72575  0.29999  0.85209  1.0000
  Fe  Fe85      1.0  0.80389  0.38714  0.84349  1.0000
  S   S169      1.0  0.80586  0.42113  0.80115  1.0000
  Fe  Fe86      1.0  0.80574  0.40183  0.91304  1.0000
  S   S170      1.0  0.82095  0.45147  0.94822  1.0000
  S   S171      1.0  0.79995  0.32485  0.84740  1.0000
  S   S172      1.0  0.80112  0.34043  0.92198  1.0000
  Fe  Fe87      1.0  0.88408  0.47464  0.62600  1.0000
  S   S173      1.0  0.93389  0.48050  0.64515  1.0000
  H   H769      1.0  0.89163  0.06544  0.82494  1.0000
  Fe  Fe88      1.0  0.88634  0.41804  0.67912  1.0000
  S   S174      1.0  0.93582  0.42098  0.70176  1.0000
  S   S175      1.0  0.86707  0.37489  0.70349  1.0000
  Fe  Fe89      1.0  0.93159  0.48306  0.69460  1.0000
  Fe  Fe90      1.0  0.93414  0.41760  0.65060  1.0000
  S   S176      1.0  0.97150  0.38238  0.64765  1.0000
  H   H770      1.0  0.00555  0.26577  0.61605  1.0000
  S   S177      1.0  0.88439  0.41108  0.62747  1.0000
  Fe  Fe91      1.0  0.00624  0.09827  0.58665  1.0000
  S   S178      1.0  0.95227  0.22271  0.57695  1.0000
  Fe  Fe92      1.0  0.95932  0.14163  0.88022  1.0000
  S   S179      1.0  0.91176  0.15983  0.86373  1.0000
  S   S180      1.0  0.96519  0.07998  0.87442  1.0000
  Fe  Fe93      1.0  0.99298  0.09857  0.84692  1.0000
  H   H771      1.0  0.95044  0.34915  0.89467  1.0000
  H   H772      1.0  0.71396  0.42344  0.71864  1.0000
  Fe  Fe94      1.0  0.98903  0.17998  0.59130  1.0000
  C   C645      1.0  0.96549  0.33830  0.62750  1.0000
  H   H773      1.0  0.00355  0.08401  0.69762  1.0000
  C   C646      1.0  0.98639  0.28162  0.61434  1.0000
  C   C647      1.0  0.95792  0.26753  0.59599  1.0000
  C   C648      1.0  0.93327  0.28920  0.59325  1.0000
  C   C649      1.0  0.93700  0.32434  0.60911  1.0000
  C   C650      1.0  0.91426  0.24506  0.73343  1.0000
  H   H774      1.0  0.72774  0.33472  0.76686  1.0000
  H   H775      1.0  0.91116  0.27873  0.57886  1.0000
  H   H776      1.0  0.91784  0.34075  0.60680  1.0000
  C   C651      1.0  0.82223  0.45724  0.98847  1.0000
  H   H777      1.0  0.75577  0.36773  0.79002  1.0000
  C   C652      1.0  0.68141  0.38498  0.74763  1.0000
  H   H778      1.0  0.97258  0.24761  0.66366  1.0000
  H   H779      1.0  0.88451  0.43441  0.00262  1.0000
  C   C653      1.0  0.93013  0.33131  0.88380  1.0000
  H   H780      1.0  0.68702  0.25255  0.89192  1.0000
  H   H781      1.0  0.74502  0.43286  0.79245  1.0000
  C   C654      1.0  0.82372  0.40749  0.77505  1.0000
  C   C655      1.0  0.82761  0.36978  0.76918  1.0000
  C   C656      1.0  0.84053  0.36016  0.74679  1.0000
  C   C657      1.0  0.85013  0.38812  0.73063  1.0000
  C   C658      1.0  0.84660  0.42577  0.73692  1.0000
  C   C659      1.0  0.83315  0.43535  0.75875  1.0000
  H   H782      1.0  0.82000  0.34808  0.78120  1.0000
  H   H783      1.0  0.84303  0.33095  0.74186  1.0000
  H   H784      1.0  0.85383  0.44753  0.72460  1.0000
  H   H785      1.0  0.82999  0.46459  0.76298  1.0000
  C   C660      1.0  0.88671  0.26312  0.90831  1.0000
  C   C661      1.0  0.86593  0.24558  0.88051  1.0000
  C   C662      1.0  0.87396  0.21394  0.86702  1.0000
  C   C663      1.0  0.90283  0.19996  0.88103  1.0000
  C   C664      1.0  0.92374  0.21783  0.90860  1.0000
  C   C665      1.0  0.91559  0.24916  0.92239  1.0000
  H   H786      1.0  0.84357  0.25602  0.86963  1.0000
  H   H787      1.0  0.85770  0.20007  0.84575  1.0000
  H   H788      1.0  0.94600  0.20708  0.91960  1.0000
  H   H789      1.0  0.93173  0.26262  0.94397  1.0000
  H   H790      1.0  0.87440  0.31868  0.80917  1.0000
  C   C666      1.0  0.67695  0.34570  0.84102  1.0000
  H   H791      1.0  0.69256  0.36822  0.85255  1.0000
  H   H792      1.0  0.99657  0.30151  0.82890  1.0000
  S   S181      1.0  0.98385  0.15958  0.84892  1.0000
  N   N45       1.0  0.94754  0.20372  0.67540  1.0000
  H   H793      1.0  0.99953  0.01957  0.86338  1.0000
  N   N46       1.0  0.71379  0.39241  0.76068  1.0000
  C   C667      1.0  0.95427  0.16637  0.69117  1.0000
  C   C668      1.0  0.93378  0.22977  0.69140  1.0000
  C   C669      1.0  0.92498  0.26603  0.67826  1.0000
  C   C670      1.0  0.92841  0.22019  0.71985  1.0000
  C   C671      1.0  0.91078  0.29058  0.69196  1.0000
  C   C672      1.0  0.69570  0.20163  0.87316  1.0000
  C   C673      1.0  0.90515  0.27996  0.71927  1.0000
  S   S182      1.0  0.98240  0.12692  0.61516  1.0000
  H   H794      1.0  0.69960  0.14778  0.85329  1.0000
  C   C674      1.0  0.97844  0.44589  0.79613  1.0000
  H   H795      1.0  0.76024  0.02880  0.97654  1.0000
  S   S183      1.0  0.99875  0.14706  0.92850  1.0000
  H   H796      1.0  0.96819  0.42107  0.80299  1.0000
  H   H797      1.0  0.92855  0.03831  0.75444  1.0000
  C   C675      1.0  0.89220  0.04712  0.80552  1.0000
  H   H798      1.0  0.84863  0.38455  0.98292  1.0000
  H   H799      1.0  0.92862  0.27554  0.65692  1.0000
  H   H800      1.0  0.91382  0.40968  0.99683  1.0000
  H   H801      1.0  0.90363  0.31786  0.68104  1.0000
  H   H802      1.0  0.92664  0.07942  0.79849  1.0000
  H   H803      1.0  0.73149  0.08190  0.98366  1.0000
  C   C676      1.0  0.83646  0.48609  0.52789  1.0000
  H   H804      1.0  0.93461  0.19351  0.73192  1.0000
  H   H805      1.0  0.87343  0.31456  0.84912  1.0000
  H   H806      1.0  0.98639  0.20166  0.66370  1.0000
  C   C677      1.0  0.73156  0.36146  0.78102  1.0000
  H   H807      1.0  0.85464  0.50206  0.99930  1.0000
  S   S184      1.0  0.98789  0.06797  0.80008  1.0000
  H   H808      1.0  0.85787  0.33738  0.99586  1.0000
  C   C678      1.0  0.95932  0.31901  0.83978  1.0000
  H   H809      1.0  0.96844  0.44807  0.76901  1.0000
  S   S185      1.0  0.88205  0.48067  0.67601  1.0000
  H   H810      1.0  0.96866  0.30571  0.86344  1.0000
  H   H811      1.0  0.91659  0.33586  0.89871  1.0000
  C   C679      1.0  0.72377  0.39822  0.73330  1.0000
  H   H812      1.0  0.98309  0.05185  0.73431  1.0000
  C   C680      1.0  0.91197  0.05511  0.79065  1.0000
  C   C681      1.0  0.93783  0.34973  0.77700  1.0000
  H   H813      1.0  0.97142  0.47157  0.80546  1.0000
  H   H814      1.0  0.90997  0.23702  0.75484  1.0000
  C   C682      1.0  0.93172  0.33788  0.82879  1.0000
  H   H815      1.0  0.97719  0.32857  0.77302  1.0000
  H   H816      1.0  0.90023  0.36628  0.78596  1.0000
  H   H817      1.0  0.90529  0.18644  0.63885  1.0000
  H   H818      1.0  0.93643  0.30127  0.88735  1.0000
  H   H819      1.0  0.68186  0.33047  0.77108  1.0000
  H   H820      1.0  0.71291  0.42388  0.80183  1.0000
  C   C683      1.0  0.90124  0.37852  0.84740  1.0000
  C   C684      1.0  0.88827  0.31320  0.83536  1.0000
  H   H821      1.0  0.71032  0.45213  0.76732  1.0000
  C   C685      1.0  0.67828  0.22468  0.88392  1.0000
  H   H822      1.0  0.93388  0.15172  0.69061  1.0000
  H   H823      1.0  0.88958  0.38169  0.86446  1.0000
  H   H824      1.0  0.89622  0.28381  0.83694  1.0000
  Fe  Fe95      1.0  0.00623  0.08577  0.92040  1.0000
  C   C686      1.0  0.80495  0.43543  0.00073  1.0000
  H   H825      1.0  0.71785  0.37360  0.71635  1.0000
  H   H826      1.0  0.99193  0.22448  0.70191  1.0000
  H   H827      1.0  0.96455  0.14762  0.67843  1.0000
  H   H828      1.0  0.78991  0.41433  0.98526  1.0000
  C   C687      1.0  0.97579  0.22017  0.67624  1.0000
  N   N47       1.0  0.91337  0.34023  0.84867  1.0000
  H   H829      1.0  0.91913  0.40025  0.85404  1.0000
  H   H830      1.0  0.93644  0.17724  0.62796  1.0000
  C   C688      1.0  0.92139  0.35275  0.79661  1.0000
  C   C689      1.0  0.68736  0.31031  0.83739  1.0000
  H   H831      1.0  0.87497  0.36111  0.97138  1.0000
  S   S186      1.0  0.99485  0.03896  0.56473  1.0000
  H   H832      1.0  0.74831  0.40248  0.74245  1.0000
  H   H833      1.0  0.88423  0.38545  0.82291  1.0000
  C   C690      1.0  0.99012  0.31681  0.62998  1.0000
  C   C691      1.0  0.97563  0.31617  0.81996  1.0000
  C   C692      1.0  0.96485  0.33140  0.78860  1.0000
  C   C693      1.0  0.68565  0.04269  0.99882  1.0000
  C   C694      1.0  0.87312  0.01596  0.79534  1.0000
  H   H834      1.0  0.89352  0.29885  0.72930  1.0000
  H   H835      1.0  0.00738  0.44857  0.67413  1.0000
  C   C695      1.0  0.68608  0.16543  0.86175  1.0000
  H   H836      1.0  0.97046  0.16858  0.71705  1.0000
  H   H837      1.0  0.92915  0.36109  0.75236  1.0000
  C   C696      1.0  0.92725  0.19746  0.64069  1.0000
  C   C697      1.0  0.72073  0.42677  0.78140  1.0000
  H   H838      1.0  0.71659  0.21232  0.87318  1.0000
  H   H839      1.0  0.85812  0.01102  0.80758  1.0000
  H   H840      1.0  0.72645  0.35672  0.80316  1.0000
  H   H841      1.0  0.92327  0.22347  0.62596  1.0000
  H   H842      1.0  0.96722  0.03488  0.96551  1.0000
  H   H843      1.0  0.84721  0.46066  0.53961  1.0000
  C   C698      1.0  0.91291  0.03189  0.76573  1.0000
  C   C699      1.0  0.99629  0.07720  0.74258  1.0000
  H   H844      1.0  0.90090  0.30931  0.99645  1.0000
  C   C700      1.0  0.00784  0.09537  0.72177  1.0000
  C   C701      1.0  0.98135  0.01334  0.98057  1.0000
  C   C702      1.0  0.99602  0.01952  0.52808  1.0000
  C   C703      1.0  0.00198  0.09155  0.77408  1.0000
  C   C704      1.0  0.86733  0.36455  0.99188  1.0000
  C   C705      1.0  0.76998  0.04748  0.99750  1.0000
  C   C706      1.0  0.75376  0.07746  0.00159  1.0000
  C   C707      1.0  0.84140  0.48485  0.00871  1.0000
  C   C708      1.0  0.00794  0.56730  0.23649  1.0000
  Fe  Fe96      1.0  0.78520  0.57449  0.40590  1.0000
  S   S187      1.0  0.78788  0.63221  0.42683  1.0000
  H   H845      1.0  0.69576  0.57871  0.38550  1.0000
  Fe  Fe97      1.0  0.77863  0.60466  0.33829  1.0000
  S   S188      1.0  0.78029  0.66483  0.35436  1.0000
  S   S189      1.0  0.77166  0.58949  0.28595  1.0000
  Fe  Fe98      1.0  0.81753  0.64583  0.40006  1.0000
  S   S190      1.0  0.86431  0.66889  0.42362  1.0000
  Fe  Fe99      1.0  0.74998  0.64546  0.37913  1.0000
  S   S191      1.0  0.71143  0.67795  0.38283  1.0000
  S   S192      1.0  0.81753  0.58681  0.38240  1.0000
  S   S193      1.0  0.74561  0.58667  0.35970  1.0000
  H   H846      1.0  0.88625  0.91476  0.39063  1.0000
  Fe  Fe100     1.0  0.91366  0.57066  0.14628  1.0000
  S   S194      1.0  0.86538  0.57639  0.13763  1.0000
  S   S195      1.0  0.94690  0.60828  0.13631  1.0000
  Fe  Fe101     1.0  0.87894  0.56218  0.19122  1.0000
  S   S196      1.0  0.87503  0.59622  0.23296  1.0000
  H   H847      1.0  0.92354  0.83281  0.04321  1.0000
  H   H848      1.0  0.90524  0.60410  0.46522  1.0000
  S   S197      1.0  0.92708  0.56079  0.19981  1.0000
  C   C709      1.0  0.98700  0.85905  0.21811  1.0000
  Fe  Fe102     1.0  0.94462  0.84334  0.39723  1.0000
  S   S198      1.0  0.89821  0.83278  0.39473  1.0000
  S   S199      1.0  0.94830  0.89519  0.37058  1.0000
  C   C710      1.0  0.88691  0.55784  0.49888  1.0000
  S   S200      1.0  0.92934  0.78068  0.09873  1.0000
  Fe  Fe103     1.0  0.97453  0.86041  0.34934  1.0000
  N   N48       1.0  0.69094  0.51895  0.39250  1.0000
  C   C711      1.0  0.98605  0.53125  0.28463  1.0000
  H   H849      1.0  0.91367  0.64378  0.49124  1.0000
  H   H850      1.0  0.98722  0.66577  0.13442  1.0000
  H   H851      1.0  0.94726  0.72308  0.34277  1.0000
  C   C712      1.0  0.94110  0.65590  0.12511  1.0000
  C   C713      1.0  0.91309  0.67207  0.11494  1.0000
  C   C714      1.0  0.90966  0.71036  0.10674  1.0000
  C   C715      1.0  0.93418  0.73265  0.10873  1.0000
  C   C716      1.0  0.96212  0.71637  0.11878  1.0000
  C   C717      1.0  0.96552  0.67816  0.12687  1.0000
  H   H852      1.0  0.89406  0.65502  0.11308  1.0000
  H   H853      1.0  0.88793  0.72272  0.09881  1.0000
  S   S201      1.0  0.97515  0.93402  0.04444  1.0000
  H   H854      1.0  0.84599  0.60956  0.49941  1.0000
  C   C718      1.0  0.99173  0.97105  0.13220  1.0000
  C   C719      1.0  0.98084  0.86430  0.27019  1.0000
  H   H855      1.0  0.93482  0.60180  0.50529  1.0000
  H   H856      1.0  0.83359  0.87494  0.44922  1.0000
  C   C720      1.0  0.80141  0.58704  0.27268  1.0000
  C   C721      1.0  0.79542  0.57778  0.23981  1.0000
  C   C722      1.0  0.81814  0.57840  0.22772  1.0000
  C   C723      1.0  0.84699  0.58888  0.24834  1.0000
  C   C724      1.0  0.85314  0.59738  0.28141  1.0000
  C   C725      1.0  0.83052  0.59604  0.29366  1.0000
  C   C726      1.0  0.83835  0.92925  0.47201  1.0000
  H   H857      1.0  0.81310  0.57205  0.20217  1.0000
  H   H858      1.0  0.87545  0.60535  0.29754  1.0000
  H   H859      1.0  0.83545  0.60268  0.31911  1.0000
  C   C727      1.0  0.87315  0.71449  0.41513  1.0000
  C   C728      1.0  0.85138  0.74170  0.40273  1.0000
  C   C729      1.0  0.85940  0.77816  0.39702  1.0000
  C   C730      1.0  0.88904  0.78723  0.40298  1.0000
  C   C731      1.0  0.91069  0.75981  0.41478  1.0000
  C   C732      1.0  0.90278  0.72363  0.42120  1.0000
  H   H860      1.0  0.82852  0.73486  0.39819  1.0000
  H   H861      1.0  0.84260  0.79937  0.38788  1.0000
  H   H862      1.0  0.93359  0.76661  0.41943  1.0000
  H   H863      1.0  0.91970  0.70262  0.43080  1.0000
  H   H864      1.0  0.94866  0.92600  0.44001  1.0000
  C   C733      1.0  0.99857  0.98581  0.47084  1.0000
  Fe  Fe104     1.0  0.97038  0.81594  0.10647  1.0000
  C   C734      1.0  0.89364  0.94417  0.39815  1.0000
  H   H865      1.0  0.77297  0.57069  0.22347  1.0000
  H   H866      1.0  0.80236  0.70388  0.25058  1.0000
  H   H867      1.0  0.86382  0.64785  0.48803  1.0000
  C   C735      1.0  0.68294  0.97181  0.49926  1.0000
  H   H868      1.0  0.82115  0.92408  0.48132  1.0000
  C   C736      1.0  0.81740  0.68824  0.27225  1.0000
  H   H869      1.0  0.80300  0.66951  0.28016  1.0000
  C   C737      1.0  0.91219  0.61268  0.49143  1.0000
  H   H870      1.0  0.69795  0.52900  0.34788  1.0000
  C   C738      1.0  0.86743  0.90832  0.44182  1.0000
  H   H871      1.0  0.91008  0.95097  0.38717  1.0000
  H   H872      1.0  0.83130  0.66933  0.26427  1.0000
  C   C739      1.0  0.94551  0.71697  0.31804  1.0000
  H   H873      1.0  0.87417  0.96256  0.38653  1.0000
  S   S202      1.0  0.00021  0.96625  0.43444  1.0000
  C   C740      1.0  0.85360  0.96347  0.47829  1.0000
  H   H874      1.0  0.00486  0.74228  0.38255  1.0000
  H   H875      1.0  0.74302  0.99469  0.05341  1.0000
  H   H876      1.0  0.86954  0.54582  0.50650  1.0000
  S   S203      1.0  0.96192  0.84933  0.29495  1.0000
  H   H877      1.0  0.92912  0.66074  0.31771  1.0000
  H   H878      1.0  0.99324  0.95302  0.15324  1.0000
  S   S204      1.0  0.98938  0.82416  0.06821  1.0000
  C   C741      1.0  0.80834  0.55177  0.49704  1.0000
  H   H879      1.0  0.98016  0.84687  0.19382  1.0000
  C   C742      1.0  0.98928  0.96216  0.02018  1.0000
  H   H880      1.0  0.90466  0.75317  0.02983  1.0000
  Fe  Fe105     1.0  0.86365  0.51326  0.12974  1.0000
  N   N49       1.0  0.90652  0.94923  0.43432  1.0000
  C   C743      1.0  0.87584  0.97039  0.46641  1.0000
  C   C744      1.0  0.93040  0.92162  0.44877  1.0000
  C   C745      1.0  0.99685  0.96350  0.49602  1.0000
  N   N50       1.0  0.83580  0.71403  0.29904  1.0000
  C   C746      1.0  0.85431  0.69078  0.32707  1.0000
  C   C747      1.0  0.81517  0.73621  0.30907  1.0000
  C   C748      1.0  0.85512  0.73968  0.28955  1.0000
  C   C749      1.0  0.85708  0.73820  0.25829  1.0000
  C   C750      1.0  0.87253  0.76765  0.31185  1.0000
  C   C751      1.0  0.87455  0.76412  0.24977  1.0000
  C   C752      1.0  0.88983  0.79341  0.30305  1.0000
  C   C753      1.0  0.89064  0.79186  0.27197  1.0000
  H   H881      1.0  0.86785  0.70801  0.34880  1.0000
  H   H882      1.0  0.84053  0.67155  0.33539  1.0000
  H   H883      1.0  0.86983  0.67327  0.32040  1.0000
  H   H884      1.0  0.80224  0.75593  0.28941  1.0000
  H   H885      1.0  0.82687  0.75298  0.33169  1.0000
  H   H886      1.0  0.79907  0.71790  0.31448  1.0000
  H   H887      1.0  0.84516  0.71752  0.23989  1.0000
  H   H888      1.0  0.87267  0.77015  0.33625  1.0000
  H   H889      1.0  0.87543  0.76298  0.22569  1.0000
  H   H890      1.0  0.90251  0.81494  0.32039  1.0000
  H   H891      1.0  0.90395  0.81212  0.26522  1.0000
  N   N51       1.0  0.93836  0.69191  0.21959  1.0000
  C   C754      1.0  0.90755  0.67990  0.19905  1.0000
  C   C755      1.0  0.94625  0.72368  0.20268  1.0000
  C   C756      1.0  0.95857  0.66067  0.22116  1.0000
  C   C757      1.0  0.94070  0.70126  0.25316  1.0000
  C   C758      1.0  0.93292  0.67414  0.27201  1.0000
  C   C759      1.0  0.95117  0.73668  0.26836  1.0000
  H   H892      1.0  0.87214  0.88596  0.42804  1.0000
  C   C760      1.0  0.95355  0.74411  0.30034  1.0000
  H   H893      1.0  0.99421  0.95208  0.11345  1.0000
  H   H894      1.0  0.89136  0.70169  0.19870  1.0000
  H   H895      1.0  0.90469  0.67414  0.17326  1.0000
  H   H896      1.0  0.90092  0.65347  0.20773  1.0000
  H   H897      1.0  0.93142  0.74799  0.19989  1.0000
  H   H898      1.0  0.94406  0.71571  0.17747  1.0000
  H   H899      1.0  0.96969  0.73305  0.21580  1.0000
  H   H900      1.0  0.95255  0.63463  0.23103  1.0000
  H   H901      1.0  0.95796  0.65320  0.19643  1.0000
  H   H902      1.0  0.96894  0.98254  0.12159  1.0000
  H   H903      1.0  0.92505  0.64645  0.26226  1.0000
  H   H904      1.0  0.95750  0.75932  0.25614  1.0000
  H   H905      1.0  0.70629  0.80318  0.38983  1.0000
  H   H906      1.0  0.72939  0.51057  0.38084  1.0000
  S   S205      1.0  0.98584  0.85572  0.44204  1.0000
  C   C761      1.0  0.97228  0.84876  0.23860  1.0000
  C   C762      1.0  0.70470  0.50946  0.36898  1.0000
  S   S206      1.0  0.97040  0.87775  0.11575  1.0000
  H   H907      1.0  0.00076  0.59838  0.19239  1.0000
  N   N52       1.0  0.89091  0.59884  0.50551  1.0000
  H   H908      1.0  0.94006  0.92376  0.47602  1.0000
  C   C763      1.0  0.70967  0.99034  0.50397  1.0000
  H   H909      1.0  0.94160  0.76836  0.03703  1.0000
  H   H910      1.0  0.95409  0.82872  0.22984  1.0000
  S   S207      1.0  0.96761  0.80757  0.37307  1.0000
  C   C764      1.0  0.84531  0.90168  0.45390  1.0000
  C   C765      1.0  0.90256  0.82564  0.02215  1.0000
  H   H911      1.0  0.88688  0.99740  0.47245  1.0000
  C   C766      1.0  0.00420  0.89048  0.28116  1.0000
  H   H912      1.0  0.72462  0.55974  0.41988  1.0000
  H   H913      1.0  0.98185  0.66812  0.23719  1.0000
  H   H914      1.0  0.85188  0.60776  0.46177  1.0000
  C   C767      1.0  0.86193  0.61675  0.48796  1.0000
  H   H915      1.0  0.79718  0.57700  0.48544  1.0000
  C   C768      1.0  0.93523  0.68201  0.30389  1.0000
  C   C769      1.0  0.91918  0.76377  0.01745  1.0000
  C   C770      1.0  0.70025  0.55764  0.40524  1.0000
  H   H916      1.0  0.96126  0.77141  0.31128  1.0000
  C   C771      1.0  0.88328  0.94298  0.44753  1.0000
  H   H917      1.0  0.68570  0.76039  0.38526  1.0000
  H   H918      1.0  0.92245  0.89224  0.44226  1.0000
  H   H919      1.0  0.93737  0.99112  0.43067  1.0000
  H   H920      1.0  0.99246  0.54551  0.22283  1.0000
  H   H921      1.0  0.98112  0.73310  0.12005  1.0000
  H   H922      1.0  0.68007  0.63341  0.32295  1.0000
  Fe  Fe106     1.0  0.99368  0.88573  0.08090  1.0000
  Fe  Fe107     1.0  0.99094  0.90604  0.41413  1.0000
  H   H923      1.0  0.87937  0.55124  0.47221  1.0000
  H   H924      1.0  0.97102  0.52839  0.25852  1.0000
  H   H925      1.0  0.97962  0.55710  0.29428  1.0000
  H   H926      1.0  0.88744  0.81356  0.03317  1.0000
  C   C772      1.0  0.80735  0.52015  0.47790  1.0000
  H   H927      1.0  0.99697  0.93329  0.49392  1.0000
  C   C773      1.0  0.68300  0.85512  0.43562  1.0000
  S   S208      1.0  0.78850  0.52083  0.43466  1.0000
  H   H928      1.0  0.69201  0.95004  0.43874  1.0000
  H   H929      1.0  0.68875  0.56679  0.42128  1.0000
  H   H930      1.0  0.85833  0.51199  0.05629  1.0000
  H   H931      1.0  0.84817  0.98480  0.49253  1.0000
  H   H932      1.0  0.70009  0.78374  0.42406  1.0000
  H   H933      1.0  0.70115  0.89541  0.47533  1.0000
  C   C774      1.0  0.68964  0.78855  0.39721  1.0000
  C   C775      1.0  0.69087  0.89120  0.44895  1.0000
  C   C776      1.0  0.68573  0.92210  0.42842  1.0000
  H   H934      1.0  0.93217  0.99227  0.46834  1.0000
  H   H935      1.0  0.68775  0.83199  0.45251  1.0000
  C   C777      1.0  0.92038  0.98726  0.44147  1.0000
  H   H936      1.0  0.89227  0.85198  0.00974  1.0000
  Fe  Fe108     1.0  0.75279  0.90416  0.70683  1.0000
  S   S209      1.0  0.77721  0.84980  0.72050  1.0000
  S   S210      1.0  0.75046  0.94396  0.74600  1.0000
  Fe  Fe109     1.0  0.73434  0.89130  0.63267  1.0000
  S   S211      1.0  0.75692  0.83545  0.64118  1.0000
  C   C778      1.0  0.87319  0.99191  0.76969  1.0000
  Fe  Fe110     1.0  0.73750  0.82590  0.67895  1.0000
  S   S212      1.0  0.71855  0.76916  0.68387  1.0000
  Fe  Fe111     1.0  0.79495  0.86377  0.68198  1.0000
  S   S213      1.0  0.84176  0.85289  0.68413  1.0000
  S   S214      1.0  0.71206  0.87935  0.66787  1.0000
  S   S215      1.0  0.77353  0.92076  0.67099  1.0000
  H   H937      1.0  0.99421  0.96267  0.54367  1.0000
  H   H938      1.0  0.86200  0.78067  0.98210  1.0000
  Fe  Fe112     1.0  0.00190  0.78411  0.79963  1.0000
  S   S216      1.0  0.96299  0.81577  0.80373  1.0000
  H   H939      1.0  0.82411  0.57531  0.54591  1.0000
  C   C779      1.0  0.68980  0.80128  0.56589  1.0000
  H   H940      1.0  0.92457  0.63351  0.72912  1.0000
  H   H941      1.0  0.95956  0.95365  0.92646  1.0000
  S   S217      1.0  0.00021  0.68517  0.71825  1.0000
  C   C780      1.0  0.87557  0.66808  0.65636  1.0000
  C   C781      1.0  0.91754  0.65685  0.58432  1.0000
  H   H942      1.0  0.84330  0.90811  0.77921  1.0000
  C   C782      1.0  0.95714  0.80308  0.95047  1.0000
  H   H943      1.0  0.93679  0.73203  0.75110  1.0000
  H   H944      1.0  0.70301  0.79325  0.59178  1.0000
  C   C783      1.0  0.98953  0.63902  0.72378  1.0000
  H   H945      1.0  0.99538  0.50965  0.69201  1.0000
  C   C784      1.0  0.98357  0.58962  0.75854  1.0000
  C   C785      1.0  0.97053  0.56584  0.73127  1.0000
  C   C786      1.0  0.96715  0.57867  0.70017  1.0000
  C   C787      1.0  0.97692  0.61504  0.69654  1.0000
  C   C788      1.0  0.99540  0.98027  0.52431  1.0000
  C   C789      1.0  0.73463  0.98336  0.53280  1.0000
  H   H946      1.0  0.95708  0.56065  0.67895  1.0000
  H   H947      1.0  0.97479  0.62464  0.67259  1.0000
  C   C790      1.0  0.70623  0.93989  0.55202  1.0000
  S   S218      1.0  0.68003  0.89231  0.83377  1.0000
  H   H948      1.0  0.93643  0.86981  0.00723  1.0000
  C   C791      1.0  0.91250  0.59260  0.59831  1.0000
  C   C792      1.0  0.90851  0.64657  0.55129  1.0000
  C   C793      1.0  0.73294  0.95840  0.55675  1.0000
  H   H949      1.0  0.86658  0.69329  0.64287  1.0000
  H   H950      1.0  0.90626  0.73525  0.66145  1.0000
  H   H951      1.0  0.75232  0.95345  0.57879  1.0000
  C   C794      1.0  0.87474  0.84104  0.71782  1.0000
  C   C795      1.0  0.87648  0.84076  0.75015  1.0000
  C   C796      1.0  0.90359  0.83279  0.77617  1.0000
  C   C797      1.0  0.92904  0.82419  0.77014  1.0000
  C   C798      1.0  0.92715  0.82389  0.73778  1.0000
  C   C799      1.0  0.90023  0.83260  0.71185  1.0000
  H   H952      1.0  0.85700  0.84684  0.75509  1.0000
  H   H953      1.0  0.90477  0.83297  0.80109  1.0000
  H   H954      1.0  0.94665  0.81794  0.73280  1.0000
  H   H955      1.0  0.89920  0.83305  0.68696  1.0000
  C   C800      1.0  0.73066  0.92953  0.77014  1.0000
  C   C801      1.0  0.71579  0.89490  0.76482  1.0000
  C   C802      1.0  0.70038  0.88401  0.78451  1.0000
  C   C803      1.0  0.69963  0.90759  0.80966  1.0000
  H   H956      1.0  0.98971  0.98622  0.90256  1.0000
  C   C804      1.0  0.72979  0.95324  0.79519  1.0000
  H   H957      1.0  0.71635  0.87634  0.74567  1.0000
  H   H958      1.0  0.93527  0.89276  0.90372  1.0000
  H   H959      1.0  0.98544  0.84862  0.94798  1.0000
  H   H960      1.0  0.69833  0.82951  0.56311  1.0000
  H   H961      1.0  0.71441  0.96045  0.83459  1.0000
  C   C805      1.0  0.82345  0.55064  0.53134  1.0000
  C   C806      1.0  0.99273  0.62616  0.75477  1.0000
  H   H962      1.0  0.86752  0.57355  0.64443  1.0000
  H   H963      1.0  0.90530  0.57476  0.70102  1.0000
  H   H964      1.0  0.88165  0.92279  0.79534  1.0000
  C   C807      1.0  0.92197  0.72837  0.68660  1.0000
  C   C808      1.0  0.89716  0.66993  0.68898  1.0000
  H   H965      1.0  0.00222  0.64436  0.77587  1.0000
  H   H966      1.0  0.86632  0.73630  0.68117  1.0000
  H   H967      1.0  0.88934  0.75500  0.72010  1.0000
  C   C809      1.0  0.89699  0.60097  0.68861  1.0000
  H   H968      1.0  0.75541  0.99752  0.53669  1.0000
  H   H969      1.0  0.68914  0.85705  0.78026  1.0000
  H   H970      1.0  0.95003  0.68963  0.74063  1.0000
  S   S219      1.0  0.70280  0.90728  0.58078  1.0000
  H   H971      1.0  0.69518  0.78138  0.54967  1.0000
  C   C810      1.0  0.90371  0.58196  0.56540  1.0000
  C   C811      1.0  0.86509  0.63369  0.64056  1.0000
  C   C812      1.0  0.82141  0.97269  0.74867  1.0000
  C   C813      1.0  0.87573  0.60020  0.65670  1.0000
  C   C814      1.0  0.90779  0.63519  0.70460  1.0000
  H   H972      1.0  0.96337  0.78489  0.93456  1.0000
  H   H973      1.0  0.86948  0.71176  0.71775  1.0000
  C   C815      1.0  0.92954  0.70387  0.73952  1.0000
  S   S220      1.0  0.00146  0.72120  0.80196  1.0000
  H   H974      1.0  0.98638  0.57991  0.78271  1.0000
  C   C816      1.0  0.87866  0.79058  0.97234  1.0000
  H   H975      1.0  0.87643  0.92548  0.73728  1.0000
  C   C817      1.0  0.94884  0.90693  0.89275  1.0000
  S   S221      1.0  0.70900  0.97699  0.98553  1.0000
  H   H976      1.0  0.68108  0.80943  0.82385  1.0000
  H   H977      1.0  0.80513  0.94920  0.73907  1.0000
  H   H978      1.0  0.85524  0.94605  0.80783  1.0000
  H   H979      1.0  0.94054  0.71233  0.68437  1.0000
  C   C818      1.0  0.88210  0.72827  0.70600  1.0000
  N   N53       1.0  0.90763  0.70678  0.70520  1.0000
  H   H980      1.0  0.84904  0.95599  0.70889  1.0000
  H   H981      1.0  0.93146  0.75552  0.69892  1.0000
  H   H982      1.0  0.84859  0.63280  0.61566  1.0000
  H   H983      1.0  0.92017  0.68847  0.75523  1.0000
  H   H984      1.0  0.83802  0.91437  0.72346  1.0000
  S   S222      1.0  0.68131  0.98684  0.88880  1.0000
  H   H985      1.0  0.90791  0.54257  0.51173  1.0000
  C   C819      1.0  0.97993  0.95974  0.89141  1.0000
  H   H986      1.0  0.88011  0.76826  0.95546  1.0000
  H   H987      1.0  0.74133  0.98002  0.79955  1.0000
  N   N54       1.0  0.85235  0.95952  0.75901  1.0000
  H   H988      1.0  0.68483  0.81377  0.86511  1.0000
  C   C820      1.0  0.97027  0.90913  0.85181  1.0000
  C   C821      1.0  0.71446  0.94226  0.81500  1.0000
  H   H989      1.0  0.81663  0.98518  0.76911  1.0000
  C   C822      1.0  0.96243  0.94121  0.90547  1.0000
  C   C823      1.0  0.85847  0.93306  0.78660  1.0000
  H   H990      1.0  0.90661  0.66860  0.53388  1.0000
  H   H991      1.0  0.96548  0.98938  0.81202  1.0000
  C   C824      1.0  0.85424  0.93818  0.73101  1.0000
  C   C825      1.0  0.95283  0.89086  0.86603  1.0000
  H   H992      1.0  0.97266  0.89539  0.83114  1.0000
  C   C826      1.0  0.98429  0.97099  0.81380  1.0000
  H   H993      1.0  0.81619  0.99396  0.72892  1.0000
  H   H994      1.0  0.86968  0.81602  0.95740  1.0000
  H   H995      1.0  0.92812  0.76225  0.95735  1.0000
  H   H996      1.0  0.97492  0.94521  0.79909  1.0000
  S   S223      1.0  0.95912  0.52032  0.73731  1.0000
  S   S224      1.0  0.85725  0.51913  0.59010  1.0000
  H   H997      1.0  0.68276  0.70185  0.66811  1.0000
  C   C827      1.0  0.93702  0.79035  0.96374  1.0000
  H   H998      1.0  0.94260  0.86393  0.85625  1.0000
  C   C828      1.0  0.96952  0.83897  0.95788  1.0000
  C   C829      1.0  0.96149  0.86246  0.97816  1.0000
  C   C830      1.0  0.91942  0.62992  0.60776  1.0000
  H   H999      1.0  0.97129  0.89036  0.98409  1.0000
  H   H1000     1.0  0.92290  0.68589  0.59177  1.0000
  H   H1001     1.0  0.92595  0.63798  0.63327  1.0000
  H   H1002     1.0  0.91346  0.57170  0.61648  1.0000
  C   C831      1.0  0.83768  0.51791  0.54696  1.0000
  C   C832      1.0  0.89392  0.00065  0.75530  1.0000
  H   H1003     1.0  0.89823  0.55262  0.55993  1.0000
  H   H1004     1.0  0.68928  0.76858  0.84930  1.0000
  C   C833      1.0  0.94129  0.85011  0.99144  1.0000
  C   C834      1.0  0.98444  0.94414  0.86408  1.0000
  C   C835      1.0  0.92874  0.81330  0.98502  1.0000
  H   H1005     1.0  0.89580  0.98403  0.73578  1.0000
  N   N55       1.0  0.90773  0.79887  0.99914  1.0000
  C   C836      1.0  0.90153  0.60872  0.54080  1.0000
  C   C837      1.0  0.67986  0.76210  0.66570  1.0000
  H   H1006     1.0  0.99720  0.98599  0.80147  1.0000
  N   N56       1.0  0.00288  0.96276  0.84854  1.0000
  C   C838      1.0  0.68130  0.94665  0.52308  1.0000
  C   C839      1.0  0.97124  0.99024  0.00016  1.0000
  H   H1007     1.0  0.94926  0.99431  0.99986  1.0000
  H   H1008     1.0  0.92082  0.74055  0.00153  1.0000
  C   C840      1.0  0.67612  0.79474  0.84331  1.0000
