data_image0
_chemical_formula_structural       C2FeSFeS2FeS2FeSFeS3Fe2S2FeSHS2FeS2FeS2FeSFeS3FeS2FeSFeCFeS2FeSC2H2C6H4CHC6H4C7H4CSC2H2C7H4C6H6C2HC6H8CFeHCHCHNC9H16CH2C2H3NC9H14NHC3H2SHCH3CH2CHCHC2FeH3C2HCH3SC2H3CH3CHSCHNC4H2SH2NH3CH2NSCH2NC9H3CH3NH6NC9H15CHSH4SC3HC2H4CH2CHC3HSCH2CH3C5H2FeHCHCHCHFeHSHS2NFeS2FeS2FeSFeS4FeSH2FeS2C2SHFeH2NCHFeS3CHC2SCH2C3H2CHC2H3CHCHCSC6H4CHC2HC6H4C6H5FeHCH2C3HCHSCNC9H17CH2CHCH3FeHCHCHC2HNHC3H3CHCHCHCH2CHCH2C2FeC3SHCHS2H5C2H3NHC4HCHSCHCFeSH2NC9H14C2HCH4CH5CFeHFeH2CH2CH2FeS2FeH2CSCHCHCNC3HCH2FeSC3H2C2HCH2NC3H2CHCH2C2NHCSHC2HFeHSFeSH2S2C3FeSHCHCFeS2FeCSFeSCS2H2CHSCH2FeSC2H3SFeS2CFeNSCH2CSC6H5FeH2C6H4CHFeHCHCHFeH2C2H5C4FeC4HCHCSHCHC3SHC2HCFeC5H3CH2C6H10C2H7C2HC3SHC2H2CH3SH3NCHNHSHC2HC2Fe2HSC5HCH4CHNSFeH3CHSCSH5CSH4CH2C4HFeCH3C2HC2H3CH4C3H8SC3HNHCNCHC3H5CHCNC2FeS2HSC2HC2HSCHC2H5C2FeHC3HC2SH2CH2C4H3CH5S2H2SC3HCHSCFeS3H2FeS2FeS2FeSFeS4H2CSC2FeSH4FeCFeS2HCSHC7H2C7H4C3H2C2HC6H2CHCH4C2H2C2HC4NH3CH3C4SCH2SHCHC6H3CNC6H13CHCH9CNCFeHNHC3HC2HCNHCHFeCHSHCNCH2C2HC3H2CHC2H3CHCH5CH4NH5C3HCH2SH7CHFeCHC6SHCHCH2CH3C4H3C2H2CH2C2HCHCH4CSHC2NFeH2CSHCH2CH4CH4FeNCH2C3SHSHFeS2H2FeSH2SFeHSCHFeSCSH2SFeS2H2FeHFeSC3HFeS2FeSNFeSFeS3C2H2SHC8H3C6H7SH3CH3C7H5CH3C2H2CHCH3C6FeH4NHC2H2CH3C6H3CNHC6H2C2H4CH2C2SCH4CFeSH3C3NFeHCSNC9H15CH6CH4CH2CNC9FeH2CH6SHFeSCH3CSC3H7SHCH2CHCH2CH3CHCSCHNSCSHC2HCFeCH6NHFeSCH2SHSFeCSCH2SFeSFeCHSFeHSC3S2FeS2FeSFeSCSCS2CSNCSH2CHNHCH4C6HC2HCH6C7H5C3H2CHCH2C2H3CH2C4H3C5H5C7H6FeHCH2CHSCHC2HCH2SCHFeHC5HCHFeSFeH2NH6CHC2FeHCH4C2H3CH10SH2C3HSC2HC4HSHC2HCHCH5NC5HCH4C5HC2HC3H2CHC2HCNH2CHCHSCFeCHCHSC2H4CH3SH2S2CH2CH2NCHC3HCHC2SHSFeSFeSC2HFeSHSCFeS2FeS2FeSFeS3NSFeS2FeSFeS3FeSCFeS2HSC6H5CH2C3SH2C6H4C3H2C8H6CH2FeC6H6C2HCHC3H2FeHC4HCH2C2NH2CH4SCSHC2HC2H4CNCH8C3HCH3NCHNC6HCH12C2H2C2H8CHNCH3CH5CHCHC6H2CH2C3NHCH3CH4CHCHCHNHCHC2SNC7H2CH2SHCH4CHFeCH2SCFeC4H3C3HFe2H2C2HCH3SC2HCHCSH6CS2HC2HNCH2FeS2FeSCFe2SHSFeS2FeS2FeSFeS3FeSFeSCFeS2FeSFeS3CHSFeS2FeS2CH2C6H4C6H4C6H4CSHC6H4C6H4C6H6CSHCHC2H2CHCSC2H8FeH2CH3CHCH7C3HCHCHCH3C2H5CH2NC9H14CHC2H5C2HC2SCHNCNSCH2C2NC9H14NCHC2H2CHCH3CHSH2CFeC3NCHC3H3C2H2CH4CSNH2C2HCHS2CH2CH2CHCNHCHC2HS2C3HC3HC2HCH2SFeH2C2H3CH3C2H3CH2CH2CHS3FeS2FeS2FeSFeS3HNSH2CSFeCH2SH2FeSH2CSH2CSHC7H4C6H6CH2C6H5CHC6H4NC9H14CHC3H2C2HNC9H2CH7FeH3NC9H11CHFeH2CH2NC2HCHC2H2C2HSHCHCH4SFeH2NH2C4HCH2C2H2C2SH6CH4SCHSCSHFeCFeC2HFe2S2FeS2FeSFeS3H4SHFeS2FeS2FeSFeS3C2HFeS2FeS2FeSFeS3C6H4CSC6H4C2H4C3H3C2H3C6H8C6H4CH2C3H5CH4CHNC3HFeH4CH5CHC2NCH4C3H4C2HC2HC2H2NCHC4H8CH6C2HCHFeH2CNC2H2CHCHC3H4CH2N2C9H14SH3C2HC2H2CNH2C2HC2H5C2HCNH3C2HCHCH3C2HCHC3HC2HC3HC3SHCNHCHSCHCH2CH3SH3CNHSCH2CH4C4H2CS2FeHSFeS2FeS2FeSFeS3FeS2FeS2FeSFeS3FeS2FeS2FeSFeS3CHCFeCH3CHC2HC4H7CH3C3HCH2CH2C6H4C6H4C6H4C6H4NC9H11S2CHSCH2NC4N2HNCH10CH3CNC7HCHCH2C2HCH3NC5H3CH5CH2C3H2C2H3SHCH2CH9C2H4CH3C2HC2HCH2C2HCH3CHC2NCHCHCH4C2H3C2NH2C3H4C2H2CHC2HC4HCHCHCH4C2HC2HCH2CHCFeS2FeS2FeSFeS3FeSFeS2FeSFeS2CNCFeS2HC2S2HSCSFeSFeHSFeHSHSHCHFeCH2CH3CSHSH2CHC3H2FeHC3HSC7H4C6H4C6H4C6H4C6H6NC9H15C2H2CHC2HCHCH2SCH3CH2CHNC2HCHC2H5CHCH6NC2H4NHCHCHC2H4CHCHCH3SHC2H2CHCHSNH5NCNC3H2FeH3CH2SC2FeHFeH2CFeC4SH3CS2H2CSH2CSFeS2FeS2FeSFeS3FeHSC3H2SFeS2FeCSFeC2S2FeHSHCNH2SFeHFeS2Fe2SCHFeSH3C2SHC2H2C4HSC4SHSH2CSCH2FeC2H2CHC6H4C6H4C6H4C6H5NC9H14NC9H12C2H2NHC2HFeHCHCHFeCH2SHFeCHC2NH3CSH2C2HSCHCHNHNC8H12CHSHC2HFeH2CHCH2C4H6SCH2CH2CSH2CHSHSFeSHFeS2FeS2FeSFeS3FeS2FeS2FeSFeS3FeS2FeS2FeSFeS3C3H2C2HC3H3SHCH3C5H4C4H4C6H4C6H4C6H4C7H4NC9H14CHC3NC6HCH17CH2C2H4NC9H12FeSC3H2CH4CH2C3HC2H2CH2SH3C2H2C3HC5HC3HCH9NH3CH2CHC3H2CH2NCNCH2CHCHCSC2H4C2HC3H3CNHC4H2FeS2FeS2FeSFeS3FeS2FeS2FeSFeS3H2SCFeS2H3FeS2FeS2FeSFeS3C6H4C2HC6H5CHC6H4C5HCH2C2H3C6H5C5H3CHCH3C4H2CHC2HCH2CH2CH4C2HC2HCH3CH4CH4CHNCH2NCHNHCHNC9H17CNHCHC2HCH3CH6C5H3CNCH6CHCH3CHCHNC7H11C2H2C3HSCHFeHC5HCHCH4CHSH2CHSFeSHFeS2FeS2FeSFeS3CFeSCFeH2CH3SCHFeS2HNH2CH2CH3C6H4C6H4CH3C6H7CH3SC6H3CNH2C2HC2SCH2C2HC4HCFeHCHCHCNH5C2HFeCHC2SCHNH5CSCHNHCSC7HCHCH4CHCH2NCHC2H2CHCH2CH6C2H2FeH2CH6C4HCHC2HCHCSHSHSH3CHSC3FeH2SHC2H2C2HCH2SH2CHCH5CFeHS2FeS2FeS2FeSFeS3FeSFeS2FeS4FeS2FeS2Fe2S3FeHSHCFeHSFeS2HCSHC3HC2HC4H2C7H3C6H5C8H4C6H4C3H3C6H4C2H2CH2CH7CH2C2H3CHNHC4H5CHCHCHCH3FeHCH3FeCHNC2HC2HCH2CSCH2S2HFeC5HC2HCHCH2CH2C2HCHC2SCHCHCNH4CH3CHCHCHNCNCHC3H3C6H3CH3CH4SHNCH6CHCHCH2NH2C2SH2CH6C3H2CH2CH3CH3CHC2HC2H2C2SH2CHC2H2C2HS3HFeSFeS2FeS2FeSFeS4CFeS2FeSFeSFeHS2CSFeS2FeC2NS3HCH3C2HC4H3C2H2C6H2C6H4C3H2C6H5C6H5CH3FeCH2CFeC2H5C2FeCFeCFeH3CHSC2HC2HNC9H15C2SHCHCHCH3CHCH2CHSC3NC9H15SH4S2H4CH4FeC3NHC2H2SH4NH3CH2CH7CS2CHC3HSCFeCHNCHCH2C3HCHCHCH2CHSH5SCSFeHC2HS2HFeSCNH3SH3FeCSFeCSCFeS4CHCS2FeHSC2SC2H3C6H4C6H5C3H3CFeSCH9C3H6SFeH3C3FeCSH2CHC6H4CFeHC3NH2CH6CNC10H11CHFeHCH2C2HC4H2FeH2C2SH2C2H4SCHSC2SC3HC2HCNH2CH4SC4H3NCH4CHCHCH3C2SNHCHCH2SH2CH3CHC3HFeH5SH3C2HCH3CNC3SH2FeHCHCH2NC2S2CHSCFeS2FeCHCFeSHFeSHFeSFeS3HC6HSHCS3HS2FeSFeSC8H3SC2HCH3NH2C6H10C4H3C7HCH3CH2CH2CH2CHFeH2NCFeC5H5C9H2CH3SC2HFeSH2SHCHCH5NC9H15CH2NC9H4CH6CH3C2NFeH4C2SH4C2SCHCHSFeCSHFeCHSC3H2NC9H15CHCH5CH3CNHC2H2CHCH3C2H2SH2CH2CSH3SCSHCHCHSCH3NFeC2HCH3SH2CFeSHCHSHFeSC2HCSH2FeHSHSH2SFeS2FeS2FeSFeHS2C2H2CHCHC6H2CHC6H6C3HCFeHC6H6C3HCH2C2HCSHNC3HC3NHCSH3C6H4C5H10C2HCSHFeHC2HCHC3HFeHCHCHCH4C2HCH2CHCHCH7SHCHNH3C2HNH2C6HCHCHCS2NH3CHSH2NHNCH4C2H2C2HC3SH2C2H2C2SHC2HCSH2SHNCHCHCHCNH2C2H5C2HCFeCSHNC2HCH5C2HCH4C2HC2H2NH3SC2H2SHCH2CHC3HCHCNH2CHC2HSC2SCFeS2C2HCFeSHSHCH2FeHCH2SC2FeS2H2S2HFeHSFeCSFeCSH8SHFeC3H2NCH4C7H4C3HC2HNH4C2H2C4H5C4H6C2S2FeH5C4HC2HC6H3CH3CFeH3SH2C2H3CH3CH2NH2C4NC9H3CFeSHCH7CNCHCHC3H2C3H3CFeHCH2C2HFeCH2SCHFeCSH2SCSC5FeCS2H4CNH2CH4CHSHCSC2H3C2HCH2CFeC2HSHCHCH3CHFeCH2SCHCNHSCH2CHCSFeHCH2CH2CHC2HN2H3CNCH2CH8CS2CHSCFeS2FeS2FeSFeS3HSFeSHFeSFeCSCFeSFeS2Fe2CS2C6H4CH2C4H2C6H4C2HCHCHC6H6C2HNC6H4CSHNH4SNH3C3H3C2SHCH4C2H4CHC2H3CH3FeCH3C2HNC9HC2HFeHCHCH5NC8H12CHSH4CSHCH4C2HCHNCFeHCH3NC3SCH5CH3C2H2C2H3CHC2H2CH2SC6SCH2SH3CHC3SNH7CH2C5H5SFeCHCH3CH2C2SCHC5HCFeS2FeS2CFeSHFeS2FeSFeS3HCSHFeSHFeS2FeS2FeSFeS3HCHFeSHFeS2Fe2S2CHC6H4C6H4C6H5C4H2C2H4C6H4C6H4NH2CH2CH8C5HC3HFeCH2CHCH5CH2C3H3SCHCH4SFeHC2NHCH3C3H5CHSNCHC2NC3FeC2SCH9SHSH2CH2C3H3NC9H16CHSCH2C2HCSC2H3C2SFeCHNC9H3CSH2NH2CH2CH2C2HCH2CH3CH2C4H4SFeCH2SC3SC
_chemical_formula_sum              "C2880 Fe384 S768 H3456 N192"
_cell_length_a       66.9969
_cell_length_b       66.8975
_cell_length_c       85.5603
_cell_angle_alpha    80.4607
_cell_angle_beta     80.541
_cell_angle_gamma    80.1649

_space_group_name_H-M_alt    "P 1"
_space_group_IT_number       1

loop_
  _space_group_symop_operation_xyz
  'x, y, z'

loop_
  _atom_site_type_symbol
  _atom_site_label
  _atom_site_symmetry_multiplicity
  _atom_site_fract_x
  _atom_site_fract_y
  _atom_site_fract_z
  _atom_site_occupancy
  C   C1        1.0  0.28635  0.26207  0.09456  1.0000
  C   C2        1.0  0.00808  0.03077  0.03828  1.0000
  Fe  Fe1       1.0  0.18767  0.99681  0.10100  1.0000
  S   S1        1.0  0.17087  0.02901  0.10264  1.0000
  Fe  Fe2       1.0  0.16075  0.14938  0.16821  1.0000
  S   S2        1.0  0.15822  0.17978  0.15196  1.0000
  S   S3        1.0  0.15197  0.14052  0.19494  1.0000
  Fe  Fe3       1.0  0.18191  0.12478  0.14141  1.0000
  S   S4        1.0  0.18141  0.15296  0.12322  1.0000
  S   S5        1.0  0.19923  0.09295  0.13849  1.0000
  Fe  Fe4       1.0  0.19065  0.16861  0.14164  1.0000
  S   S6        1.0  0.21821  0.18530  0.13323  1.0000
  Fe  Fe5       1.0  0.14897  0.16197  0.13466  1.0000
  S   S7        1.0  0.12690  0.17270  0.11626  1.0000
  S   S8        1.0  0.19363  0.13964  0.15903  1.0000
  S   S9        1.0  0.14896  0.13249  0.15171  1.0000
  Fe  Fe6       1.0  0.25309  0.45974  0.08388  1.0000
  Fe  Fe7       1.0  0.23746  0.43180  0.11332  1.0000
  S   S10       1.0  0.20942  0.45443  0.11862  1.0000
  S   S11       1.0  0.23948  0.40396  0.13235  1.0000
  Fe  Fe8       1.0  0.20724  0.45838  0.09236  1.0000
  S   S12       1.0  0.17431  0.46139  0.08696  1.0000
  H   H1        1.0  0.24793  0.26929  0.19608  1.0000
  S   S13       1.0  0.23416  0.43401  0.08736  1.0000
  S   S14       1.0  0.25837  0.45554  0.10973  1.0000
  Fe  Fe9       1.0  0.07931  0.39646  0.01924  1.0000
  S   S15       1.0  0.04778  0.39617  0.03295  1.0000
  S   S16       1.0  0.08823  0.39792  0.99225  1.0000
  Fe  Fe10      1.0  0.09762  0.40439  0.04833  1.0000
  S   S17       1.0  0.06687  0.40525  0.06399  1.0000
  S   S18       1.0  0.12986  0.40451  0.05449  1.0000
  Fe  Fe11      1.0  0.06337  0.37756  0.05313  1.0000
  S   S19       1.0  0.05007  0.35154  0.07030  1.0000
  Fe  Fe12      1.0  0.05351  0.42376  0.04255  1.0000
  S   S20       1.0  0.02965  0.45181  0.03753  1.0000
  S   S21       1.0  0.09474  0.37564  0.03867  1.0000
  S   S22       1.0  0.08442  0.42491  0.02776  1.0000
  Fe  Fe13      1.0  0.01202  0.21464  0.10436  1.0000
  S   S23       1.0  0.02392  0.21205  0.07867  1.0000
  S   S24       1.0  0.03041  0.20135  0.12479  1.0000
  Fe  Fe14      1.0  0.01006  0.24512  0.07358  1.0000
  S   S25       1.0  0.02650  0.26849  0.05583  1.0000
  Fe  Fe15      1.0  0.30929  0.28174  0.17226  1.0000
  C   C3        1.0  0.23280  0.16485  0.20532  1.0000
  Fe  Fe16      1.0  0.29742  0.29336  0.13865  1.0000
  S   S26       1.0  0.27908  0.28930  0.16295  1.0000
  S   S27       1.0  0.28961  0.31795  0.11795  1.0000
  Fe  Fe17      1.0  0.28295  0.25593  0.16066  1.0000
  S   S28       1.0  0.25497  0.24076  0.17127  1.0000
  C   C4        1.0  0.01589  0.46902  0.05051  1.0000
  C   C5        1.0  0.24378  0.45228  0.15149  1.0000
  H   H2        1.0  0.23645  0.24012  0.20558  1.0000
  H   H3        1.0  0.16239  0.18170  0.19153  1.0000
  C   C6        1.0  0.04367  0.32862  0.06587  1.0000
  C   C7        1.0  0.04827  0.32289  0.05053  1.0000
  C   C8        1.0  0.04270  0.30456  0.04763  1.0000
  C   C9        1.0  0.03244  0.29181  0.05998  1.0000
  C   C10       1.0  0.02774  0.29764  0.07530  1.0000
  C   C11       1.0  0.03342  0.31586  0.07821  1.0000
  H   H4        1.0  0.05615  0.33256  0.04092  1.0000
  H   H5        1.0  0.04649  0.30019  0.03575  1.0000
  H   H6        1.0  0.01986  0.28812  0.08498  1.0000
  H   H7        1.0  0.02968  0.32025  0.09008  1.0000
  C   C12       1.0  0.99652  0.35991  0.06843  1.0000
  H   H8        1.0  0.02738  0.45320  0.07199  1.0000
  C   C13       1.0  0.25478  0.38074  0.12816  1.0000
  C   C14       1.0  0.25793  0.36479  0.14081  1.0000
  C   C15       1.0  0.26899  0.34564  0.13785  1.0000
  C   C16       1.0  0.27670  0.34220  0.12216  1.0000
  C   C17       1.0  0.27354  0.35816  0.10950  1.0000
  C   C18       1.0  0.26273  0.37744  0.11248  1.0000
  H   H9        1.0  0.25171  0.36718  0.15296  1.0000
  H   H10       1.0  0.27133  0.33348  0.14769  1.0000
  H   H11       1.0  0.27943  0.35560  0.09733  1.0000
  H   H12       1.0  0.26029  0.38959  0.10263  1.0000
  C   C19       1.0  0.29141  0.24125  0.09984  1.0000
  C   C20       1.0  0.14181  0.42111  0.06310  1.0000
  C   C21       1.0  0.16325  0.41751  0.06250  1.0000
  C   C22       1.0  0.17349  0.42978  0.06952  1.0000
  C   C23       1.0  0.16235  0.44575  0.07743  1.0000
  C   C24       1.0  0.14092  0.44944  0.07798  1.0000
  C   C25       1.0  0.13070  0.43724  0.07085  1.0000
  H   H13       1.0  0.17203  0.40518  0.05643  1.0000
  H   H14       1.0  0.18998  0.42697  0.06866  1.0000
  H   H15       1.0  0.13210  0.46177  0.08400  1.0000
  H   H16       1.0  0.11422  0.44021  0.07146  1.0000
  C   C26       1.0  0.26911  0.48481  0.03926  1.0000
  S   S29       1.0  0.22595  0.48455  0.08718  1.0000
  C   C27       1.0  0.15798  0.03974  0.15855  1.0000
  C   C28       1.0  0.28871  0.45763  0.16743  1.0000
  H   H17       1.0  0.06567  0.43552  0.97464  1.0000
  H   H18       1.0  0.05501  0.37324  0.99607  1.0000
  C   C29       1.0  0.24756  0.17515  0.20965  1.0000
  C   C30       1.0  0.10008  0.18061  0.11910  1.0000
  C   C31       1.0  0.08989  0.18612  0.10555  1.0000
  C   C32       1.0  0.06857  0.19234  0.10713  1.0000
  C   C33       1.0  0.05724  0.19341  0.12229  1.0000
  C   C34       1.0  0.06739  0.18786  0.13586  1.0000
  C   C35       1.0  0.08872  0.18143  0.13430  1.0000
  H   H19       1.0  0.09854  0.18534  0.09377  1.0000
  H   H20       1.0  0.06089  0.19607  0.09664  1.0000
  H   H21       1.0  0.05872  0.18857  0.14765  1.0000
  H   H22       1.0  0.09638  0.17723  0.14481  1.0000
  C   C36       1.0  0.22709  0.20271  0.14295  1.0000
  C   C37       1.0  0.24696  0.20747  0.13777  1.0000
  C   C38       1.0  0.25535  0.21993  0.14592  1.0000
  C   C39       1.0  0.24392  0.22764  0.15939  1.0000
  C   C40       1.0  0.22379  0.22346  0.16427  1.0000
  C   C41       1.0  0.21531  0.21121  0.15597  1.0000
  H   H23       1.0  0.25610  0.20108  0.12761  1.0000
  H   H24       1.0  0.27087  0.22302  0.14208  1.0000
  H   H25       1.0  0.21481  0.22951  0.17462  1.0000
  H   H26       1.0  0.19979  0.20810  0.15976  1.0000
  H   H27       1.0  0.21078  0.21917  0.21990  1.0000
  H   H28       1.0  0.02212  0.10814  0.11463  1.0000
  C   C42       1.0  0.06002  0.44988  0.97990  1.0000
  C   C43       1.0  0.04873  0.37323  0.97201  1.0000
  H   H29       1.0  0.01391  0.16450  0.11391  1.0000
  C   C44       1.0  0.17857  0.04638  0.11310  1.0000
  C   C45       1.0  0.16788  0.06642  0.11260  1.0000
  C   C46       1.0  0.17392  0.08086  0.12042  1.0000
  C   C47       1.0  0.19080  0.07534  0.12872  1.0000
  C   C48       1.0  0.20140  0.05527  0.12930  1.0000
  C   C49       1.0  0.19525  0.04079  0.12161  1.0000
  H   H30       1.0  0.15492  0.07083  0.10606  1.0000
  H   H31       1.0  0.16567  0.09629  0.11988  1.0000
  H   H32       1.0  0.21436  0.05087  0.13584  1.0000
  H   H33       1.0  0.20335  0.02532  0.12233  1.0000
  H   H34       1.0  0.00449  0.37215  0.06993  1.0000
  H   H35       1.0  0.07020  0.44997  0.98898  1.0000
  H   H36       1.0  0.24792  0.41262  0.16478  1.0000
  H   H37       1.0  0.24823  0.99103  0.02100  1.0000
  C   C50       1.0  0.21779  0.15782  0.21782  1.0000
  Fe  Fe18      1.0  0.99282  0.20392  0.07745  1.0000
  H   H38       1.0  0.19126  0.03080  0.04239  1.0000
  C   C51       1.0  0.25389  0.46539  0.18041  1.0000
  H   H39       1.0  0.04261  0.46929  0.00461  1.0000
  C   C52       1.0  0.24840  0.17090  0.17686  1.0000
  H   H40       1.0  0.31524  0.21723  0.10693  1.0000
  N   N1        1.0  0.18498  0.38816  0.11096  1.0000
  C   C53       1.0  0.18144  0.39493  0.12700  1.0000
  C   C54       1.0  0.20003  0.39999  0.10042  1.0000
  C   C55       1.0  0.16534  0.39354  0.10422  1.0000
  C   C56       1.0  0.19323  0.36602  0.11227  1.0000
  C   C57       1.0  0.18387  0.35152  0.10666  1.0000
  C   C58       1.0  0.21153  0.35845  0.11901  1.0000
  C   C59       1.0  0.19241  0.33079  0.10785  1.0000
  C   C60       1.0  0.21999  0.33776  0.12005  1.0000
  C   C61       1.0  0.21043  0.32394  0.11452  1.0000
  H   H41       1.0  0.19590  0.39382  0.13211  1.0000
  H   H42       1.0  0.17433  0.41131  0.12649  1.0000
  H   H43       1.0  0.17119  0.38553  0.13562  1.0000
  H   H44       1.0  0.21476  0.39806  0.10531  1.0000
  H   H45       1.0  0.19423  0.41674  0.09886  1.0000
  H   H46       1.0  0.20356  0.39510  0.08832  1.0000
  H   H47       1.0  0.15953  0.41027  0.10345  1.0000
  H   H48       1.0  0.16711  0.38993  0.09177  1.0000
  H   H49       1.0  0.15314  0.38543  0.11172  1.0000
  H   H50       1.0  0.17002  0.35577  0.10122  1.0000
  H   H51       1.0  0.21959  0.36856  0.12339  1.0000
  H   H52       1.0  0.18506  0.31998  0.10348  1.0000
  H   H53       1.0  0.23415  0.33245  0.12509  1.0000
  H   H54       1.0  0.21707  0.30790  0.11535  1.0000
  H   H55       1.0  0.25943  0.18129  0.20100  1.0000
  H   H56       1.0  0.20776  0.18647  0.18633  1.0000
  C   C62       1.0  0.28479  0.47090  0.04567  1.0000
  H   H57       1.0  0.01165  0.35782  0.04455  1.0000
  H   H58       1.0  0.13357  0.10699  0.18772  1.0000
  C   C63       1.0  0.21229  0.17042  0.18372  1.0000
  C   C64       1.0  0.15804  0.03982  0.19120  1.0000
  H   H59       1.0  0.31561  0.45539  0.04067  1.0000
  H   H60       1.0  0.06589  0.00596  0.05690  1.0000
  H   H61       1.0  0.19726  0.03840  0.06795  1.0000
  N   N2        1.0  0.07610  0.25040  0.08798  1.0000
  C   C65       1.0  0.05421  0.25081  0.09490  1.0000
  C   C66       1.0  0.07948  0.27172  0.08154  1.0000
  C   C67       1.0  0.07984  0.23821  0.07448  1.0000
  C   C68       1.0  0.09030  0.24172  0.09979  1.0000
  C   C69       1.0  0.11169  0.23755  0.09472  1.0000
  C   C70       1.0  0.08359  0.23776  0.11653  1.0000
  C   C71       1.0  0.12536  0.22913  0.10561  1.0000
  C   C72       1.0  0.09746  0.22963  0.12733  1.0000
  C   C73       1.0  0.11825  0.22512  0.12187  1.0000
  H   H62       1.0  0.04397  0.25605  0.08558  1.0000
  H   H63       1.0  0.05091  0.23529  0.10059  1.0000
  H   H64       1.0  0.04943  0.26158  0.10390  1.0000
  H   H65       1.0  0.09552  0.27258  0.07584  1.0000
  H   H66       1.0  0.07611  0.28168  0.09116  1.0000
  H   H67       1.0  0.06953  0.27869  0.07225  1.0000
  H   H68       1.0  0.07939  0.22168  0.07894  1.0000
  H   H69       1.0  0.06814  0.24333  0.06618  1.0000
  H   H70       1.0  0.09480  0.23960  0.06692  1.0000
  H   H71       1.0  0.11804  0.24059  0.08227  1.0000
  H   H72       1.0  0.06767  0.24034  0.12159  1.0000
  H   H73       1.0  0.14153  0.22529  0.10144  1.0000
  H   H74       1.0  0.09196  0.22612  0.13997  1.0000
  H   H75       1.0  0.12883  0.21805  0.13022  1.0000
  N   N3        1.0  0.26069  0.44087  0.16011  1.0000
  H   H76       1.0  0.99789  0.12406  0.11251  1.0000
  C   C74       1.0  0.27689  0.43207  0.14801  1.0000
  C   C75       1.0  0.25299  0.42357  0.17131  1.0000
  C   C76       1.0  0.26788  0.45462  0.16921  1.0000
  H   H77       1.0  0.25086  0.13182  0.19168  1.0000
  H   H78       1.0  0.03392  0.03125  0.00073  1.0000
  S   S30       1.0  0.31217  0.24799  0.17154  1.0000
  H   H79       1.0  0.21937  0.02865  0.01969  1.0000
  C   C77       1.0  0.01739  0.46623  0.06687  1.0000
  H   H80       1.0  0.23964  0.42883  0.17997  1.0000
  H   H81       1.0  0.28645  0.23611  0.21865  1.0000
  H   H82       1.0  0.05586  0.00327  0.01413  1.0000
  C   C78       1.0  0.03285  0.46972  0.99514  1.0000
  H   H83       1.0  0.27090  0.42226  0.14106  1.0000
  H   H84       1.0  0.17016  0.06813  0.20762  1.0000
  C   C79       1.0  0.00285  0.48601  0.04402  1.0000
  H   H85       1.0  0.26511  0.41483  0.17829  1.0000
  C   C80       1.0  0.31917  0.28527  0.21136  1.0000
  H   H86       1.0  0.27398  0.24004  0.20106  1.0000
  C   C81       1.0  0.30343  0.46619  0.03581  1.0000
  C   C82       1.0  0.23599  0.13923  0.18773  1.0000
  Fe  Fe19      1.0  0.23008  0.47861  0.11340  1.0000
  H   H87       1.0  0.03685  0.36365  0.97587  1.0000
  H   H88       1.0  0.00743  0.48130  0.97516  1.0000
  H   H89       1.0  0.20585  0.15019  0.21544  1.0000
  C   C83       1.0  0.05897  0.37865  0.98348  1.0000
  C   C84       1.0  0.16199  0.17497  0.20396  1.0000
  H   H90       1.0  0.00305  0.04897  0.01571  1.0000
  C   C85       1.0  0.15635  0.05894  0.18099  1.0000
  H   H91       1.0  0.23007  0.45803  0.15959  1.0000
  H   H92       1.0  0.01679  0.47118  0.00132  1.0000
  H   H93       1.0  0.29615  0.29110  0.08814  1.0000
  S   S31       1.0  0.00028  0.24829  0.09942  1.0000
  C   C86       1.0  0.30638  0.47515  0.01966  1.0000
  C   C87       1.0  0.04282  0.01051  0.02142  1.0000
  H   H94       1.0  0.31962  0.31064  0.08694  1.0000
  H   H95       1.0  0.23841  0.44251  0.14418  1.0000
  H   H96       1.0  0.15820  0.03870  0.20391  1.0000
  C   C88       1.0  0.03621  0.43315  0.99987  1.0000
  H   H97       1.0  0.17242  0.10391  0.18324  1.0000
  H   H98       1.0  0.27964  0.23140  0.10259  1.0000
  H   H99       1.0  0.14409  0.39309  0.98387  1.0000
  C   C89       1.0  0.29489  0.47088  0.17614  1.0000
  H   H100      1.0  0.17098  0.09408  0.16555  1.0000
  S   S32       1.0  0.30956  0.29751  0.19365  1.0000
  C   C90       1.0  0.03816  0.00395  0.03814  1.0000
  H   H101      1.0  0.01314  0.12875  0.12629  1.0000
  N   N4        1.0  0.15480  0.07885  0.18687  1.0000
  C   C91       1.0  0.17204  0.08952  0.17846  1.0000
  C   C92       1.0  0.13524  0.09179  0.18352  1.0000
  C   C93       1.0  0.15547  0.07706  0.20432  1.0000
  C   C94       1.0  0.15638  0.05829  0.16447  1.0000
  H   H102      1.0  0.15539  0.07217  0.15591  1.0000
  H   H103      1.0  0.15425  0.09244  0.20817  1.0000
  S   S33       1.0  0.99462  0.17578  0.06481  1.0000
  H   H104      1.0  0.23705  0.28479  0.21159  1.0000
  H   H105      1.0  0.02007  0.43318  0.00567  1.0000
  N   N5        1.0  0.26103  0.26057  0.21830  1.0000
  H   H106      1.0  0.13401  0.09506  0.17053  1.0000
  H   H107      1.0  0.04406  0.99743  0.06986  1.0000
  H   H108      1.0  0.12189  0.08422  0.18954  1.0000
  C   C95       1.0  0.03031  0.02665  0.01351  1.0000
  H   H109      1.0  0.99742  0.13957  0.05013  1.0000
  H   H110      1.0  0.14247  0.06982  0.21148  1.0000
  N   N6        1.0  0.23253  0.16152  0.18867  1.0000
  S   S34       1.0  0.29900  0.26039  0.13546  1.0000
  C   C96       1.0  0.15711  0.15518  0.20881  1.0000
  H   H111      1.0  0.26098  0.04157  0.04790  1.0000
  H   H112      1.0  0.24664  0.18772  0.17692  1.0000
  N   N7        1.0  0.02440  0.13812  0.10138  1.0000
  C   C97       1.0  0.01400  0.12415  0.11427  1.0000
  C   C98       1.0  0.01391  0.15936  0.10219  1.0000
  C   C99       1.0  0.02171  0.13253  0.08583  1.0000
  C   C100      1.0  0.04609  0.13690  0.10356  1.0000
  C   C101      1.0  0.05111  0.14096  0.11811  1.0000
  C   C102      1.0  0.06270  0.13221  0.09141  1.0000
  C   C103      1.0  0.07143  0.13998  0.12046  1.0000
  C   C104      1.0  0.08298  0.13155  0.09384  1.0000
  C   C105      1.0  0.08733  0.13541  0.10833  1.0000
  H   H113      1.0  0.04559  0.43329  0.00943  1.0000
  H   H114      1.0  0.24875  0.46580  0.14331  1.0000
  H   H115      1.0  0.00711  0.47820  0.08927  1.0000
  C   C106      1.0  0.02033  0.01456  0.04628  1.0000
  H   H116      1.0  0.18705  0.07959  0.17937  1.0000
  H   H117      1.0  0.02150  0.17028  0.09281  1.0000
  H   H118      1.0  0.02905  0.11660  0.08440  1.0000
  N   N8        1.0  0.03826  0.45100  0.98718  1.0000
  H   H119      1.0  0.02791  0.14333  0.07553  1.0000
  H   H120      1.0  0.03934  0.14545  0.12767  1.0000
  H   H121      1.0  0.06045  0.12927  0.07984  1.0000
  H   H122      1.0  0.07486  0.14346  0.13158  1.0000
  H   H123      1.0  0.09545  0.12826  0.08437  1.0000
  H   H124      1.0  0.10304  0.13538  0.11006  1.0000
  N   N9        1.0  0.23308  0.04560  0.07628  1.0000
  C   C107      1.0  0.23027  0.02722  0.08823  1.0000
  C   C108      1.0  0.25395  0.05034  0.07632  1.0000
  C   C109      1.0  0.21821  0.06325  0.08145  1.0000
  C   C110      1.0  0.22955  0.04155  0.06052  1.0000
  C   C111      1.0  0.24539  0.03994  0.04728  1.0000
  C   C112      1.0  0.20992  0.03816  0.05828  1.0000
  C   C113      1.0  0.24157  0.03559  0.03271  1.0000
  C   C114      1.0  0.20631  0.03369  0.04368  1.0000
  C   C115      1.0  0.22210  0.03245  0.03092  1.0000
  H   H125      1.0  0.24054  0.01342  0.08440  1.0000
  H   H126      1.0  0.23355  0.02916  0.10018  1.0000
  H   H127      1.0  0.21433  0.02381  0.08996  1.0000
  H   H128      1.0  0.25720  0.06386  0.06732  1.0000
  H   H129      1.0  0.26589  0.03701  0.07386  1.0000
  H   H130      1.0  0.25585  0.05401  0.08818  1.0000
  H   H131      1.0  0.20213  0.06018  0.08344  1.0000
  H   H132      1.0  0.22086  0.06707  0.09307  1.0000
  H   H133      1.0  0.21913  0.07718  0.07238  1.0000
  H   H134      1.0  0.23613  0.13622  0.17526  1.0000
  H   H135      1.0  0.25398  0.03401  0.02286  1.0000
  H   H136      1.0  0.26414  0.16401  0.17920  1.0000
  H   H137      1.0  0.24735  0.16877  0.16437  1.0000
  H   H138      1.0  0.30052  0.45018  0.15924  1.0000
  H   H139      1.0  0.28325  0.44433  0.13909  1.0000
  C   C116      1.0  0.30133  0.27500  0.09146  1.0000
  H   H140      1.0  0.99434  0.03833  0.04476  1.0000
  S   S35       1.0  0.28717  0.99445  0.00198  1.0000
  H   H141      1.0  0.16980  0.20157  0.21144  1.0000
  H   H142      1.0  0.16121  0.00686  0.19305  1.0000
  H   H143      1.0  0.28955  0.42204  0.15367  1.0000
  H   H144      1.0  0.27058  0.26837  0.09329  1.0000
  S   S36       1.0  0.28218  0.45948  0.06596  1.0000
  C   C117      1.0  0.01295  0.03672  0.02191  1.0000
  C   C118      1.0  0.25962  0.98730  0.02904  1.0000
  C   C119      1.0  0.15976  0.02128  0.16883  1.0000
  H   H145      1.0  0.00522  0.13348  0.08465  1.0000
  C   C120      1.0  0.16611  0.18622  0.21526  1.0000
  C   C121      1.0  0.05716  0.99283  0.06076  1.0000
  H   H146      1.0  0.19998  0.16155  0.18990  1.0000
  H   H147      1.0  0.15802  0.03968  0.14587  1.0000
  H   H148      1.0  0.21223  0.17061  0.17069  1.0000
  H   H149      1.0  0.22377  0.13127  0.19535  1.0000
  C   C122      1.0  0.15977  0.02131  0.18512  1.0000
  H   H150      1.0  0.04168  0.41824  0.99540  1.0000
  H   H151      1.0  0.26188  0.28741  0.20029  1.0000
  C   C123      1.0  0.23447  0.23792  0.21852  1.0000
  H   H152      1.0  0.01527  0.01005  0.05885  1.0000
  C   C124      1.0  0.31147  0.23327  0.10220  1.0000
  C   C125      1.0  0.07456  0.39076  0.97856  1.0000
  C   C126      1.0  0.25147  0.27613  0.20612  1.0000
  H   H153      1.0  0.32068  0.47111  0.01217  1.0000
  S   S37       1.0  0.20029  0.98880  0.07637  1.0000
  C   C127      1.0  0.02543  0.45059  0.97470  1.0000
  H   H154      1.0  0.23784  0.46387  0.18248  1.0000
  H   H155      1.0  0.16120  0.00693  0.16414  1.0000
  C   C128      1.0  0.26023  0.47874  0.18892  1.0000
  H   H156      1.0  0.31072  0.47339  0.17435  1.0000
  H   H157      1.0  0.99557  0.32940  0.04101  1.0000
  H   H158      1.0  0.07960  0.98924  0.03211  1.0000
  C   C129      1.0  0.00588  0.48040  0.07663  1.0000
  C   C130      1.0  0.28068  0.48147  0.18679  1.0000
  C   C131      1.0  0.00053  0.35179  0.05408  1.0000
  C   C132      1.0  0.99117  0.33531  0.05227  1.0000
  C   C133      1.0  0.27868  0.24799  0.21002  1.0000
  H   H159      1.0  0.99763  0.16109  0.10020  1.0000
  H   H160      1.0  0.29026  0.25763  0.20344  1.0000
  Fe  Fe20      1.0  0.31946  0.98867  0.98838  1.0000
  H   H161      1.0  0.12596  0.36622  0.97886  1.0000
  C   C134      1.0  0.32208  0.26726  0.09333  1.0000
  H   H162      1.0  0.03509  0.48384  0.98656  1.0000
  C   C135      1.0  0.28039  0.98726  0.02284  1.0000
  H   H163      1.0  0.01211  0.17731  0.44491  1.0000
  C   C136      1.0  0.26050  0.00432  0.29587  1.0000
  H   H164      1.0  0.05425  0.00521  0.46107  1.0000
  Fe  Fe21      1.0  0.01148  0.21687  0.35926  1.0000
  H   H165      1.0  0.27032  0.04069  0.40967  1.0000
  S   S38       1.0  0.03489  0.19976  0.34167  1.0000
  H   H166      1.0  0.07783  0.23128  0.29679  1.0000
  S   S39       1.0  0.05947  0.38060  0.45224  1.0000
  S   S40       1.0  0.01062  0.21358  0.38592  1.0000
  N   N10       1.0  0.26027  0.01099  0.41464  1.0000
  Fe  Fe22      1.0  0.15321  0.19367  0.30508  1.0000
  S   S41       1.0  0.17395  0.20869  0.28461  1.0000
  S   S42       1.0  0.12878  0.21113  0.32175  1.0000
  Fe  Fe23      1.0  0.17620  0.15114  0.30153  1.0000
  S   S43       1.0  0.19841  0.16227  0.28066  1.0000
  S   S44       1.0  0.17576  0.11936  0.31560  1.0000
  Fe  Fe24      1.0  0.20003  0.18757  0.29454  1.0000
  S   S45       1.0  0.23281  0.19333  0.29290  1.0000
  Fe  Fe25      1.0  0.17116  0.18269  0.27177  1.0000
  S   S46       1.0  0.17063  0.19269  0.24514  1.0000
  S   S47       1.0  0.17988  0.17476  0.31619  1.0000
  S   S48       1.0  0.14835  0.16932  0.29150  1.0000
  S   S49       1.0  0.23845  0.00311  0.33627  1.0000
  Fe  Fe26      1.0  0.28474  0.00212  0.35929  1.0000
  S   S50       1.0  0.25721  0.02658  0.36050  1.0000
  H   H167      1.0  0.21326  0.02826  0.28914  1.0000
  H   H168      1.0  0.24043  0.03792  0.26619  1.0000
  Fe  Fe27      1.0  0.25903  0.02688  0.33403  1.0000
  S   S51       1.0  0.25709  0.05488  0.31502  1.0000
  S   S52       1.0  0.28814  0.00437  0.33246  1.0000
  C   C137      1.0  0.28466  0.09351  0.33533  1.0000
  C   C138      1.0  0.99364  0.16446  0.41446  1.0000
  S   S53       1.0  0.29560  0.44948  0.36788  1.0000
  H   H169      1.0  0.04286  0.22725  0.29491  1.0000
  Fe  Fe28      1.0  0.29795  0.43430  0.34587  1.0000
  H   H170      1.0  0.02220  0.31054  0.43455  1.0000
  H   H171      1.0  0.06765  0.45509  0.42198  1.0000
  N   N11       1.0  0.00690  0.25029  0.30641  1.0000
  C   C139      1.0  0.23212  0.17117  0.23744  1.0000
  H   H172      1.0  0.28023  0.47601  0.45335  1.0000
  Fe  Fe29      1.0  0.29616  0.27253  0.30797  1.0000
  S   S54       1.0  0.26354  0.26663  0.31672  1.0000
  S   S55       1.0  0.30239  0.29259  0.28448  1.0000
  S   S56       1.0  0.20926  0.00305  0.37992  1.0000
  C   C140      1.0  0.25150  0.03132  0.27473  1.0000
  H   H173      1.0  0.30355  0.47110  0.40444  1.0000
  C   C141      1.0  0.06902  0.25590  0.31082  1.0000
  C   C142      1.0  0.20400  0.45903  0.41194  1.0000
  S   S57       1.0  0.18894  0.44642  0.42836  1.0000
  C   C143      1.0  0.26897  0.27189  0.22897  1.0000
  H   H174      1.0  0.08829  0.44510  0.43333  1.0000
  H   H175      1.0  0.02977  0.20484  0.43331  1.0000
  C   C144      1.0  0.21982  0.44727  0.40299  1.0000
  C   C145      1.0  0.24339  0.24209  0.24400  1.0000
  C   C146      1.0  0.25935  0.00816  0.43228  1.0000
  H   H176      1.0  0.22140  0.45861  0.44161  1.0000
  H   H177      1.0  0.22246  0.43079  0.40621  1.0000
  C   C147      1.0  0.30401  0.38435  0.33388  1.0000
  H   H178      1.0  0.02113  0.22313  0.41719  1.0000
  C   C148      1.0  0.00656  0.28157  0.41064  1.0000
  C   C149      1.0  0.31639  0.29621  0.22440  1.0000
  H   H179      1.0  0.05586  0.27940  0.32534  1.0000
  H   H180      1.0  0.01210  0.24800  0.43421  1.0000
  H   H181      1.0  0.99475  0.28246  0.30543  1.0000
  C   C150      1.0  0.22592  0.13016  0.33314  1.0000
  H   H182      1.0  0.25443  0.47775  0.28734  1.0000
  C   C151      1.0  0.27682  0.47508  0.44162  1.0000
  H   H183      1.0  0.23157  0.17394  0.24966  1.0000
  C   C152      1.0  0.01973  0.29046  0.41775  1.0000
  S   S58       1.0  0.13265  0.46872  0.44857  1.0000
  C   C153      1.0  0.24058  0.21438  0.29917  1.0000
  C   C154      1.0  0.26113  0.21742  0.29507  1.0000
  C   C155      1.0  0.26821  0.23354  0.30017  1.0000
  C   C156      1.0  0.25485  0.24666  0.30964  1.0000
  C   C157      1.0  0.23426  0.24368  0.31371  1.0000
  C   C158      1.0  0.22709  0.22766  0.30843  1.0000
  H   H184      1.0  0.27166  0.20725  0.28789  1.0000
  H   H185      1.0  0.28407  0.23570  0.29690  1.0000
  H   H186      1.0  0.22381  0.25375  0.32102  1.0000
  H   H187      1.0  0.21123  0.22547  0.31167  1.0000
  C   C159      1.0  0.30799  0.35036  0.32574  1.0000
  H   H188      1.0  0.25818  0.09863  0.32382  1.0000
  C   C160      1.0  0.16039  0.15806  0.23637  1.0000
  C   C161      1.0  0.31340  0.37983  0.30586  1.0000
  H   H189      1.0  0.15963  0.15152  0.24886  1.0000
  C   C162      1.0  0.19802  0.10095  0.31471  1.0000
  C   C163      1.0  0.19927  0.08374  0.32658  1.0000
  C   C164      1.0  0.21721  0.06933  0.32670  1.0000
  C   C165      1.0  0.23393  0.07196  0.31482  1.0000
  C   C166      1.0  0.23250  0.08887  0.30271  1.0000
  C   C167      1.0  0.21464  0.10342  0.30270  1.0000
  H   H190      1.0  0.18643  0.08168  0.33588  1.0000
  H   H191      1.0  0.21815  0.05631  0.33607  1.0000
  H   H192      1.0  0.24535  0.09089  0.29341  1.0000
  H   H193      1.0  0.21374  0.11651  0.29341  1.0000
  C   C168      1.0  0.06067  0.20393  0.33580  1.0000
  C   C169      1.0  0.07263  0.19403  0.32339  1.0000
  C   C170      1.0  0.09336  0.19644  0.31867  1.0000
  C   C171      1.0  0.10245  0.20853  0.32652  1.0000
  C   C172      1.0  0.09045  0.21852  0.33885  1.0000
  C   C173      1.0  0.06965  0.21631  0.34345  1.0000
  H   H194      1.0  0.06581  0.18444  0.31739  1.0000
  H   H195      1.0  0.10232  0.18889  0.30901  1.0000
  H   H196      1.0  0.09729  0.22799  0.34495  1.0000
  H   H197      1.0  0.06064  0.22404  0.35300  1.0000
  H   H198      1.0  0.25308  0.04367  0.28158  1.0000
  Fe  Fe30      1.0  0.27338  0.47400  0.35623  1.0000
  H   H199      1.0  0.30737  0.33415  0.32894  1.0000
  C   C174      1.0  0.06514  0.24146  0.30217  1.0000
  H   H200      1.0  0.22655  0.11446  0.33031  1.0000
  H   H201      1.0  0.00046  0.15385  0.46791  1.0000
  C   C175      1.0  0.25414  0.47423  0.42252  1.0000
  C   C176      1.0  0.07224  0.45315  0.43413  1.0000
  C   C177      1.0  0.15628  0.14678  0.22505  1.0000
  H   H202      1.0  0.31719  0.38639  0.29350  1.0000
  C   C178      1.0  0.03213  0.47633  0.43821  1.0000
  H   H203      1.0  0.03610  0.28721  0.41427  1.0000
  S   S59       1.0  0.27363  0.45756  0.33524  1.0000
  C   C179      1.0  0.21750  0.16101  0.23360  1.0000
  N   N12       1.0  0.25025  0.33456  0.31893  1.0000
  C   C180      1.0  0.26821  0.32664  0.30786  1.0000
  C   C181      1.0  0.24881  0.31922  0.33363  1.0000
  C   C182      1.0  0.23157  0.33576  0.31144  1.0000
  C   C183      1.0  0.25229  0.35523  0.32200  1.0000
  C   C184      1.0  0.25095  0.36031  0.33769  1.0000
  C   C185      1.0  0.25550  0.37115  0.30904  1.0000
  C   C186      1.0  0.25299  0.38001  0.34010  1.0000
  C   C187      1.0  0.25764  0.39074  0.31160  1.0000
  C   C188      1.0  0.25638  0.39515  0.32710  1.0000
  H   H204      1.0  0.28267  0.32689  0.31253  1.0000
  H   H205      1.0  0.26775  0.31058  0.30616  1.0000
  H   H206      1.0  0.26932  0.33567  0.29571  1.0000
  H   H207      1.0  0.26263  0.31737  0.33971  1.0000
  H   H208      1.0  0.24777  0.30373  0.33087  1.0000
  H   H209      1.0  0.23490  0.32336  0.34219  1.0000
  H   H210      1.0  0.23223  0.34580  0.29968  1.0000
  H   H211      1.0  0.22937  0.32036  0.30921  1.0000
  H   H212      1.0  0.21770  0.34200  0.31925  1.0000
  H   H213      1.0  0.24873  0.34930  0.34833  1.0000
  H   H214      1.0  0.25674  0.36849  0.29678  1.0000
  H   H215      1.0  0.25271  0.38345  0.35210  1.0000
  H   H216      1.0  0.26080  0.40244  0.30151  1.0000
  H   H217      1.0  0.25873  0.41013  0.32908  1.0000
  H   H218      1.0  0.08465  0.25688  0.31212  1.0000
  H   H219      1.0  0.22406  0.12908  0.34641  1.0000
  H   H220      1.0  0.23963  0.02155  0.39699  1.0000
  C   C189      1.0  0.25635  0.00250  0.46620  1.0000
  H   H221      1.0  0.15236  0.13154  0.22891  1.0000
  H   H222      1.0  0.32353  0.03329  0.35318  1.0000
  C   C190      1.0  0.99312  0.13828  0.43797  1.0000
  H   H223      1.0  0.24455  0.44740  0.38323  1.0000
  C   C191      1.0  0.24139  0.99771  0.27615  1.0000
  H   H224      1.0  0.25827  0.18640  0.22854  1.0000
  H   H225      1.0  0.21171  0.13912  0.32894  1.0000
  H   H226      1.0  0.17554  0.99168  0.43537  1.0000
  Fe  Fe31      1.0  0.03091  0.36677  0.46447  1.0000
  H   H227      1.0  0.25628  0.28063  0.23634  1.0000
  C   C192      1.0  0.30888  0.39267  0.31786  1.0000
  H   H228      1.0  0.30902  0.31199  0.22323  1.0000
  C   C193      1.0  0.24625  0.14039  0.30796  1.0000
  H   H229      1.0  0.27540  0.99881  0.28897  1.0000
  C   C194      1.0  0.23967  0.01946  0.41019  1.0000
  C   C195      1.0  0.23237  0.45665  0.38996  1.0000
  H   H230      1.0  0.23238  0.14927  0.30316  1.0000
  N   N13       1.0  0.24457  0.01333  0.28557  1.0000
  H   H231      1.0  0.23921  0.16163  0.34213  1.0000
  C   C196      1.0  0.21698  0.22179  0.24322  1.0000
  C   C197      1.0  0.30364  0.36315  0.33774  1.0000
  C   C198      1.0  0.20075  0.48033  0.40769  1.0000
  H   H232      1.0  0.22683  0.22626  0.26487  1.0000
  H   H233      1.0  0.27445  0.15097  0.34052  1.0000
  H   H234      1.0  0.02080  0.27708  0.32314  1.0000
  C   C199      1.0  0.20666  0.98941  0.39951  1.0000
  H   H235      1.0  0.01183  0.19910  0.42152  1.0000
  C   C200      1.0  0.05278  0.26854  0.31826  1.0000
  H   H236      1.0  0.11442  0.42019  0.45404  1.0000
  C   C201      1.0  0.10025  0.41532  0.46025  1.0000
  H   H237      1.0  0.26354  0.01554  0.30313  1.0000
  C   C202      1.0  0.22587  0.02099  0.29614  1.0000
  H   H238      1.0  0.24833  0.12498  0.30424  1.0000
  H   H239      1.0  0.29976  0.35665  0.35010  1.0000
  C   C203      1.0  0.29353  0.47343  0.42944  1.0000
  H   H240      1.0  0.22877  0.03279  0.30296  1.0000
  C   C204      1.0  0.21989  0.22571  0.22657  1.0000
  H   H241      1.0  0.30386  0.12895  0.35027  1.0000
  H   H242      1.0  0.10084  0.47550  0.42757  1.0000
  C   C205      1.0  0.00500  0.24971  0.28943  1.0000
  C   C206      1.0  0.00052  0.18373  0.45379  1.0000
  Fe  Fe32      1.0  0.32024  0.30849  0.29757  1.0000
  C   C207      1.0  0.24620  0.24708  0.22701  1.0000
  C   C208      1.0  0.03259  0.26700  0.31688  1.0000
  C   C209      1.0  0.25651  0.47561  0.43846  1.0000
  S   S60       1.0  0.00590  0.11657  0.44886  1.0000
  H   H243      1.0  0.20960  0.99442  0.28652  1.0000
  C   C210      1.0  0.27026  0.01446  0.45688  1.0000
  H   H244      1.0  0.23752  0.44536  0.45593  1.0000
  S   S61       1.0  0.00086  0.37488  0.45476  1.0000
  S   S62       1.0  0.00342  0.25110  0.35640  1.0000
  H   H245      1.0  0.23395  0.03452  0.41443  1.0000
  H   H246      1.0  0.03313  0.46034  0.43706  1.0000
  H   H247      1.0  0.26864  0.47182  0.39830  1.0000
  H   H248      1.0  0.01226  0.21725  0.31225  1.0000
  H   H249      1.0  0.00307  0.23069  0.32890  1.0000
  C   C211      1.0  0.27092  0.47264  0.41045  1.0000
  C   C212      1.0  0.99136  0.26730  0.31189  1.0000
  H   H250      1.0  0.32093  0.29552  0.24890  1.0000
  H   H251      1.0  0.99092  0.07925  0.43998  1.0000
  H   H252      1.0  0.25339  0.16962  0.32275  1.0000
  N   N14       1.0  0.24436  0.13953  0.32556  1.0000
  H   H253      1.0  0.26675  0.02745  0.26769  1.0000
  C   C213      1.0  0.18999  0.99586  0.41073  1.0000
  C   C214      1.0  0.26283  0.12697  0.33141  1.0000
  C   C215      1.0  0.22734  0.45994  0.45272  1.0000
  C   C216      1.0  0.25762  0.98953  0.26501  1.0000
  H   H254      1.0  0.01374  0.23565  0.28494  1.0000
  C   C217      1.0  0.29363  0.12254  0.34452  1.0000
  H   H255      1.0  0.22659  0.16980  0.32482  1.0000
  S   S63       1.0  0.30829  0.99988  0.37644  1.0000
  C   C218      1.0  0.26760  0.10586  0.32964  1.0000
  H   H256      1.0  0.09602  0.39906  0.44148  1.0000
  C   C219      1.0  0.07519  0.46919  0.45657  1.0000
  Fe  Fe33      1.0  0.31993  0.46737  0.35394  1.0000
  S   S64       1.0  0.29800  0.39977  0.34945  1.0000
  H   H257      1.0  0.20557  0.21242  0.24941  1.0000
  H   H258      1.0  0.22811  0.00927  0.41538  1.0000
  N   N15       1.0  0.12847  0.14639  0.35093  1.0000
  C   C220      1.0  0.12731  0.14791  0.33361  1.0000
  C   C221      1.0  0.13426  0.16569  0.35401  1.0000
  C   C222      1.0  0.14525  0.12956  0.35482  1.0000
  C   C223      1.0  0.10826  0.14326  0.36021  1.0000
  C   C224      1.0  0.10504  0.12531  0.37125  1.0000
  C   C225      1.0  0.09092  0.15844  0.35821  1.0000
  C   C226      1.0  0.08565  0.12299  0.37975  1.0000
  C   C227      1.0  0.07161  0.15594  0.36668  1.0000
  C   C228      1.0  0.06898  0.13826  0.37747  1.0000
  H   H259      1.0  0.11606  0.16103  0.32940  1.0000
  H   H260      1.0  0.14224  0.15020  0.32622  1.0000
  H   H261      1.0  0.12292  0.13376  0.33073  1.0000
  H   H262      1.0  0.12361  0.17947  0.34984  1.0000
  H   H263      1.0  0.14962  0.16832  0.34752  1.0000
  H   H264      1.0  0.13441  0.16558  0.36700  1.0000
  H   H265      1.0  0.14722  0.12763  0.36767  1.0000
  H   H266      1.0  0.14259  0.11475  0.35179  1.0000
  H   H267      1.0  0.16021  0.13258  0.34771  1.0000
  H   H268      1.0  0.11720  0.11283  0.37351  1.0000
  H   H269      1.0  0.09212  0.17241  0.34999  1.0000
  H   H270      1.0  0.08349  0.10922  0.38814  1.0000
  H   H271      1.0  0.05861  0.16780  0.36477  1.0000
  H   H272      1.0  0.05397  0.13640  0.38404  1.0000
  C   C229      1.0  0.29762  0.10181  0.34281  1.0000
  C   C230      1.0  0.00359  0.14763  0.42382  1.0000
  H   H273      1.0  0.06302  0.44235  0.44239  1.0000
  C   C231      1.0  0.08981  0.40332  0.45317  1.0000
  H   H274      1.0  0.22045  0.00849  0.30531  1.0000
  H   H275      1.0  0.09098  0.46091  0.45711  1.0000
  H   H276      1.0  0.01937  0.14167  0.41998  1.0000
  H   H277      1.0  0.21378  0.46091  0.46223  1.0000
  C   C232      1.0  0.22890  0.22971  0.25190  1.0000
  H   H278      1.0  0.25567  0.99092  0.30427  1.0000
  H   H279      1.0  0.20549  0.15605  0.24285  1.0000
  H   H280      1.0  0.08590  0.05751  0.46789  1.0000
  H   H281      1.0  0.25952  0.14801  0.30177  1.0000
  H   H282      1.0  0.01053  0.26322  0.28154  1.0000
  C   C233      1.0  0.24086  0.16099  0.32907  1.0000
  Fe  Fe34      1.0  0.23896  0.00072  0.36281  1.0000
  H   H283      1.0  0.01724  0.23148  0.45233  1.0000
  Fe  Fe35      1.0  0.00026  0.24767  0.38331  1.0000
  H   H284      1.0  0.99996  0.48129  0.43614  1.0000
  H   H285      1.0  0.26736  0.99231  0.39559  1.0000
  C   C234      1.0  0.04940  0.48510  0.44000  1.0000
  H   H286      1.0  0.30917  0.40898  0.31473  1.0000
  H   H287      1.0  0.00166  0.17128  0.40338  1.0000
  C   C235      1.0  0.07161  0.39650  0.46122  1.0000
  H   H288      1.0  0.28777  0.07738  0.33389  1.0000
  H   H289      1.0  0.25216  0.24757  0.25150  1.0000
  Fe  Fe36      1.0  0.16687  0.46185  0.44747  1.0000
  S   S65       1.0  0.31890  0.34313  0.29415  1.0000
  S   S66       1.0  0.01732  0.26450  0.39667  1.0000
  Fe  Fe37      1.0  0.99719  0.34156  0.46152  1.0000
  H   H290      1.0  0.22691  0.48418  0.33895  1.0000
  H   H291      1.0  0.07424  0.48356  0.46172  1.0000
  C   C236      1.0  0.27655  0.13505  0.33889  1.0000
  S   S67       1.0  0.31184  0.29016  0.32138  1.0000
  C   C237      1.0  0.01191  0.30366  0.42927  1.0000
  H   H292      1.0  0.17862  0.00860  0.40710  1.0000
  C   C238      1.0  0.16523  0.17787  0.23150  1.0000
  H   H293      1.0  0.12942  0.37731  0.46892  1.0000
  C   C239      1.0  0.01616  0.21126  0.42720  1.0000
  N   N16       1.0  0.99879  0.22000  0.43845  1.0000
  C   C240      1.0  0.24713  0.17818  0.22551  1.0000
  C   C241      1.0  0.02809  0.25252  0.30799  1.0000
  C   C242      1.0  0.27457  0.02517  0.40599  1.0000
  H   H294      1.0  0.31082  0.09214  0.34726  1.0000
  C   C243      1.0  0.00541  0.23720  0.44428  1.0000
  H   H295      1.0  0.99253  0.24671  0.45085  1.0000
  H   H296      1.0  0.99074  0.09862  0.41583  1.0000
  Fe  Fe38      1.0  0.29948  0.47484  0.32343  1.0000
  S   S68       1.0  0.02866  0.33292  0.46870  1.0000
  C   C244      1.0  0.00175  0.23088  0.31610  1.0000
  C   C245      1.0  0.04502  0.23946  0.30100  1.0000
  C   C246      1.0  0.22905  0.47791  0.38564  1.0000
  H   H297      1.0  0.27246  0.99447  0.26322  1.0000
  H   H298      1.0  0.28298  0.02666  0.43367  1.0000
  C   C247      1.0  0.26707  0.99093  0.40878  1.0000
  C   C248      1.0  0.31300  0.35863  0.30972  1.0000
  H   H299      1.0  0.27454  0.02713  0.39280  1.0000
  C   C249      1.0  0.99079  0.30805  0.43380  1.0000
  H   H300      1.0  0.24656  0.48404  0.31504  1.0000
  H   H301      1.0  0.27903  0.26151  0.23698  1.0000
  N   N17       1.0  0.23831  0.47787  0.45086  1.0000
  C   C250      1.0  0.27186  0.01729  0.44015  1.0000
  C   C251      1.0  0.22267  0.98963  0.27808  1.0000
  C   C252      1.0  0.24409  0.99314  0.45885  1.0000
  H   H302      1.0  0.06471  0.45954  0.46464  1.0000
  H   H303      1.0  0.27985  0.02161  0.46268  1.0000
  C   C253      1.0  0.24561  0.99582  0.44218  1.0000
  H   H304      1.0  0.29069  0.01912  0.40784  1.0000
  C   C254      1.0  0.99389  0.16994  0.46703  1.0000
  H   H305      1.0  0.30891  0.47316  0.43202  1.0000
  H   H306      1.0  0.23923  0.47450  0.41923  1.0000
  C   C255      1.0  0.99204  0.20487  0.45219  1.0000
  C   C256      1.0  0.29059  0.47226  0.41389  1.0000
  N   N18       1.0  0.07019  0.47321  0.44002  1.0000
  H   H307      1.0  0.27858  0.28325  0.22201  1.0000
  C   C257      1.0  0.24330  0.47947  0.46686  1.0000
  S   S69       1.0  0.30432  0.48554  0.29653  1.0000
  H   H308      1.0  0.23582  0.98808  0.43715  1.0000
  C   C258      1.0  0.32301  0.28688  0.23899  1.0000
  C   C259      1.0  0.08557  0.48501  0.42966  1.0000
  H   H309      1.0  0.25319  0.46543  0.47165  1.0000
  Fe  Fe39      1.0  0.02923  0.21478  0.60640  1.0000
  H   H310      1.0  0.07252  0.19807  0.68216  1.0000
  S   S70       1.0  0.05939  0.21369  0.61594  1.0000
  Fe  Fe40      1.0  0.01116  0.19415  0.58282  1.0000
  S   S71       1.0  0.02130  0.17449  0.56259  1.0000
  H   H311      1.0  0.07111  0.31668  0.51663  1.0000
  H   H312      1.0  0.02470  0.05916  0.55043  1.0000
  S   S72       1.0  0.02615  0.22246  0.58013  1.0000
  S   S73       1.0  0.01712  0.18500  0.60834  1.0000
  C   C260      1.0  0.01561  0.25499  0.71656  1.0000
  C   C261      1.0  0.02105  0.25586  0.49862  1.0000
  C   C262      1.0  0.07637  0.29215  0.61035  1.0000
  Fe  Fe41      1.0  0.01312  0.33839  0.49336  1.0000
  S   S74       1.0  0.02680  0.31560  0.51303  1.0000
  H   H313      1.0  0.17417  0.11948  0.68816  1.0000
  C   C263      1.0  0.00186  0.22476  0.54540  1.0000
  H   H314      1.0  0.08390  0.33081  0.48227  1.0000
  C   C264      1.0  0.99596  0.17982  0.67365  1.0000
  Fe  Fe42      1.0  0.10320  0.24622  0.68938  1.0000
  S   S75       1.0  0.11165  0.22322  0.71066  1.0000
  S   S76       1.0  0.07471  0.24863  0.67730  1.0000
  Fe  Fe43      1.0  0.13402  0.27428  0.69329  1.0000
  C   C265      1.0  0.08387  0.32607  0.51380  1.0000
  S   S77       1.0  0.14348  0.30566  0.68390  1.0000
  Fe  Fe44      1.0  0.14428  0.22783  0.70048  1.0000
  S   S78       1.0  0.17439  0.20650  0.69655  1.0000
  C   C266      1.0  0.00211  0.14779  0.52942  1.0000
  S   S79       1.0  0.13565  0.24917  0.67842  1.0000
  S   S80       1.0  0.10094  0.27319  0.70242  1.0000
  H   H315      1.0  0.24116  0.99437  0.52521  1.0000
  H   H316      1.0  0.21956  0.05939  0.69752  1.0000
  C   C267      1.0  0.06103  0.05357  0.48715  1.0000
  H   H317      1.0  0.23598  0.07692  0.68731  1.0000
  S   S81       1.0  0.24477  0.37532  0.69774  1.0000
  C   C268      1.0  0.05624  0.00064  0.47390  1.0000
  H   H318      1.0  0.04108  0.00385  0.48126  1.0000
  H   H319      1.0  0.09742  0.31674  0.50777  1.0000
  Fe  Fe45      1.0  0.23086  0.40787  0.70065  1.0000
  S   S82       1.0  0.22698  0.43727  0.68297  1.0000
  C   C269      1.0  0.19058  0.47095  0.58854  1.0000
  C   C270      1.0  0.20556  0.10749  0.67821  1.0000
  H   H320      1.0  0.99642  0.21359  0.55568  1.0000
  H   H321      1.0  0.06576  0.01120  0.47688  1.0000
  H   H322      1.0  0.01943  0.08432  0.52674  1.0000
  S   S83       1.0  0.25805  0.10205  0.70304  1.0000
  Fe  Fe46      1.0  0.26636  0.06820  0.71063  1.0000
  S   S84       1.0  0.27193  0.04233  0.69516  1.0000
  S   S85       1.0  0.25577  0.45777  0.60786  1.0000
  C   C271      1.0  0.06841  0.02622  0.50865  1.0000
  Fe  Fe47      1.0  0.27238  0.00955  0.60922  1.0000
  N   N19       1.0  0.00919  0.19551  0.66616  1.0000
  S   S86       1.0  0.26417  0.03771  0.62234  1.0000
  C   C272      1.0  0.03655  0.25226  0.71724  1.0000
  H   H323      1.0  0.99954  0.20405  0.52212  1.0000
  H   H324      1.0  0.30759  0.20421  0.71329  1.0000
  C   C273      1.0  0.08830  0.02128  0.50071  1.0000
  S   S87       1.0  0.28400  0.01480  0.58272  1.0000
  C   C274      1.0  0.26976  0.04156  0.67483  1.0000
  C   C275      1.0  0.26669  0.05931  0.66376  1.0000
  C   C276      1.0  0.26479  0.05784  0.64781  1.0000
  C   C277      1.0  0.26641  0.03864  0.64263  1.0000
  C   C278      1.0  0.26996  0.02089  0.65360  1.0000
  C   C279      1.0  0.27153  0.02237  0.66960  1.0000
  H   H325      1.0  0.26602  0.07414  0.66743  1.0000
  H   H326      1.0  0.26227  0.07167  0.63937  1.0000
  H   H327      1.0  0.27125  0.00602  0.64981  1.0000
  H   H328      1.0  0.27406  0.00853  0.67803  1.0000
  H   H329      1.0  0.30176  0.37407  0.66254  1.0000
  Fe  Fe48      1.0  0.30893  0.98902  0.58841  1.0000
  H   H330      1.0  0.00773  0.07770  0.56124  1.0000
  H   H331      1.0  0.05834  0.33204  0.49211  1.0000
  C   C280      1.0  0.23468  0.44223  0.66198  1.0000
  C   C281      1.0  0.23213  0.46265  0.65441  1.0000
  C   C282      1.0  0.23822  0.46755  0.63785  1.0000
  C   C283      1.0  0.24699  0.45205  0.62862  1.0000
  C   C284      1.0  0.24940  0.43157  0.63615  1.0000
  C   C285      1.0  0.24328  0.42666  0.65276  1.0000
  H   H332      1.0  0.22547  0.47482  0.66140  1.0000
  H   H333      1.0  0.09391  0.33111  0.62174  1.0000
  H   H334      1.0  0.25626  0.41948  0.62913  1.0000
  H   H335      1.0  0.24515  0.41088  0.65838  1.0000
  C   C286      1.0  0.28664  0.41251  0.68513  1.0000
  H   H336      1.0  0.10019  0.26629  0.64115  1.0000
  Fe  Fe49      1.0  0.99469  0.23803  0.58825  1.0000
  H   H337      1.0  0.04955  0.39749  0.48244  1.0000
  C   C287      1.0  0.08024  0.31187  0.61073  1.0000
  H   H338      1.0  0.12303  0.32963  0.63354  1.0000
  C   C288      1.0  0.00208  0.44850  0.47978  1.0000
  H   H339      1.0  0.19144  0.42974  0.59376  1.0000
  Fe  Fe50      1.0  0.21935  0.36619  0.71707  1.0000
  H   H340      1.0  0.09454  0.20849  0.63213  1.0000
  H   H341      1.0  0.12330  0.32563  0.65466  1.0000
  C   C289      1.0  0.18095  0.18101  0.70563  1.0000
  C   C290      1.0  0.20156  0.17200  0.70345  1.0000
  H   H342      1.0  0.21262  0.43767  0.60051  1.0000
  H   H343      1.0  0.01029  0.25689  0.70502  1.0000
  H   H344      1.0  0.23421  0.45107  0.56667  1.0000
  H   H345      1.0  0.21298  0.18090  0.69669  1.0000
  H   H346      1.0  0.19769  0.47210  0.59919  1.0000
  C   C291      1.0  0.99606  0.21519  0.66169  1.0000
  C   C292      1.0  0.16182  0.31409  0.69308  1.0000
  C   C293      1.0  0.17363  0.30042  0.70336  1.0000
  C   C294      1.0  0.00983  0.27526  0.49546  1.0000
  Fe  Fe51      1.0  0.27855  0.10595  0.72059  1.0000
  C   C295      1.0  0.17831  0.34201  0.69802  1.0000
  C   C296      1.0  0.16437  0.33489  0.69030  1.0000
  C   C297      1.0  0.19020  0.14373  0.67698  1.0000
  C   C298      1.0  0.03315  0.10631  0.55542  1.0000
  H   H347      1.0  0.05253  0.08354  0.51486  1.0000
  C   C299      1.0  0.05524  0.08106  0.54044  1.0000
  H   H348      1.0  0.27640  0.38764  0.66678  1.0000
  C   C300      1.0  0.16627  0.16931  0.71425  1.0000
  S   S88       1.0  0.03015  0.04838  0.51251  1.0000
  H   H349      1.0  0.31420  0.05699  0.56112  1.0000
  C   C301      1.0  0.09276  0.42026  0.47561  1.0000
  H   H350      1.0  0.09946  0.27935  0.66434  1.0000
  C   C302      1.0  0.08102  0.04872  0.47926  1.0000
  C   C303      1.0  0.18439  0.08082  0.69162  1.0000
  C   C304      1.0  0.02106  0.09682  0.53331  1.0000
  S   S89       1.0  0.10591  0.43413  0.48556  1.0000
  H   H351      1.0  0.02998  0.20033  0.64417  1.0000
  C   C305      1.0  0.02411  0.07247  0.55693  1.0000
  C   C306      1.0  0.06965  0.07418  0.55135  1.0000
  H   H352      1.0  0.00443  0.23833  0.55032  1.0000
  C   C307      1.0  0.09158  0.31547  0.62208  1.0000
  Fe  Fe52      1.0  0.99275  0.10413  0.47390  1.0000
  C   C308      1.0  0.01408  0.27596  0.55337  1.0000
  C   C309      1.0  0.02412  0.28672  0.53963  1.0000
  C   C310      1.0  0.01318  0.30245  0.53000  1.0000
  C   C311      1.0  0.05603  0.19924  0.68525  1.0000
  C   C312      1.0  0.18865  0.12293  0.68161  1.0000
  H   H353      1.0  0.02274  0.26405  0.56075  1.0000
  H   H354      1.0  0.04047  0.28285  0.53649  1.0000
  H   H355      1.0  0.00516  0.10336  0.53796  1.0000
  C   C313      1.0  0.01396  0.15664  0.53783  1.0000
  H   H356      1.0  0.02985  0.15756  0.53318  1.0000
  H   H357      1.0  0.06531  0.07483  0.56401  1.0000
  C   C314      1.0  0.06340  0.22373  0.63292  1.0000
  C   C315      1.0  0.04810  0.23681  0.64101  1.0000
  C   C316      1.0  0.05191  0.24436  0.65450  1.0000
  C   C317      1.0  0.07105  0.23905  0.66000  1.0000
  C   C318      1.0  0.08643  0.22614  0.65183  1.0000
  C   C319      1.0  0.08259  0.21853  0.63836  1.0000
  H   H358      1.0  0.03341  0.24123  0.63677  1.0000
  H   H359      1.0  0.03994  0.25438  0.66072  1.0000
  H   H360      1.0  0.10121  0.22187  0.65594  1.0000
  H   H361      1.0  0.01717  0.11370  0.55900  1.0000
  H   H362      1.0  0.28985  0.37364  0.68273  1.0000
  H   H363      1.0  0.06260  0.35954  0.52433  1.0000
  H   H364      1.0  0.21769  0.42861  0.55717  1.0000
  H   H365      1.0  0.11191  0.05782  0.52607  1.0000
  H   H366      1.0  0.30259  0.05504  0.62591  1.0000
  H   H367      1.0  0.03584  0.25212  0.49160  1.0000
  C   C320      1.0  0.12804  0.38119  0.49348  1.0000
  C   C321      1.0  0.22540  0.13510  0.66563  1.0000
  H   H368      1.0  0.04153  0.11848  0.54811  1.0000
  H   H369      1.0  0.21718  0.42396  0.58391  1.0000
  H   H370      1.0  0.23629  0.48337  0.63224  1.0000
  H   H371      1.0  0.20974  0.16599  0.66598  1.0000
  H   H372      1.0  0.21720  0.20789  0.71975  1.0000
  H   H373      1.0  0.19339  0.44870  0.71052  1.0000
  H   H374      1.0  0.00876  0.14231  0.51824  1.0000
  C   C322      1.0  0.01348  0.24146  0.51099  1.0000
  C   C323      1.0  0.21336  0.48086  0.51803  1.0000
  H   H375      1.0  0.05061  0.06610  0.48189  1.0000
  C   C324      1.0  0.32068  0.39634  0.67710  1.0000
  C   C325      1.0  0.04409  0.19631  0.67408  1.0000
  C   C326      1.0  0.22015  0.07600  0.69336  1.0000
  S   S90       1.0  0.99380  0.06997  0.47955  1.0000
  H   H376      1.0  0.18417  0.06403  0.69501  1.0000
  C   C327      1.0  0.20616  0.43586  0.58968  1.0000
  C   C328      1.0  0.31326  0.40822  0.64273  1.0000
  H   H377      1.0  0.31561  0.01529  0.64643  1.0000
  H   H378      1.0  0.21795  0.08390  0.70409  1.0000
  C   C329      1.0  0.22326  0.46239  0.57312  1.0000
  H   H379      1.0  0.03183  0.06674  0.56769  1.0000
  H   H380      1.0  0.04737  0.25212  0.70633  1.0000
  H   H381      1.0  0.22650  0.45599  0.71362  1.0000
  S   S91       1.0  0.19245  0.47141  0.49573  1.0000
  H   H382      1.0  0.28452  0.46381  0.63768  1.0000
  H   H383      1.0  0.17503  0.46691  0.59309  1.0000
  H   H384      1.0  0.17187  0.08674  0.68423  1.0000
  N   N20       1.0  0.11109  0.30239  0.64588  1.0000
  C   C330      1.0  0.02237  0.47434  0.48148  1.0000
  H   H385      1.0  0.19748  0.08186  0.65983  1.0000
  N   N21       1.0  0.30004  0.40246  0.67215  1.0000
  H   H386      1.0  0.09947  0.33429  0.64722  1.0000
  S   S92       1.0  0.30045  0.12949  0.71255  1.0000
  H   H387      1.0  0.14025  0.29371  0.63206  1.0000
  C   C331      1.0  0.19505  0.48520  0.51123  1.0000
  C   C332      1.0  0.08987  0.06601  0.54619  1.0000
  H   H388      1.0  0.08396  0.30398  0.66335  1.0000
  C   C333      1.0  0.10248  0.36494  0.51229  1.0000
  C   C334      1.0  0.08381  0.27594  0.62130  1.0000
  Fe  Fe53      1.0  0.00699  0.07288  0.50127  1.0000
  Fe  Fe54      1.0  0.26557  0.99055  0.57992  1.0000
  H   H389      1.0  0.29235  0.42640  0.68719  1.0000
  S   S93       1.0  0.01749  0.37157  0.48949  1.0000
  C   C335      1.0  0.04686  0.20436  0.70016  1.0000
  C   C336      1.0  0.29283  0.44835  0.63921  1.0000
  C   C337      1.0  0.00542  0.16431  0.55220  1.0000
  C   C338      1.0  0.19376  0.45290  0.56492  1.0000
  C   C339      1.0  0.20752  0.15145  0.70975  1.0000
  H   H390      1.0  0.09877  0.00902  0.50613  1.0000
  C   C340      1.0  0.29168  0.38369  0.67094  1.0000
  H   H391      1.0  0.00526  0.16536  0.67844  1.0000
  H   H392      1.0  0.23748  0.10345  0.66710  1.0000
  H   H393      1.0  0.12293  0.38302  0.51863  1.0000
  H   H394      1.0  0.20781  0.05830  0.67123  1.0000
  C   C341      1.0  0.22909  0.98810  0.53360  1.0000
  H   H395      1.0  0.17730  0.15531  0.68003  1.0000
  N   N22       1.0  0.20310  0.45557  0.57884  1.0000
  S   S94       1.0  0.20400  0.39868  0.71844  1.0000
  Fe  Fe55      1.0  0.13106  0.45315  0.47393  1.0000
  H   H396      1.0  0.20791  0.47404  0.69390  1.0000
  H   H397      1.0  0.00548  0.22759  0.65678  1.0000
  H   H398      1.0  0.06366  0.01764  0.52015  1.0000
  C   C342      1.0  0.19285  0.13966  0.71817  1.0000
  H   H399      1.0  0.30463  0.44953  0.61422  1.0000
  S   S95       1.0  0.99875  0.23269  0.61446  1.0000
  C   C343      1.0  0.30269  0.33862  0.71810  1.0000
  S   S96       1.0  0.00889  0.10651  0.49445  1.0000
  H   H400      1.0  0.22342  0.14464  0.70780  1.0000
  H   H401      1.0  0.16752  0.47757  0.56689  1.0000
  H   H402      1.0  0.32229  0.05157  0.60923  1.0000
  H   H403      1.0  0.05224  0.19287  0.66263  1.0000
  H   H404      1.0  0.29346  0.22105  0.69904  1.0000
  C   C344      1.0  0.11428  0.32399  0.64518  1.0000
  S   S97       1.0  0.14458  0.25343  0.71449  1.0000
  H   H405      1.0  0.08070  0.26062  0.62100  1.0000
  H   H406      1.0  0.01697  0.21726  0.54009  1.0000
  H   H407      1.0  0.03114  0.17393  0.65358  1.0000
  H   H408      1.0  0.17121  0.44635  0.52683  1.0000
  C   C345      1.0  0.02080  0.18864  0.65116  1.0000
  H   H409      1.0  0.14094  0.29188  0.65321  1.0000
  H   H410      1.0  0.06748  0.28938  0.60161  1.0000
  C   C346      1.0  0.10004  0.29608  0.66196  1.0000
  C   C347      1.0  0.09506  0.27936  0.63274  1.0000
  C   C348      1.0  0.16730  0.46248  0.54713  1.0000
  C   C349      1.0  0.13159  0.28972  0.64412  1.0000
  H   H411      1.0  0.22561  0.46963  0.51351  1.0000
  Fe  Fe56      1.0  0.26124  0.37685  0.71824  1.0000
  C   C350      1.0  0.20864  0.07502  0.66826  1.0000
  H   H412      1.0  0.23974  0.13990  0.65968  1.0000
  H   H413      1.0  0.09548  0.36193  0.52458  1.0000
  H   H414      1.0  0.13070  0.27306  0.64577  1.0000
  C   C351      1.0  0.09934  0.29923  0.63349  1.0000
  C   C352      1.0  0.29130  0.43634  0.65426  1.0000
  H   H415      1.0  0.15536  0.34559  0.68231  1.0000
  C   C353      1.0  0.19520  0.43561  0.54145  1.0000
  C   C354      1.0  0.20854  0.14981  0.66909  1.0000
  H   H416      1.0  0.10756  0.29960  0.67164  1.0000
  H   H417      1.0  0.22418  0.07629  0.66162  1.0000
  H   H418      1.0  0.27059  0.41685  0.68249  1.0000
  C   C355      1.0  0.01355  0.20370  0.69295  1.0000
  H   H419      1.0  0.20312  0.42464  0.53367  1.0000
  H   H420      1.0  0.05624  0.20693  0.70862  1.0000
  H   H421      1.0  0.07429  0.32445  0.60221  1.0000
  H   H422      1.0  0.08762  0.06942  0.50652  1.0000
  C   C356      1.0  0.18749  0.30750  0.71107  1.0000
  C   C357      1.0  0.08261  0.07102  0.51903  1.0000
  C   C358      1.0  0.07442  0.41370  0.48353  1.0000
  H   H423      1.0  0.06661  0.35479  0.48093  1.0000
  H   H424      1.0  0.99715  0.20586  0.69639  1.0000
  H   H425      1.0  0.01038  0.18604  0.64304  1.0000
  H   H426      1.0  0.06845  0.41754  0.49538  1.0000
  H   H427      1.0  0.25507  0.00041  0.47916  1.0000
  H   H428      1.0  0.22164  0.47705  0.56482  1.0000
  H   H429      1.0  0.00092  0.43260  0.47940  1.0000
  H   H430      1.0  0.28603  0.40214  0.69674  1.0000
  S   S98       1.0  0.17305  0.99297  0.48469  1.0000
  C   C359      1.0  0.02566  0.20648  0.70404  1.0000
  C   C360      1.0  0.02240  0.19839  0.67765  1.0000
  C   C361      1.0  0.05473  0.04235  0.50191  1.0000
  H   H431      1.0  0.30979  0.03051  0.61947  1.0000
  N   N23       1.0  0.20453  0.08528  0.68281  1.0000
  H   H432      1.0  0.02771  0.10908  0.52465  1.0000
  C   C362      1.0  0.18981  0.32831  0.70856  1.0000
  N   N24       1.0  0.07810  0.34567  0.50353  1.0000
  C   C363      1.0  0.07156  0.34066  0.48904  1.0000
  H   H433      1.0  0.31015  0.03903  0.65399  1.0000
  C   C364      1.0  0.09549  0.35750  0.49986  1.0000
  C   C365      1.0  0.17221  0.14864  0.72042  1.0000
  C   C366      1.0  0.09631  0.06439  0.53006  1.0000
  H   H434      1.0  0.17219  0.28433  0.70533  1.0000
  H   H435      1.0  0.18076  0.08765  0.70300  1.0000
  H   H436      1.0  0.10059  0.06075  0.55474  1.0000
  H   H437      1.0  0.17992  0.35809  0.69603  1.0000
  H   H438      1.0  0.03998  0.10142  0.56667  1.0000
  C   C367      1.0  0.09470  0.03251  0.48599  1.0000
  H   H439      1.0  0.32005  0.38677  0.68914  1.0000
  C   C368      1.0  0.06237  0.07921  0.52405  1.0000
  N   N25       1.0  0.03377  0.08909  0.54631  1.0000
  C   C369      1.0  0.06013  0.35754  0.51221  1.0000
  C   C370      1.0  0.22396  0.11425  0.67001  1.0000
  Fe  Fe57      1.0  0.13930  0.99663  0.48291  1.0000
  S   S99       1.0  0.13216  0.48147  0.48477  1.0000
  S   S100      1.0  0.25162  0.98766  0.60592  1.0000
  H   H440      1.0  0.05627  0.37304  0.50545  1.0000
  S   S101      1.0  0.25176  0.99266  0.55661  1.0000
  C   C371      1.0  0.99099  0.28030  0.50459  1.0000
  C   C372      1.0  0.06376  0.40215  0.47630  1.0000
  H   H441      1.0  0.28161  0.44343  0.66384  1.0000
  C   C373      1.0  0.31447  0.42032  0.62770  1.0000
  C   C374      1.0  0.31597  0.04427  0.62125  1.0000
  H   H442      1.0  0.02281  0.22667  0.51310  1.0000
  S   S102      1.0  0.24940  0.41014  0.71978  1.0000
  C   C375      1.0  0.30416  0.44031  0.62594  1.0000
  H   H443      1.0  0.08766  0.32849  0.52544  1.0000
  C   C376      1.0  0.20341  0.43806  0.55491  1.0000
  C   C377      1.0  0.28872  0.32594  0.71669  1.0000
  H   H444      1.0  0.31733  0.02399  0.55097  1.0000
  H   H445      1.0  0.23064  0.46497  0.58321  1.0000
  H   H446      1.0  0.04630  0.34980  0.51408  1.0000
  H   H447      1.0  0.01860  0.21046  0.71568  1.0000
  H   H448      1.0  0.01586  0.28660  0.48609  1.0000
  C   C378      1.0  0.30143  0.41577  0.65646  1.0000
  C   C379      1.0  0.17547  0.46522  0.56053  1.0000
  Fe  Fe58      1.0  0.16660  0.47362  0.48067  1.0000
  H   H449      1.0  0.03696  0.47863  0.48246  1.0000
  C   C380      1.0  0.10593  0.36201  0.48410  1.0000
  C   C381      1.0  0.31541  0.29612  0.71825  1.0000
  C   C382      1.0  0.99204  0.30741  0.53422  1.0000
  H   H450      1.0  0.26757  0.24974  0.70806  1.0000
  C   C383      1.0  0.32266  0.02869  0.64777  1.0000
  C   C384      1.0  0.17716  0.44777  0.53760  1.0000
  S   S103      1.0  0.11954  0.02671  0.47569  1.0000
  H   H451      1.0  0.15035  0.17609  0.71594  1.0000
  H   H452      1.0  0.13989  0.39094  0.49092  1.0000
  C   C385      1.0  0.24632  0.21671  0.72136  1.0000
  H   H453      1.0  0.15371  0.47245  0.54370  1.0000
  H   H454      1.0  0.32150  0.39281  0.64348  1.0000
  C   C386      1.0  0.99443  0.24617  0.52068  1.0000
  C   C387      1.0  0.29509  0.30480  0.71670  1.0000
  C   C388      1.0  0.02093  0.45400  0.48072  1.0000
  C   C389      1.0  0.12205  0.37355  0.48108  1.0000
  H   H455      1.0  0.03435  0.44239  0.48106  1.0000
  H   H456      1.0  0.28443  0.25661  0.71960  1.0000
  H   H457      1.0  0.24039  0.23261  0.71800  1.0000
  C   C390      1.0  0.99294  0.28081  0.55760  1.0000
  H   H458      1.0  0.22927  0.48119  0.47586  1.0000
  H   H459      1.0  0.32326  0.41414  0.61730  1.0000
  H   H460      1.0  0.09579  0.98824  0.47325  1.0000
  H   H461      1.0  0.28415  0.29517  0.71553  1.0000
  H   H462      1.0  0.27299  0.33241  0.71555  1.0000
  S   S104      1.0  0.32256  0.26945  0.71814  1.0000
  S   S105      1.0  0.29507  0.36525  0.71796  1.0000
  H   H463      1.0  0.19642  0.29678  0.71911  1.0000
  H   H464      1.0  0.31036  0.23069  0.70939  1.0000
  S   S106      1.0  0.20623  0.33630  0.71979  1.0000
  C   C391      1.0  0.29901  0.21988  0.71077  1.0000
  C   C392      1.0  0.11835  0.37681  0.50907  1.0000
  C   C393      1.0  0.32309  0.33003  0.71945  1.0000
  H   H465      1.0  0.32346  0.06845  0.64087  1.0000
  C   C394      1.0  0.27292  0.24628  0.71999  1.0000
  H   H466      1.0  0.10161  0.35736  0.47377  1.0000
  S   S107      1.0  0.16512  0.44381  0.47218  1.0000
  C   C395      1.0  0.07950  0.39772  0.96219  1.0000
  Fe  Fe59      1.0  0.01461  0.22691  0.81648  1.0000
  S   S108      1.0  0.03983  0.21158  0.79956  1.0000
  S   S109      1.0  0.19979  0.11353  0.72551  1.0000
  S   S110      1.0  0.01385  0.22788  0.84289  1.0000
  H   H467      1.0  0.29706  0.46462  0.92499  1.0000
  H   H468      1.0  0.09132  0.40735  0.95838  1.0000
  Fe  Fe60      1.0  0.05045  0.36858  0.88262  1.0000
  S   S111      1.0  0.05922  0.39831  0.86893  1.0000
  S   S112      1.0  0.05357  0.33937  0.87097  1.0000
  Fe  Fe61      1.0  0.04885  0.38414  0.91497  1.0000
  S   S113      1.0  0.05787  0.41480  0.90375  1.0000
  S   S114      1.0  0.04094  0.37288  0.94144  1.0000
  Fe  Fe62      1.0  0.03568  0.41399  0.88679  1.0000
  S   S115      1.0  0.99229  0.28835  0.84950  1.0000
  Fe  Fe63      1.0  0.08065  0.39700  0.88677  1.0000
  S   S116      1.0  0.11435  0.39894  0.87837  1.0000
  S   S117      1.0  0.02506  0.38442  0.89908  1.0000
  S   S118      1.0  0.07348  0.36637  0.89952  1.0000
  S   S119      1.0  0.20779  0.41414  0.75933  1.0000
  H   H469      1.0  0.24333  0.01013  0.81969  1.0000
  H   H470      1.0  0.10873  0.33727  0.75950  1.0000
  C   C396      1.0  0.27524  0.34253  0.76581  1.0000
  S   S120      1.0  0.21719  0.45559  0.85377  1.0000
  C   C397      1.0  0.11929  0.47072  0.83746  1.0000
  C   C398      1.0  0.08904  0.30518  0.79082  1.0000
  Fe  Fe64      1.0  0.22624  0.47359  0.82956  1.0000
  S   S121      1.0  0.24165  0.46224  0.80592  1.0000
  H   H471      1.0  0.30414  0.04602  0.82701  1.0000
  H   H472      1.0  0.30834  0.99281  0.92479  1.0000
  H   H473      1.0  0.12190  0.27091  0.77085  1.0000
  H   H474      1.0  0.29902  0.98954  0.80991  1.0000
  Fe  Fe65      1.0  0.19032  0.48086  0.85599  1.0000
  C   C399      1.0  0.20706  0.04468  0.77336  1.0000
  Fe  Fe66      1.0  0.26176  0.07311  0.74640  1.0000
  S   S122      1.0  0.23691  0.36600  0.73745  1.0000
  S   S123      1.0  0.25990  0.06113  0.77309  1.0000
  H   H475      1.0  0.14069  0.33507  0.74693  1.0000
  C   C400      1.0  0.25589  0.99554  0.79894  1.0000
  S   S124      1.0  0.25318  0.10745  0.74123  1.0000
  H   H476      1.0  0.15639  0.41848  0.96143  1.0000
  C   C401      1.0  0.14638  0.28381  0.74671  1.0000
  C   C402      1.0  0.24941  0.01244  0.80714  1.0000
  C   C403      1.0  0.25060  0.03243  0.79902  1.0000
  C   C404      1.0  0.25757  0.03578  0.78251  1.0000
  C   C405      1.0  0.26313  0.01896  0.77413  1.0000
  C   C406      1.0  0.26243  0.99893  0.78236  1.0000
  C   C407      1.0  0.99989  0.47963  0.91116  1.0000
  H   H477      1.0  0.24601  0.04537  0.80555  1.0000
  H   H478      1.0  0.26853  0.02131  0.76143  1.0000
  C   C408      1.0  0.09248  0.32330  0.78083  1.0000
  C   C409      1.0  0.23195  0.44863  0.79327  1.0000
  C   C410      1.0  0.21182  0.44440  0.79616  1.0000
  C   C411      1.0  0.20478  0.43376  0.78569  1.0000
  C   C412      1.0  0.21775  0.42708  0.77227  1.0000
  C   C413      1.0  0.23785  0.43141  0.76931  1.0000
  C   C414      1.0  0.24486  0.44215  0.77973  1.0000
  H   H479      1.0  0.20169  0.44925  0.80650  1.0000
  H   H480      1.0  0.18920  0.43053  0.78811  1.0000
  H   H481      1.0  0.24803  0.42642  0.75905  1.0000
  H   H482      1.0  0.26047  0.44530  0.77737  1.0000
  C   C415      1.0  0.01054  0.46736  0.96983  1.0000
  C   C416      1.0  0.29687  0.31083  0.76050  1.0000
  C   C417      1.0  0.09997  0.28656  0.78701  1.0000
  H   H483      1.0  0.29481  0.00933  0.86279  1.0000
  H   H484      1.0  0.99214  0.32902  0.93767  1.0000
  C   C418      1.0  0.05382  0.38008  0.95562  1.0000
  C   C419      1.0  0.06905  0.39258  0.95078  1.0000
  H   H485      1.0  0.07265  0.39830  0.93824  1.0000
  C   C420      1.0  0.12602  0.42133  0.87541  1.0000
  C   C421      1.0  0.14673  0.42034  0.86877  1.0000
  C   C422      1.0  0.15651  0.43788  0.86605  1.0000
  C   C423      1.0  0.14563  0.45654  0.87002  1.0000
  C   C424      1.0  0.12502  0.45741  0.87701  1.0000
  C   C425      1.0  0.11525  0.43987  0.87971  1.0000
  H   H486      1.0  0.15518  0.40601  0.86546  1.0000
  H   H487      1.0  0.17237  0.43703  0.86067  1.0000
  C   C426      1.0  0.00199  0.32070  0.86157  1.0000
  H   H488      1.0  0.09942  0.44067  0.88502  1.0000
  C   C427      1.0  0.11863  0.30420  0.76293  1.0000
  H   H489      1.0  0.01890  0.41890  0.94869  1.0000
  H   H490      1.0  0.99709  0.28637  0.76012  1.0000
  H   H491      1.0  0.12792  0.35910  0.92539  1.0000
  H   H492      1.0  0.00877  0.34610  0.87158  1.0000
  C   C428      1.0  0.27791  0.46424  0.90703  1.0000
  C   C429      1.0  0.02298  0.29269  0.90384  1.0000
  H   H493      1.0  0.26433  0.01584  0.83770  1.0000
  H   H494      1.0  0.27381  0.44933  0.91212  1.0000
  C   C430      1.0  0.99804  0.99740  0.89007  1.0000
  C   C431      1.0  0.11450  0.28595  0.77327  1.0000
  H   H495      1.0  0.99516  0.22196  0.76673  1.0000
  C   C432      1.0  0.00206  0.44910  0.95014  1.0000
  C   C433      1.0  0.04811  0.46336  0.84667  1.0000
  C   C434      1.0  0.14494  0.40591  0.94357  1.0000
  C   C435      1.0  0.30839  0.03537  0.78934  1.0000
  N   N26       1.0  0.13386  0.30417  0.74824  1.0000
  H   H496      1.0  0.15637  0.40377  0.91113  1.0000
  H   H497      1.0  0.27011  0.99438  0.85257  1.0000
  H   H498      1.0  0.08088  0.43190  0.84938  1.0000
  C   C436      1.0  0.11119  0.43655  0.83960  1.0000
  H   H499      1.0  0.16068  0.31822  0.73772  1.0000
  H   H500      1.0  0.05992  0.24773  0.73246  1.0000
  H   H501      1.0  0.02897  0.99370  0.87775  1.0000
  C   C437      1.0  0.03618  0.32563  0.86492  1.0000
  C   C438      1.0  0.04397  0.30743  0.85833  1.0000
  C   C439      1.0  0.03090  0.29593  0.85338  1.0000
  C   C440      1.0  0.00977  0.30249  0.85497  1.0000
  S   S125      1.0  0.09662  0.26157  0.74623  1.0000
  C   C441      1.0  0.01506  0.33217  0.86656  1.0000
  H   H502      1.0  0.06027  0.30219  0.85701  1.0000
  H   H503      1.0  0.03715  0.28195  0.84841  1.0000
  S   S126      1.0  0.28871  0.07198  0.72676  1.0000
  H   H504      1.0  0.09688  0.27240  0.79458  1.0000
  C   C442      1.0  0.30464  0.03660  0.81783  1.0000
  H   H505      1.0  0.22279  0.44632  0.73444  1.0000
  C   C443      1.0  0.08060  0.24754  0.76072  1.0000
  C   C444      1.0  0.08026  0.22677  0.76051  1.0000
  C   C445      1.0  0.06771  0.21591  0.77257  1.0000
  C   C446      1.0  0.05529  0.22579  0.78475  1.0000
  C   C447      1.0  0.05535  0.24666  0.78479  1.0000
  C   C448      1.0  0.06807  0.25747  0.77284  1.0000
  H   H506      1.0  0.08991  0.21900  0.75124  1.0000
  H   H507      1.0  0.06769  0.19974  0.77252  1.0000
  H   H508      1.0  0.04586  0.25436  0.79417  1.0000
  C   C449      1.0  0.14823  0.31888  0.74807  1.0000
  N   N27       1.0  0.19181  0.08116  0.77640  1.0000
  C   C450      1.0  0.18136  0.08374  0.76203  1.0000
  C   C451      1.0  0.17892  0.09415  0.78784  1.0000
  C   C452      1.0  0.21159  0.08913  0.77166  1.0000
  C   C453      1.0  0.19556  0.05914  0.78304  1.0000
  C   C454      1.0  0.18817  0.05137  0.79909  1.0000
  C   C455      1.0  0.18690  0.45354  0.72238  1.0000
  H   H509      1.0  0.19233  0.45661  0.75172  1.0000
  H   H510      1.0  0.05097  0.46786  0.83348  1.0000
  H   H511      1.0  0.29909  0.20633  0.74178  1.0000
  H   H512      1.0  0.16702  0.07677  0.76480  1.0000
  H   H513      1.0  0.17734  0.10022  0.75719  1.0000
  H   H514      1.0  0.19117  0.07668  0.75198  1.0000
  H   H515      1.0  0.16358  0.08927  0.79168  1.0000
  H   H516      1.0  0.17627  0.11055  0.78239  1.0000
  H   H517      1.0  0.18641  0.09378  0.79861  1.0000
  H   H518      1.0  0.22160  0.08125  0.76216  1.0000
  H   H519      1.0  0.20949  0.10575  0.76678  1.0000
  H   H520      1.0  0.22035  0.08689  0.78198  1.0000
  H   H521      1.0  0.17946  0.06110  0.80746  1.0000
  C   C456      1.0  0.03527  0.33070  0.91096  1.0000
  H   H522      1.0  0.29949  0.29767  0.75420  1.0000
  C   C457      1.0  0.23907  0.18175  0.72650  1.0000
  H   H523      1.0  0.13684  0.27227  0.74539  1.0000
  H   H524      1.0  0.06233  0.46294  0.97023  1.0000
  H   H525      1.0  0.22911  0.47173  0.72805  1.0000
  H   H526      1.0  0.03917  0.41995  0.96961  1.0000
  H   H527      1.0  0.11445  0.32615  0.73367  1.0000
  H   H528      1.0  0.18775  0.43923  0.73119  1.0000
  H   H529      1.0  0.31385  0.02179  0.84933  1.0000
  H   H530      1.0  0.15001  0.41768  0.93422  1.0000
  H   H531      1.0  0.27757  0.22380  0.74916  1.0000
  C   C458      1.0  0.02971  0.25017  0.74606  1.0000
  N   N28       1.0  0.06283  0.47077  0.85482  1.0000
  C   C459      1.0  0.30598  0.33149  0.77824  1.0000
  Fe  Fe67      1.0  0.11146  0.25074  0.72282  1.0000
  H   H532      1.0  0.26177  0.35367  0.76391  1.0000
  N   N29       1.0  0.28177  0.22437  0.72359  1.0000
  H   H533      1.0  0.17367  0.47734  0.74533  1.0000
  C   C460      1.0  0.04359  0.24976  0.73197  1.0000
  C   C461      1.0  0.06017  0.46196  0.87196  1.0000
  C   C462      1.0  0.01034  0.30804  0.91210  1.0000
  H   H534      1.0  0.99317  0.44856  0.94074  1.0000
  C   C463      1.0  0.30793  0.04620  0.80199  1.0000
  C   C464      1.0  0.30157  0.01570  0.82142  1.0000
  H   H535      1.0  0.01299  0.26878  0.77283  1.0000
  C   C465      1.0  0.09903  0.47772  0.84345  1.0000
  N   N30       1.0  0.12938  0.39136  0.92394  1.0000
  H   H536      1.0  0.03193  0.46950  0.85094  1.0000
  C   C466      1.0  0.31055  0.14257  0.72521  1.0000
  H   H537      1.0  0.26412  0.15846  0.73239  1.0000
  Fe  Fe68      1.0  0.23420  0.47586  0.86404  1.0000
  C   C467      1.0  0.19033  0.47145  0.74361  1.0000
  H   H538      1.0  0.15462  0.27806  0.75722  1.0000
  S   S127      1.0  0.01366  0.44127  0.87727  1.0000
  H   H539      1.0  0.03591  0.24829  0.75717  1.0000
  C   C468      1.0  0.26680  0.21009  0.72459  1.0000
  N   N31       1.0  0.29644  0.00547  0.83798  1.0000
  C   C469      1.0  0.20335  0.01672  0.79502  1.0000
  H   H540      1.0  0.07772  0.30552  0.80146  1.0000
  H   H541      1.0  0.26002  0.25078  0.72932  1.0000
  C   C470      1.0  0.12803  0.37609  0.95339  1.0000
  C   C471      1.0  0.31079  0.31361  0.77054  1.0000
  H   H542      1.0  0.31024  0.04305  0.77710  1.0000
  C   C472      1.0  0.09095  0.44333  0.84571  1.0000
  C   C473      1.0  0.99777  0.27179  0.76858  1.0000
  C   C474      1.0  0.99911  0.46653  0.95768  1.0000
  H   H543      1.0  0.26914  0.00138  0.95268  1.0000
  H   H544      1.0  0.99502  0.01364  0.88581  1.0000
  C   C475      1.0  0.27003  0.47458  0.89310  1.0000
  H   H545      1.0  0.28205  0.99390  0.96977  1.0000
  C   C476      1.0  0.00826  0.25326  0.74585  1.0000
  C   C477      1.0  0.00157  0.25540  0.73061  1.0000
  H   H546      1.0  0.10347  0.37482  0.93005  1.0000
  H   H547      1.0  0.22852  0.17091  0.72733  1.0000
  H   H548      1.0  0.26543  0.47487  0.95779  1.0000
  C   C478      1.0  0.99413  0.28489  0.89350  1.0000
  H   H549      1.0  0.01760  0.29724  0.94240  1.0000
  C   C479      1.0  0.27270  0.18870  0.72861  1.0000
  H   H550      1.0  0.31356  0.28005  0.79252  1.0000
  H   H551      1.0  0.13064  0.48106  0.83492  1.0000
  H   H552      1.0  0.03931  0.28965  0.90406  1.0000
  H   H553      1.0  0.21371  0.04946  0.76121  1.0000
  H   H554      1.0  0.22117  0.47942  0.92311  1.0000
  C   C480      1.0  0.21074  0.02382  0.77927  1.0000
  H   H555      1.0  0.19886  0.48178  0.74800  1.0000
  H   H556      1.0  0.01166  0.34479  0.93586  1.0000
  H   H557      1.0  0.06819  0.27360  0.77296  1.0000
  H   H558      1.0  0.10949  0.41101  0.90846  1.0000
  N   N32       1.0  0.99396  0.25470  0.76093  1.0000
  H   H559      1.0  0.04446  0.46682  0.87798  1.0000
  H   H560      1.0  0.23584  0.48032  0.94728  1.0000
  H   H561      1.0  0.99895  0.99308  0.94336  1.0000
  H   H562      1.0  0.10289  0.41369  0.92915  1.0000
  H   H563      1.0  0.08377  0.33774  0.78377  1.0000
  C   C481      1.0  0.12534  0.45021  0.83549  1.0000
  C   C482      1.0  0.31266  0.15134  0.75136  1.0000
  C   C483      1.0  0.99727  0.23535  0.77213  1.0000
  H   H564      1.0  0.01288  0.23218  0.77567  1.0000
  C   C484      1.0  0.00203  0.46111  0.88864  1.0000
  H   H565      1.0  0.31620  0.47207  0.87449  1.0000
  H   H566      1.0  0.11655  0.47180  0.88013  1.0000
  S   S128      1.0  0.25362  0.46269  0.88425  1.0000
  H   H567      1.0  0.15560  0.31560  0.75916  1.0000
  H   H568      1.0  0.17045  0.45971  0.72201  1.0000
  H   H569      1.0  0.30817  0.14925  0.76419  1.0000
  H   H570      1.0  0.07116  0.46684  0.87848  1.0000
  H   H571      1.0  0.29478  0.12902  0.74737  1.0000
  H   H572      1.0  0.28580  0.00169  0.90358  1.0000
  H   H573      1.0  0.28510  0.35931  0.78168  1.0000
  C   C485      1.0  0.19210  0.03046  0.80491  1.0000
  H   H574      1.0  0.12434  0.42438  0.91745  1.0000
  Fe  Fe69      1.0  0.22360  0.39923  0.73739  1.0000
  C   C486      1.0  0.25906  0.17478  0.72950  1.0000
  H   H575      1.0  0.31383  0.27217  0.77343  1.0000
  C   C487      1.0  0.10693  0.32287  0.76703  1.0000
  C   C488      1.0  0.30575  0.01483  0.79245  1.0000
  C   C489      1.0  0.00427  0.33592  0.92904  1.0000
  C   C490      1.0  0.27940  0.32513  0.75819  1.0000
  C   C491      1.0  0.13437  0.39075  0.94026  1.0000
  C   C492      1.0  0.08414  0.46418  0.84767  1.0000
  S   S129      1.0  0.15684  0.47927  0.86600  1.0000
  H   H576      1.0  0.04867  0.44643  0.84914  1.0000
  C   C493      1.0  0.29814  0.01783  0.85050  1.0000
  H   H577      1.0  0.26915  0.32289  0.75025  1.0000
  C   C494      1.0  0.28846  0.34568  0.77583  1.0000
  H   H578      1.0  0.28686  0.03214  0.85011  1.0000
  H   H579      1.0  0.28801  0.18255  0.73099  1.0000
  C   C495      1.0  0.11859  0.37428  0.92236  1.0000
  H   H580      1.0  0.31553  0.33498  0.78613  1.0000
  H   H581      1.0  0.11544  0.37494  0.90987  1.0000
  H   H582      1.0  0.02105  0.45205  0.90733  1.0000
  C   C496      1.0  0.01654  0.43246  0.95461  1.0000
  C   C497      1.0  0.12306  0.31039  0.73401  1.0000
  C   C498      1.0  0.14862  0.40656  0.95910  1.0000
  C   C499      1.0  0.29109  0.47294  0.91441  1.0000
  H   H583      1.0  0.30800  0.43963  0.86887  1.0000
  H   H584      1.0  0.18660  0.02483  0.81723  1.0000
  H   H585      1.0  0.15813  0.28439  0.73587  1.0000
  C   C500      1.0  0.11601  0.41094  0.91958  1.0000
  C   C501      1.0  0.13173  0.37695  0.96887  1.0000
  H   H586      1.0  0.11952  0.36423  0.95221  1.0000
  H   H587      1.0  0.11187  0.29988  0.73386  1.0000
  C   C502      1.0  0.02807  0.43318  0.96666  1.0000
  H   H588      1.0  0.27292  0.99067  0.83214  1.0000
  H   H589      1.0  0.14121  0.44474  0.83136  1.0000
  C   C503      1.0  0.00881  0.46310  0.90284  1.0000
  C   C504      1.0  0.30504  0.13984  0.74185  1.0000
  H   H590      1.0  0.30967  0.06229  0.79945  1.0000
  C   C505      1.0  0.32299  0.27843  0.78069  1.0000
  H   H591      1.0  0.00546  0.48130  0.92197  1.0000
  C   C506      1.0  0.22004  0.46041  0.72561  1.0000
  H   H592      1.0  0.06258  0.44493  0.87358  1.0000
  H   H593      1.0  0.15939  0.37630  0.91567  1.0000
  H   H594      1.0  0.02496  0.27019  0.88803  1.0000
  H   H595      1.0  0.14525  0.38959  0.89997  1.0000
  C   C507      1.0  0.14843  0.39021  0.91225  1.0000
  S   S130      1.0  0.24033  0.06674  0.73095  1.0000
  H   H596      1.0  0.11614  0.42040  0.83873  1.0000
  C   C508      1.0  0.27505  0.00141  0.84017  1.0000
  C   C509      1.0  0.01493  0.28135  0.89469  1.0000
  N   N33       1.0  0.01935  0.32003  0.92152  1.0000
  Fe  Fe70      1.0  0.23355  0.10089  0.72442  1.0000
  H   H597      1.0  0.30559  0.00659  0.78258  1.0000
  H   H598      1.0  0.21997  0.01314  0.77175  1.0000
  C   C510      1.0  0.31873  0.43932  0.87716  1.0000
  S   S131      1.0  0.99761  0.25877  0.81136  1.0000
  H   H599      1.0  0.13386  0.31007  0.72264  1.0000
  C   C511      1.0  0.30218  0.00514  0.80821  1.0000
  H   H600      1.0  0.04174  0.34073  0.91739  1.0000
  H   H601      1.0  0.30074  0.23289  0.73883  1.0000
  C   C512      1.0  0.02895  0.30609  0.93448  1.0000
  H   H602      1.0  0.02876  0.34039  0.90059  1.0000
  H   H603      1.0  0.04842  0.32001  0.90592  1.0000
  H   H604      1.0  0.20678  0.00060  0.79968  1.0000
  H   H605      1.0  0.03544  0.31473  0.94205  1.0000
  C   C513      1.0  0.29006  0.22173  0.73900  1.0000
  H   H606      1.0  0.99704  0.34740  0.91983  1.0000
  H   H607      1.0  0.24205  0.99345  0.94322  1.0000
  H   H608      1.0  0.16077  0.13959  0.72690  1.0000
  H   H609      1.0  0.04181  0.29487  0.92972  1.0000
  Fe  Fe71      1.0  0.99483  0.25904  0.83804  1.0000
  N   N34       1.0  0.19798  0.46885  0.72663  1.0000
  C   C514      1.0  0.32337  0.45761  0.88033  1.0000
  H   H610      1.0  0.32360  0.40653  0.88255  1.0000
  H   H611      1.0  0.23801  0.99139  0.97046  1.0000
  C   C515      1.0  0.27778  0.98809  0.95951  1.0000
  C   C516      1.0  0.14186  0.39221  0.97174  1.0000
  C   C517      1.0  0.23274  0.20264  0.72235  1.0000
  S   S132      1.0  0.15355  0.73473  0.20288  1.0000
  H   H612      1.0  0.30720  0.89259  0.15927  1.0000
  S   S133      1.0  0.11586  0.72870  0.17485  1.0000
  H   H613      1.0  0.27242  0.72811  0.21097  1.0000
  Fe  Fe72      1.0  0.01063  0.73874  0.10327  1.0000
  S   S134      1.0  0.03000  0.70974  0.11317  1.0000
  S   S135      1.0  0.02327  0.76062  0.08205  1.0000
  H   H614      1.0  0.07824  0.96465  0.04386  1.0000
  H   H615      1.0  0.13337  0.68540  0.17156  1.0000
  Fe  Fe73      1.0  0.01581  0.71882  0.13721  1.0000
  S   S136      1.0  0.02805  0.71903  0.16045  1.0000
  H   H616      1.0  0.31102  0.98229  0.02877  1.0000
  H   H617      1.0  0.01350  0.82557  0.10455  1.0000
  S   S137      1.0  0.24972  0.91183  0.19764  1.0000
  Fe  Fe74      1.0  0.20057  0.95358  0.11755  1.0000
  H   H618      1.0  0.28321  0.96003  0.98483  1.0000
  S   S138      1.0  0.19787  0.92918  0.13947  1.0000
  C   C518      1.0  0.27381  0.68184  0.19799  1.0000
  H   H619      1.0  0.31706  0.55143  0.02006  1.0000
  Fe  Fe75      1.0  0.18631  0.95991  0.08455  1.0000
  S   S139      1.0  0.17333  0.94391  0.06787  1.0000
  C   C519      1.0  0.08364  0.89314  0.97335  1.0000
  S   S140      1.0  0.21454  0.94255  0.09422  1.0000
  H   H620      1.0  0.09803  0.88672  0.08595  1.0000
  H   H621      1.0  0.15992  0.88206  0.09412  1.0000
  S   S141      1.0  0.22221  0.50286  0.13063  1.0000
  Fe  Fe76      1.0  0.23976  0.60066  0.20409  1.0000
  S   S142      1.0  0.26721  0.59291  0.18592  1.0000
  S   S143      1.0  0.21617  0.62684  0.19518  1.0000
  H   H622      1.0  0.17663  0.90709  0.09765  1.0000
  H   H623      1.0  0.23290  0.68953  0.19373  1.0000
  Fe  Fe77      1.0  0.28557  0.59192  0.20588  1.0000
  H   H624      1.0  0.03234  0.96487  0.04271  1.0000
  Fe  Fe78      1.0  0.26377  0.55994  0.19506  1.0000
  S   S144      1.0  0.27067  0.53523  0.17823  1.0000
  C   C520      1.0  0.16377  0.58186  0.11061  1.0000
  C   C521      1.0  0.26593  0.70027  0.20450  1.0000
  C   C522      1.0  0.30793  0.69222  0.19447  1.0000
  H   H625      1.0  0.04185  0.72676  0.18840  1.0000
  Fe  Fe79      1.0  0.04306  0.87863  0.05998  1.0000
  S   S145      1.0  0.07660  0.88180  0.05364  1.0000
  S   S146      1.0  0.03020  0.85505  0.08000  1.0000
  Fe  Fe80      1.0  0.02969  0.91977  0.03962  1.0000
  S   S147      1.0  0.06194  0.92582  0.03214  1.0000
  N   N35       1.0  0.01184  0.93087  0.97757  1.0000
  Fe  Fe81      1.0  0.06878  0.89279  0.02855  1.0000
  S   S148      1.0  0.08889  0.88806  0.00505  1.0000
  Fe  Fe82      1.0  0.06691  0.91469  0.05756  1.0000
  S   S149      1.0  0.07977  0.93340  0.07248  1.0000
  S   S150      1.0  0.03606  0.88718  0.03456  1.0000
  S   S151      1.0  0.03383  0.91112  0.06542  1.0000
  C   C523      1.0  0.07624  0.88544  0.98915  1.0000
  C   C524      1.0  0.05934  0.87500  0.99200  1.0000
  H   H626      1.0  0.23733  0.98302  0.05019  1.0000
  H   H627      1.0  0.05368  0.86880  0.00409  1.0000
  S   S152      1.0  0.29408  0.50148  0.99328  1.0000
  H   H628      1.0  0.11037  0.91709  0.12243  1.0000
  C   C525      1.0  0.99294  0.49746  0.07007  1.0000
  C   C526      1.0  0.25668  0.94206  0.11939  1.0000
  C   C527      1.0  0.23618  0.51205  0.14346  1.0000
  C   C528      1.0  0.25730  0.50639  0.14336  1.0000
  C   C529      1.0  0.26753  0.51392  0.15386  1.0000
  C   C530      1.0  0.25692  0.52725  0.16462  1.0000
  C   C531      1.0  0.23583  0.53309  0.16459  1.0000
  C   C532      1.0  0.22558  0.52554  0.15410  1.0000
  H   H629      1.0  0.28385  0.50940  0.15362  1.0000
  H   H630      1.0  0.22739  0.54329  0.17277  1.0000
  H   H631      1.0  0.20928  0.53015  0.15430  1.0000
  C   C533      1.0  0.14716  0.94154  0.06910  1.0000
  C   C534      1.0  0.14143  0.92951  0.05906  1.0000
  C   C535      1.0  0.12083  0.92700  0.05982  1.0000
  C   C536      1.0  0.10579  0.93651  0.07068  1.0000
  C   C537      1.0  0.11149  0.94863  0.08067  1.0000
  C   C538      1.0  0.13208  0.95116  0.07989  1.0000
  H   H632      1.0  0.15301  0.92203  0.05067  1.0000
  H   H633      1.0  0.11663  0.91759  0.05210  1.0000
  H   H634      1.0  0.09992  0.95601  0.08912  1.0000
  H   H635      1.0  0.13625  0.96061  0.08758  1.0000
  H   H636      1.0  0.24181  0.64698  0.21345  1.0000
  H   H637      1.0  0.26278  0.65329  0.22130  1.0000
  H   H638      1.0  0.29924  0.83413  0.21744  1.0000
  S   S153      1.0  0.23511  0.56773  0.21226  1.0000
  H   H639      1.0  0.25474  0.48859  0.04676  1.0000
  H   H640      1.0  0.00352  0.90073  0.98619  1.0000
  H   H641      1.0  0.15360  0.87742  0.13506  1.0000
  C   C539      1.0  0.05026  0.87177  0.97914  1.0000
  H   H642      1.0  0.28539  0.49231  0.19307  1.0000
  H   H643      1.0  0.16952  0.68979  0.20443  1.0000
  H   H644      1.0  0.16052  0.93062  0.10074  1.0000
  C   C540      1.0  0.17622  0.56568  0.11834  1.0000
  C   C541      1.0  0.23382  0.91746  0.18237  1.0000
  C   C542      1.0  0.23684  0.93404  0.17021  1.0000
  C   C543      1.0  0.22534  0.93838  0.15735  1.0000
  C   C544      1.0  0.21114  0.92576  0.15627  1.0000
  C   C545      1.0  0.20786  0.90939  0.16856  1.0000
  C   C546      1.0  0.21901  0.90535  0.18164  1.0000
  H   H645      1.0  0.24818  0.94354  0.17075  1.0000
  H   H646      1.0  0.22756  0.95139  0.14826  1.0000
  H   H647      1.0  0.19681  0.89962  0.16790  1.0000
  H   H648      1.0  0.21654  0.89255  0.19092  1.0000
  H   H649      1.0  0.14409  0.55619  0.08732  1.0000
  C   C547      1.0  0.27216  0.49401  0.02317  1.0000
  H   H650      1.0  0.18015  0.92052  0.11308  1.0000
  H   H651      1.0  0.13661  0.93388  0.12554  1.0000
  H   H652      1.0  0.17571  0.88994  0.13371  1.0000
  C   C548      1.0  0.27901  0.95444  0.97439  1.0000
  C   C549      1.0  0.00615  0.91136  0.97482  1.0000
  H   H653      1.0  0.03744  0.86330  0.98144  1.0000
  H   H654      1.0  0.09711  0.68392  0.18244  1.0000
  C   C550      1.0  0.29529  0.67818  0.19303  1.0000
  H   H655      1.0  0.19202  0.52377  0.08189  1.0000
  C   C551      1.0  0.10902  0.89000  0.09284  1.0000
  H   H656      1.0  0.13362  0.91146  0.14046  1.0000
  H   H657      1.0  0.00160  0.48829  0.03139  1.0000
  H   H658      1.0  0.17321  0.87637  0.11802  1.0000
  C   C552      1.0  0.02517  0.78684  0.08172  1.0000
  C   C553      1.0  0.01767  0.79697  0.09500  1.0000
  C   C554      1.0  0.01956  0.81778  0.09428  1.0000
  C   C555      1.0  0.02886  0.82873  0.08027  1.0000
  C   C556      1.0  0.03641  0.81859  0.06700  1.0000
  C   C557      1.0  0.03455  0.79775  0.06774  1.0000
  Fe  Fe83      1.0  0.32237  0.49380  0.97543  1.0000
  H   H659      1.0  0.17783  0.50402  0.08004  1.0000
  H   H660      1.0  0.04355  0.82683  0.05613  1.0000
  H   H661      1.0  0.04039  0.79006  0.05738  1.0000
  H   H662      1.0  0.24643  0.88054  0.15961  1.0000
  N   N36       1.0  0.25997  0.66714  0.19707  1.0000
  H   H663      1.0  0.13986  0.68951  0.19015  1.0000
  C   C558      1.0  0.19029  0.66205  0.20051  1.0000
  C   C559      1.0  0.20196  0.64443  0.20756  1.0000
  H   H664      1.0  0.14269  0.59081  0.09343  1.0000
  H   H665      1.0  0.18188  0.82497  0.19987  1.0000
  C   C560      1.0  0.28873  0.97792  0.05000  1.0000
  H   H666      1.0  0.19027  0.66462  0.18769  1.0000
  H   H667      1.0  0.13611  0.52466  0.09250  1.0000
  H   H668      1.0  0.15659  0.92266  0.13708  1.0000
  C   C561      1.0  0.05272  0.72142  0.16408  1.0000
  C   C562      1.0  0.06991  0.71941  0.15241  1.0000
  C   C563      1.0  0.08918  0.72179  0.15583  1.0000
  C   C564      1.0  0.09140  0.72610  0.17094  1.0000
  C   C565      1.0  0.07429  0.72769  0.18270  1.0000
  C   C566      1.0  0.05506  0.72534  0.17926  1.0000
  H   H669      1.0  0.06835  0.71581  0.14085  1.0000
  H   H670      1.0  0.10243  0.72029  0.14675  1.0000
  H   H671      1.0  0.07582  0.73089  0.19440  1.0000
  C   C567      1.0  0.17632  0.51963  0.08346  1.0000
  N   N37       1.0  0.27287  0.92469  0.11590  1.0000
  H   H672      1.0  0.13586  0.63998  0.17811  1.0000
  C   C568      1.0  0.17093  0.80291  0.21935  1.0000
  C   C569      1.0  0.29970  0.71013  0.20091  1.0000
  C   C570      1.0  0.13806  0.67740  0.18317  1.0000
  C   C571      1.0  0.32139  0.80738  0.21302  1.0000
  C   C572      1.0  0.31948  0.62657  0.21071  1.0000
  C   C573      1.0  0.25952  0.88767  0.15356  1.0000
  H   H673      1.0  0.17127  0.50456  0.12359  1.0000
  H   H674      1.0  0.09072  0.66931  0.20162  1.0000
  C   C574      1.0  0.29078  0.48920  0.01331  1.0000
  C   C575      1.0  0.10265  0.67781  0.19414  1.0000
  H   H675      1.0  0.15584  0.63435  0.19684  1.0000
  H   H676      1.0  0.29641  0.94282  0.11658  1.0000
  H   H677      1.0  0.13657  0.51664  0.11361  1.0000
  H   H678      1.0  0.32194  0.81065  0.20015  1.0000
  C   C576      1.0  0.16521  0.54130  0.10411  1.0000
  H   H679      1.0  0.01030  0.78886  0.10576  1.0000
  H   H680      1.0  0.23779  0.96531  0.97990  1.0000
  C   C577      1.0  0.14520  0.51506  0.10149  1.0000
  C   C578      1.0  0.99283  0.96334  0.03762  1.0000
  S   S154      1.0  0.26063  0.97305  0.07721  1.0000
  C   C579      1.0  0.25077  0.65950  0.21348  1.0000
  H   H681      1.0  0.10346  0.69162  0.19955  1.0000
  H   H682      1.0  0.08633  0.90821  0.10736  1.0000
  H   H683      1.0  0.04396  0.91868  0.97664  1.0000
  H   H684      1.0  0.99060  0.64771  0.01709  1.0000
  C   C580      1.0  0.99147  0.50018  0.05373  1.0000
  Fe  Fe84      1.0  0.00204  0.69433  0.11385  1.0000
  S   S155      1.0  0.00126  0.66137  0.10970  1.0000
  H   H685      1.0  0.27777  0.65367  0.17695  1.0000
  H   H686      1.0  0.30010  0.97436  0.05806  1.0000
  H   H687      1.0  0.13482  0.87384  0.07940  1.0000
  C   C581      1.0  0.12087  0.64876  0.18232  1.0000
  C   C582      1.0  0.29497  0.98236  0.03338  1.0000
  C   C583      1.0  0.24333  0.67743  0.18772  1.0000
  N   N38       1.0  0.16611  0.52041  0.10013  1.0000
  Fe  Fe85      1.0  0.14252  0.76345  0.21415  1.0000
  H   H688      1.0  0.19407  0.50600  0.10914  1.0000
  C   C584      1.0  0.24753  0.97765  0.97602  1.0000
  S   S156      1.0  0.11074  0.76591  0.20797  1.0000
  N   N39       1.0  0.06698  0.77020  0.11941  1.0000
  C   C585      1.0  0.04670  0.76317  0.12166  1.0000
  C   C586      1.0  0.06595  0.78977  0.10832  1.0000
  C   C587      1.0  0.08210  0.75452  0.11170  1.0000
  C   C588      1.0  0.07322  0.77332  0.13456  1.0000
  C   C589      1.0  0.09316  0.77773  0.13478  1.0000
  C   C590      1.0  0.05984  0.77248  0.14935  1.0000
  C   C591      1.0  0.09959  0.78021  0.14900  1.0000
  C   C592      1.0  0.06635  0.77530  0.16343  1.0000
  C   C593      1.0  0.08624  0.77891  0.16330  1.0000
  H   H689      1.0  0.03419  0.77494  0.12612  1.0000
  H   H690      1.0  0.04280  0.76005  0.11022  1.0000
  H   H691      1.0  0.04632  0.74867  0.13019  1.0000
  H   H692      1.0  0.05455  0.80195  0.11354  1.0000
  H   H693      1.0  0.06140  0.78808  0.09670  1.0000
  H   H694      1.0  0.08088  0.79561  0.10547  1.0000
  H   H695      1.0  0.08464  0.74010  0.12017  1.0000
  H   H696      1.0  0.07688  0.75063  0.10099  1.0000
  H   H697      1.0  0.09716  0.75972  0.10737  1.0000
  H   H698      1.0  0.10404  0.77909  0.12399  1.0000
  H   H699      1.0  0.04442  0.76909  0.15051  1.0000
  H   H700      1.0  0.11513  0.78279  0.14904  1.0000
  H   H701      1.0  0.05613  0.77393  0.17466  1.0000
  H   H702      1.0  0.09145  0.78028  0.17437  1.0000
  H   H703      1.0  0.16326  0.59733  0.11308  1.0000
  C   C594      1.0  0.18107  0.81973  0.21259  1.0000
  H   H704      1.0  0.18729  0.53401  0.12145  1.0000
  H   H705      1.0  0.30622  0.91411  0.13357  1.0000
  H   H706      1.0  0.28213  0.63964  0.19636  1.0000
  H   H707      1.0  0.24409  0.90247  0.13406  1.0000
  H   H708      1.0  0.99775  0.61973  0.10739  1.0000
  H   H709      1.0  0.99355  0.92861  0.00091  1.0000
  C   C595      1.0  0.03120  0.92632  0.98461  1.0000
  H   H710      1.0  0.11409  0.65577  0.17126  1.0000
  H   H711      1.0  0.14566  0.49893  0.09939  1.0000
  H   H712      1.0  0.27745  0.87602  0.17265  1.0000
  H   H713      1.0  0.03598  0.94058  0.98692  1.0000
  C   C596      1.0  0.25842  0.90019  0.13884  1.0000
  H   H714      1.0  0.18547  0.56861  0.12677  1.0000
  H   H715      1.0  0.19742  0.84313  0.21683  1.0000
  C   C597      1.0  0.29369  0.89458  0.15339  1.0000
  N   N40       1.0  0.15334  0.90544  0.11858  1.0000
  C   C598      1.0  0.16442  0.88644  0.12667  1.0000
  C   C599      1.0  0.16831  0.91629  0.10703  1.0000
  C   C600      1.0  0.14451  0.91892  0.13095  1.0000
  C   C601      1.0  0.13787  0.90022  0.10999  1.0000
  C   C602      1.0  0.11656  0.90726  0.11346  1.0000
  C   C603      1.0  0.14399  0.88776  0.09759  1.0000
  C   C604      1.0  0.10245  0.90213  0.10497  1.0000
  C   C605      1.0  0.12975  0.88284  0.08914  1.0000
  C   C606      1.0  0.03787  0.96991  0.05278  1.0000
  Fe  Fe86      1.0  0.24438  0.89053  0.22116  1.0000
  H   H716      1.0  0.30971  0.72070  0.20225  1.0000
  H   H717      1.0  0.25399  0.79778  0.21650  1.0000
  C   C607      1.0  0.15220  0.57814  0.09956  1.0000
  H   H718      1.0  0.06536  0.97122  0.02672  1.0000
  H   H719      1.0  0.99947  0.95354  0.99327  1.0000
  H   H720      1.0  0.26586  0.49637  0.13511  1.0000
  H   H721      1.0  0.28975  0.94368  0.09716  1.0000
  H   H722      1.0  0.24917  0.48751  0.19689  1.0000
  H   H723      1.0  0.99593  0.94746  0.06133  1.0000
  S   S157      1.0  0.99804  0.74851  0.12720  1.0000
  H   H724      1.0  0.25167  0.98199  0.98700  1.0000
  Fe  Fe87      1.0  0.12097  0.73575  0.19889  1.0000
  S   S158      1.0  0.15907  0.79132  0.20686  1.0000
  C   C608      1.0  0.29285  0.90701  0.13857  1.0000
  H   H725      1.0  0.11090  0.63768  0.18925  1.0000
  H   H726      1.0  0.30285  0.66438  0.18833  1.0000
  H   H727      1.0  0.24961  0.51008  0.97782  1.0000
  C   C609      1.0  0.12985  0.65469  0.20750  1.0000
  S   S159      1.0  0.28483  0.55816  0.21367  1.0000
  C   C610      1.0  0.26691  0.91426  0.10372  1.0000
  C   C611      1.0  0.17856  0.67634  0.20995  1.0000
  C   C612      1.0  0.14719  0.63914  0.20774  1.0000
  H   H728      1.0  0.02430  0.97477  0.06138  1.0000
  H   H729      1.0  0.15343  0.66830  0.18057  1.0000
  H   H730      1.0  0.24138  0.93710  0.12319  1.0000
  H   H731      1.0  0.30475  0.92101  0.10576  1.0000
  H   H732      1.0  0.27825  0.90050  0.10131  1.0000
  H   H733      1.0  0.06717  0.98005  0.06714  1.0000
  H   H734      1.0  0.25526  0.95388  0.10871  1.0000
  S   S160      1.0  0.17139  0.96918  0.10825  1.0000
  H   H735      1.0  0.26000  0.94963  0.12913  1.0000
  C   C613      1.0  0.29185  0.93333  0.10862  1.0000
  H   H736      1.0  0.11056  0.84478  0.98197  1.0000
  H   H737      1.0  0.24008  0.67163  0.21929  1.0000
  C   C614      1.0  0.15296  0.55821  0.09625  1.0000
  H   H738      1.0  0.26002  0.50489  0.01835  1.0000
  C   C615      1.0  0.27502  0.91034  0.13090  1.0000
  H   H739      1.0  0.24969  0.68458  0.17564  1.0000
  H   H740      1.0  0.25164  0.90925  0.10741  1.0000
  C   C616      1.0  0.17762  0.50430  0.11075  1.0000
  H   H741      1.0  0.24982  0.70389  0.20879  1.0000
  H   H742      1.0  0.25943  0.63862  0.18847  1.0000
  H   H743      1.0  0.26584  0.92464  0.09214  1.0000
  C   C617      1.0  0.06923  0.97763  0.03686  1.0000
  H   H744      1.0  0.16773  0.53030  0.07463  1.0000
  C   C618      1.0  0.27038  0.64907  0.18936  1.0000
  S   S161      1.0  0.00608  0.94294  0.02758  1.0000
  C   C619      1.0  0.99557  0.93959  0.98964  1.0000
  H   H745      1.0  0.23341  0.66641  0.18599  1.0000
  N   N41       1.0  0.12283  0.66452  0.19212  1.0000
  S   S162      1.0  0.21569  0.98201  0.11215  1.0000
  C   C620      1.0  0.25339  0.98278  0.04562  1.0000
  S   S163      1.0  0.31521  0.60566  0.20195  1.0000
  H   H746      1.0  0.27098  0.94103  0.97930  1.0000
  C   C621      1.0  0.27873  0.71420  0.20587  1.0000
  C   C622      1.0  0.27700  0.88508  0.16092  1.0000
  H   H747      1.0  0.00425  0.61037  0.01849  1.0000
  C   C623      1.0  0.17705  0.54569  0.11517  1.0000
  Fe  Fe88      1.0  0.22732  0.97217  0.08782  1.0000
  C   C624      1.0  0.26791  0.97819  0.05620  1.0000
  H   H748      1.0  0.31229  0.52583  0.01968  1.0000
  H   H749      1.0  0.02972  0.91595  0.99624  1.0000
  H   H750      1.0  0.04653  0.95620  0.05918  1.0000
  H   H751      1.0  0.99192  0.82902  0.05988  1.0000
  H   H752      1.0  0.17720  0.48868  0.10809  1.0000
  H   H753      1.0  0.23470  0.78123  0.22169  1.0000
  N   N42       1.0  0.05053  0.98643  0.04685  1.0000
  H   H754      1.0  0.31370  0.75466  0.22095  1.0000
  Fe  Fe89      1.0  0.01495  0.73917  0.33364  1.0000
  S   S164      1.0  0.04635  0.72949  0.32017  1.0000
  C   C625      1.0  0.26282  0.88377  0.31114  1.0000
  H   H755      1.0  0.02593  0.75882  0.29638  1.0000
  H   H756      1.0  0.23399  0.96766  0.39572  1.0000
  S   S165      1.0  0.01215  0.74051  0.36016  1.0000
  H   H757      1.0  0.22955  0.80683  0.22673  1.0000
  S   S166      1.0  0.16334  0.69043  0.23876  1.0000
  Fe  Fe90      1.0  0.10385  0.74723  0.23215  1.0000
  C   C626      1.0  0.99095  0.69170  0.43568  1.0000
  S   S167      1.0  0.07334  0.75864  0.24615  1.0000
  C   C627      1.0  0.14759  0.84749  0.39608  1.0000
  H   H758      1.0  0.00013  0.63256  0.38235  1.0000
  H   H759      1.0  0.10412  0.77101  0.26186  1.0000
  S   S168      1.0  0.13501  0.74681  0.23890  1.0000
  Fe  Fe91      1.0  0.02238  0.84827  0.43687  1.0000
  S   S169      1.0  0.03230  0.82730  0.41744  1.0000
  Fe  Fe92      1.0  0.04495  0.87174  0.45512  1.0000
  C   C628      1.0  0.12854  0.83058  0.24633  1.0000
  H   H760      1.0  0.24526  0.53351  0.32379  1.0000
  S   S170      1.0  0.99496  0.76949  0.32844  1.0000
  Fe  Fe93      1.0  0.00012  0.88695  0.45085  1.0000
  H   H761      1.0  0.28281  0.98438  0.41138  1.0000
  S   S171      1.0  0.02874  0.88091  0.43343  1.0000
  C   C629      1.0  0.99934  0.73206  0.27896  1.0000
  C   C630      1.0  0.23964  0.52028  0.33198  1.0000
  C   C631      1.0  0.22001  0.52100  0.28237  1.0000
  S   S172      1.0  0.24793  0.85587  0.22451  1.0000
  S   S173      1.0  0.21585  0.89445  0.23914  1.0000
  Fe  Fe94      1.0  0.26665  0.85728  0.24369  1.0000
  S   S174      1.0  0.23978  0.85947  0.26306  1.0000
  S   S175      1.0  0.29238  0.83320  0.25212  1.0000
  Fe  Fe95      1.0  0.22081  0.85981  0.24367  1.0000
  S   S176      1.0  0.19815  0.83697  0.25140  1.0000
  Fe  Fe96      1.0  0.23746  0.89369  0.25705  1.0000
  S   S177      1.0  0.22900  0.91444  0.27693  1.0000
  C   C632      1.0  0.21527  0.52490  0.29823  1.0000
  S   S178      1.0  0.26574  0.89157  0.23887  1.0000
  C   C633      1.0  0.11630  0.81913  0.25862  1.0000
  S   S179      1.0  0.07606  0.88267  0.45198  1.0000
  S   S180      1.0  0.25063  0.55820  0.25704  1.0000
  C   C634      1.0  0.08261  0.80939  0.26049  1.0000
  S   S181      1.0  0.27704  0.95575  0.31916  1.0000
  N   N43       1.0  0.24879  0.78532  0.24159  1.0000
  C   C635      1.0  0.99738  0.80434  0.38320  1.0000
  S   S182      1.0  0.20235  0.95870  0.45186  1.0000
  H   H762      1.0  0.29199  0.62754  0.22773  1.0000
  H   H763      1.0  0.10777  0.67303  0.22348  1.0000
  C   C636      1.0  0.29927  0.75264  0.22846  1.0000
  H   H764      1.0  0.02431  0.53386  0.44320  1.0000
  N   N44       1.0  0.10482  0.80352  0.25542  1.0000
  H   H765      1.0  0.32316  0.62901  0.27425  1.0000
  C   C637      1.0  0.08167  0.51890  0.47099  1.0000
  H   H766      1.0  0.23804  0.50142  0.26610  1.0000
  H   H767      1.0  0.01730  0.73699  0.40443  1.0000
  H   H768      1.0  0.28579  0.86794  0.26698  1.0000
  H   H769      1.0  0.10788  0.78324  0.27776  1.0000
  C   C638      1.0  0.26679  0.53877  0.26767  1.0000
  C   C639      1.0  0.26534  0.53769  0.28437  1.0000
  C   C640      1.0  0.27702  0.52170  0.29334  1.0000
  C   C641      1.0  0.29010  0.50653  0.28571  1.0000
  C   C642      1.0  0.29203  0.50798  0.26896  1.0000
  C   C643      1.0  0.28045  0.52402  0.25996  1.0000
  H   H770      1.0  0.25486  0.54909  0.29041  1.0000
  C   C644      1.0  0.01011  0.50897  0.43929  1.0000
  C   C645      1.0  0.29899  0.57879  0.24708  1.0000
  H   H771      1.0  0.28167  0.52463  0.24713  1.0000
  C   C646      1.0  0.00376  0.72205  0.26550  1.0000
  H   H772      1.0  0.23509  0.95453  0.25212  1.0000
  H   H773      1.0  0.12670  0.83954  0.29021  1.0000
  H   H774      1.0  0.20637  0.96790  0.27131  1.0000
  H   H775      1.0  0.10661  0.81506  0.28444  1.0000
  H   H776      1.0  0.04763  0.56628  0.45126  1.0000
  H   H777      1.0  0.20138  0.53547  0.34336  1.0000
  C   C647      1.0  0.99275  0.76368  0.42213  1.0000
  C   C648      1.0  0.24255  0.92733  0.28763  1.0000
  C   C649      1.0  0.23167  0.93745  0.30034  1.0000
  C   C650      1.0  0.24178  0.94706  0.30964  1.0000
  C   C651      1.0  0.26306  0.94631  0.30656  1.0000
  C   C652      1.0  0.27386  0.93670  0.29357  1.0000
  C   C653      1.0  0.26366  0.92760  0.28401  1.0000
  H   H778      1.0  0.21531  0.93759  0.30318  1.0000
  H   H779      1.0  0.23321  0.95431  0.31958  1.0000
  H   H780      1.0  0.29028  0.93615  0.29097  1.0000
  H   H781      1.0  0.27213  0.92079  0.27387  1.0000
  H   H782      1.0  0.23075  0.95055  0.42396  1.0000
  C   C654      1.0  0.27800  0.73063  0.24637  1.0000
  C   C655      1.0  0.29901  0.87859  0.31327  1.0000
  C   C656      1.0  0.30802  0.81673  0.23940  1.0000
  H   H783      1.0  0.19030  0.65307  0.24639  1.0000
  H   H784      1.0  0.11112  0.90346  0.44700  1.0000
  C   C657      1.0  0.15440  0.63003  0.22206  1.0000
  H   H785      1.0  0.12147  0.65757  0.24785  1.0000
  C   C658      1.0  0.28373  0.76935  0.22996  1.0000
  H   H786      1.0  0.21093  0.62770  0.22968  1.0000
  H   H787      1.0  0.26797  0.96797  0.24815  1.0000
  C   C659      1.0  0.02652  0.51779  0.44171  1.0000
  C   C660      1.0  0.99166  0.64366  0.38977  1.0000
  H   H788      1.0  0.07691  0.82473  0.25420  1.0000
  H   H789      1.0  0.29273  0.88840  0.27503  1.0000
  H   H790      1.0  0.09885  0.78907  0.23623  1.0000
  C   C661      1.0  0.15207  0.85924  0.40671  1.0000
  H   H791      1.0  0.12851  0.77887  0.26182  1.0000
  H   H792      1.0  0.05781  0.92817  0.44724  1.0000
  C   C662      1.0  0.16997  0.79626  0.23580  1.0000
  C   C663      1.0  0.17857  0.80674  0.24542  1.0000
  C   C664      1.0  0.18847  0.82374  0.23867  1.0000
  C   C665      1.0  0.08736  0.97757  0.46905  1.0000
  H   H793      1.0  0.25691  0.97946  0.41434  1.0000
  H   H794      1.0  0.16227  0.78332  0.24115  1.0000
  H   H795      1.0  0.17724  0.80187  0.25821  1.0000
  C   C666      1.0  0.11168  0.91583  0.46867  1.0000
  C   C667      1.0  0.28294  0.87445  0.30583  1.0000
  C   C668      1.0  0.01822  0.81851  0.40466  1.0000
  C   C669      1.0  0.02834  0.80386  0.39484  1.0000
  C   C670      1.0  0.01801  0.79676  0.38420  1.0000
  H   H796      1.0  0.08072  0.49111  0.41774  1.0000
  H   H797      1.0  0.99740  0.73251  0.39401  1.0000
  H   H798      1.0  0.21937  0.79496  0.25490  1.0000
  H   H799      1.0  0.04434  0.79805  0.39536  1.0000
  H   H800      1.0  0.02607  0.78568  0.37661  1.0000
  C   C671      1.0  0.04832  0.54003  0.46964  1.0000
  C   C672      1.0  0.05362  0.73793  0.29961  1.0000
  C   C673      1.0  0.07288  0.72986  0.29206  1.0000
  C   C674      1.0  0.07913  0.73601  0.27567  1.0000
  C   C675      1.0  0.06612  0.75031  0.26672  1.0000
  C   C676      1.0  0.04694  0.75852  0.27428  1.0000
  C   C677      1.0  0.04072  0.75240  0.29067  1.0000
  H   H801      1.0  0.08295  0.71868  0.29891  1.0000
  H   H802      1.0  0.09393  0.72957  0.26999  1.0000
  H   H803      1.0  0.03679  0.76960  0.26743  1.0000
  H   H804      1.0  0.09116  0.83706  0.38801  1.0000
  H   H805      1.0  0.12568  0.83280  0.38900  1.0000
  H   H806      1.0  0.26510  0.79622  0.25746  1.0000
  Fe  Fe97      1.0  0.26729  0.98027  0.33604  1.0000
  H   H807      1.0  0.29908  0.65653  0.23969  1.0000
  C   C678      1.0  0.12708  0.83708  0.27795  1.0000
  H   H808      1.0  0.30875  0.72055  0.23575  1.0000
  H   H809      1.0  0.27420  0.83667  0.30703  1.0000
  C   C679      1.0  0.22441  0.51161  0.31075  1.0000
  H   H810      1.0  0.21121  0.49987  0.45551  1.0000
  S   S183      1.0  0.29754  0.49322  0.34358  1.0000
  C   C680      1.0  0.07653  0.86136  0.41013  1.0000
  H   H811      1.0  0.13025  0.82858  0.23388  1.0000
  C   C681      1.0  0.13972  0.84467  0.24991  1.0000
  C   C682      1.0  0.30567  0.63434  0.22316  1.0000
  H   H812      1.0  0.99529  0.51831  0.43864  1.0000
  C   C683      1.0  0.10765  0.80085  0.23826  1.0000
  H   H813      1.0  0.12397  0.79567  0.23375  1.0000
  H   H814      1.0  0.99533  0.66965  0.37128  1.0000
  S   S184      1.0  0.11651  0.52660  0.45017  1.0000
  C   C684      1.0  0.30974  0.65077  0.22995  1.0000
  H   H815      1.0  0.21732  0.49551  0.43518  1.0000
  Fe  Fe98      1.0  0.17534  0.96668  0.47074  1.0000
  H   H816      1.0  0.21050  0.50617  0.39128  1.0000
  C   C685      1.0  0.22049  0.97441  0.26932  1.0000
  C   C686      1.0  0.99754  0.82589  0.40381  1.0000
  C   C687      1.0  0.11244  0.84788  0.41012  1.0000
  C   C688      1.0  0.20428  0.53326  0.33050  1.0000
  C   C689      1.0  0.05377  0.96554  0.47127  1.0000
  H   H817      1.0  0.00691  0.75793  0.42773  1.0000
  C   C690      1.0  0.24301  0.49058  0.29046  1.0000
  H   H818      1.0  0.07606  0.87125  0.41949  1.0000
  Fe  Fe99      1.0  0.14376  0.71812  0.22716  1.0000
  S   S185      1.0  0.00624  0.60222  0.45448  1.0000
  Fe  Fe100     1.0  0.13517  0.49658  0.45917  1.0000
  H   H819      1.0  0.31985  0.79604  0.25901  1.0000
  H   H820      1.0  0.27596  0.71551  0.25271  1.0000
  N   N45       1.0  0.28670  0.86226  0.29240  1.0000
  H   H821      1.0  0.30998  0.84167  0.27989  1.0000
  H   H822      1.0  0.20866  0.54793  0.32370  1.0000
  H   H823      1.0  0.09939  0.81439  0.40169  1.0000
  H   H824      1.0  0.16718  0.86362  0.40543  1.0000
  H   H825      1.0  0.31471  0.54313  0.26428  1.0000
  H   H826      1.0  0.02082  0.93051  0.45704  1.0000
  C   C691      1.0  0.05075  0.93903  0.45537  1.0000
  H   H827      1.0  0.07351  0.79816  0.25782  1.0000
  C   C692      1.0  0.14503  0.63655  0.23649  1.0000
  C   C693      1.0  0.06262  0.95138  0.46045  1.0000
  Fe  Fe101     1.0  0.25646  0.56825  0.23009  1.0000
  H   H828      1.0  0.23234  0.51033  0.44302  1.0000
  C   C694      1.0  0.21933  0.96321  0.42028  1.0000
  H   H829      1.0  0.07147  0.82574  0.43008  1.0000
  H   H830      1.0  0.15120  0.63009  0.24748  1.0000
  H   H831      1.0  0.07886  0.80987  0.27357  1.0000
  H   H832      1.0  0.31927  0.86223  0.28566  1.0000
  C   C695      1.0  0.12809  0.84185  0.39767  1.0000
  C   C696      1.0  0.22123  0.97290  0.40430  1.0000
  H   H833      1.0  0.08544  0.84109  0.43801  1.0000
  H   H834      1.0  0.10214  0.81521  0.23062  1.0000
  H   H835      1.0  0.07308  0.82516  0.40255  1.0000
  C   C697      1.0  0.23672  0.96680  0.25848  1.0000
  H   H836      1.0  0.26660  0.88390  0.27826  1.0000
  H   H837      1.0  0.24838  0.74396  0.25558  1.0000
  H   H838      1.0  0.23522  0.77500  0.26559  1.0000
  H   H839      1.0  0.08015  0.87070  0.39829  1.0000
  H   H840      1.0  0.99592  0.77712  0.41301  1.0000
  H   H841      1.0  0.28922  0.58592  0.25710  1.0000
  H   H842      1.0  0.05798  0.51357  0.44430  1.0000
  H   H843      1.0  0.30224  0.49636  0.26295  1.0000
  H   H844      1.0  0.00196  0.70567  0.41262  1.0000
  H   H845      1.0  0.21357  0.53175  0.27288  1.0000
  S   S186      1.0  0.11184  0.71709  0.22254  1.0000
  H   H846      1.0  0.09830  0.81768  0.43102  1.0000
  H   H847      1.0  0.06068  0.85782  0.41098  1.0000
  C   C698      1.0  0.12825  0.65203  0.23667  1.0000
  C   C699      1.0  0.26483  0.76725  0.23993  1.0000
  C   C700      1.0  0.29651  0.73338  0.23678  1.0000
  H   H848      1.0  0.14050  0.87461  0.42726  1.0000
  S   S187      1.0  0.04044  0.83864  0.45766  1.0000
  C   C701      1.0  0.04583  0.50604  0.44221  1.0000
  C   C702      1.0  0.27278  0.84655  0.29533  1.0000
  H   H849      1.0  0.29162  0.56573  0.24548  1.0000
  C   C703      1.0  0.11167  0.78336  0.26462  1.0000
  C   C704      1.0  0.09041  0.53182  0.45808  1.0000
  C   C705      1.0  0.28275  0.87623  0.27755  1.0000
  C   C706      1.0  0.05706  0.55316  0.45687  1.0000
  H   H850      1.0  0.25647  0.85339  0.29528  1.0000
  S   S188      1.0  0.16972  0.49117  0.45573  1.0000
  H   H851      1.0  0.27581  0.52093  0.30616  1.0000
  C   C707      1.0  0.08657  0.83126  0.42850  1.0000
  C   C708      1.0  0.13708  0.86541  0.41898  1.0000
  H   H852      1.0  0.12563  0.92226  0.46416  1.0000
  C   C709      1.0  0.08543  0.89643  0.46465  1.0000
  H   H853      1.0  0.24993  0.88238  0.30546  1.0000
  C   C710      1.0  0.11570  0.82306  0.27451  1.0000
  H   H854      1.0  0.20483  0.53870  0.30025  1.0000
  H   H855      1.0  0.14848  0.85820  0.26834  1.0000
  H   H856      1.0  0.24355  0.90349  0.32683  1.0000
  H   H857      1.0  0.99398  0.71706  0.24423  1.0000
  H   H858      1.0  0.07873  0.94928  0.45588  1.0000
  N   N46       1.0  0.09155  0.84241  0.41218  1.0000
  C   C711      1.0  0.99332  0.70876  0.42400  1.0000
  C   C712      1.0  0.24148  0.79307  0.22594  1.0000
  C   C713      1.0  0.30798  0.85135  0.28964  1.0000
  C   C714      1.0  0.13921  0.84773  0.26567  1.0000
  C   C715      1.0  0.07807  0.54905  0.45113  1.0000
  H   H859      1.0  0.31484  0.87263  0.30981  1.0000
  C   C716      1.0  0.25898  0.89611  0.32329  1.0000
  H   H860      1.0  0.99779  0.67647  0.43309  1.0000
  H   H861      1.0  0.23734  0.52406  0.34442  1.0000
  H   H862      1.0  0.25218  0.50703  0.33155  1.0000
  H   H863      1.0  0.26868  0.80861  0.23719  1.0000
  C   C717      1.0  0.25733  0.80190  0.24668  1.0000
  C   C718      1.0  0.30849  0.82067  0.22279  1.0000
  C   C719      1.0  0.17843  0.67312  0.22653  1.0000
  C   C720      1.0  0.12062  0.66095  0.22245  1.0000
  C   C721      1.0  0.19036  0.65564  0.23356  1.0000
  H   H864      1.0  0.14946  0.85277  0.24043  1.0000
  C   C722      1.0  0.20296  0.97002  0.43161  1.0000
  C   C723      1.0  0.26228  0.74722  0.24793  1.0000
  H   H865      1.0  0.27208  0.91035  0.33913  1.0000
  C   C724      1.0  0.00197  0.74331  0.40087  1.0000
  C   C725      1.0  0.02991  0.94023  0.46096  1.0000
  C   C726      1.0  0.08887  0.82918  0.40055  1.0000
  H   H866      1.0  0.28678  0.78400  0.22335  1.0000
  H   H867      1.0  0.27615  0.83642  0.28582  1.0000
  C   C727      1.0  0.23074  0.78091  0.25352  1.0000
  H   H868      1.0  0.10649  0.86509  0.43034  1.0000
  C   C728      1.0  0.27504  0.89999  0.33024  1.0000
  C   C729      1.0  0.01284  0.48822  0.43776  1.0000
  H   H869      1.0  0.08475  0.55911  0.44112  1.0000
  C   C730      1.0  0.18991  0.83004  0.22217  1.0000
  N   N47       1.0  0.22058  0.51567  0.32758  1.0000
  H   H870      1.0  0.15931  0.84276  0.38652  1.0000
  H   H871      1.0  0.01802  0.71171  0.26369  1.0000
  C   C731      1.0  0.11758  0.85985  0.42068  1.0000
  H   H872      1.0  0.22241  0.76980  0.24984  1.0000
  C   C732      1.0  0.29499  0.89125  0.32525  1.0000
  H   H873      1.0  0.29832  0.59015  0.23603  1.0000
  S   S189      1.0  0.26624  0.97595  0.36298  1.0000
  C   C733      1.0  0.10344  0.90511  0.45897  1.0000
  Fe  Fe102     1.0  0.00035  0.57116  0.46689  1.0000
  C   C734      1.0  0.22423  0.49669  0.44590  1.0000
  H   H874      1.0  0.31215  0.84101  0.30058  1.0000
  C   C735      1.0  0.20205  0.64128  0.22412  1.0000
  H   H875      1.0  0.08842  0.49814  0.43507  1.0000
  S   S190      1.0  0.99217  0.85524  0.45247  1.0000
  C   C736      1.0  0.32169  0.60220  0.26371  1.0000
  C   C737      1.0  0.32017  0.79924  0.24617  1.0000
  H   H876      1.0  0.00999  0.72935  0.28762  1.0000
  H   H877      1.0  0.31053  0.56390  0.27543  1.0000
  H   H878      1.0  0.18953  0.53086  0.32725  1.0000
  H   H879      1.0  0.30872  0.59845  0.27236  1.0000
  C   C738      1.0  0.25525  0.97433  0.25632  1.0000
  H   H880      1.0  0.04270  0.60915  0.46697  1.0000
  H   H881      1.0  0.25087  0.49314  0.46652  1.0000
  H   H882      1.0  0.24528  0.81499  0.24956  1.0000
  S   S191      1.0  0.25841  0.60197  0.22325  1.0000
  H   H883      1.0  0.00366  0.75753  0.39221  1.0000
  H   H884      1.0  0.20109  0.49228  0.33469  1.0000
  S   S192      1.0  0.24440  0.49033  0.36930  1.0000
  S   S193      1.0  0.14220  0.97214  0.46721  1.0000
  C   C739      1.0  0.18819  0.98629  0.42675  1.0000
  H   H885      1.0  0.16792  0.61848  0.22188  1.0000
  H   H886      1.0  0.08831  0.98174  0.45584  1.0000
  C   C740      1.0  0.21315  0.48970  0.39453  1.0000
  H   H887      1.0  0.30745  0.89475  0.33049  1.0000
  H   H888      1.0  0.20992  0.50041  0.35107  1.0000
  N   N48       1.0  0.32042  0.57200  0.25005  1.0000
  C   C741      1.0  0.23384  0.50390  0.27850  1.0000
  H   H889      1.0  0.23325  0.98374  0.46604  1.0000
  C   C742      1.0  0.23843  0.49436  0.30634  1.0000
  C   C743      1.0  0.21432  0.49737  0.33844  1.0000
  C   C744      1.0  0.32054  0.55748  0.26519  1.0000
  H   H890      1.0  0.18858  0.48954  0.41446  1.0000
  C   C745      1.0  0.02081  0.95377  0.47168  1.0000
  H   H891      1.0  0.99449  0.77038  0.53602  1.0000
  C   C746      1.0  0.26230  0.70799  0.71521  1.0000
  C   C747      1.0  0.05007  0.73884  0.64349  1.0000
  S   S194      1.0  0.02587  0.69143  0.55297  1.0000
  H   H892      1.0  0.28162  0.91618  0.55756  1.0000
  S   S195      1.0  0.01361  0.73126  0.57251  1.0000
  Fe  Fe103     1.0  0.01390  0.72504  0.54747  1.0000
  S   S196      1.0  0.03041  0.74201  0.52541  1.0000
  Fe  Fe104     1.0  0.02318  0.69737  0.57838  1.0000
  S   S197      1.0  0.04644  0.68084  0.59472  1.0000
  C   C748      1.0  0.05319  0.70316  0.64069  1.0000
  C   C749      1.0  0.07563  0.89875  0.48013  1.0000
  H   H893      1.0  0.07245  0.95642  0.49719  1.0000
  Fe  Fe105     1.0  0.13715  0.95093  0.49024  1.0000
  S   S198      1.0  0.11249  0.93006  0.49733  1.0000
  H   H894      1.0  0.27710  0.94205  0.56116  1.0000
  S   S199      1.0  0.17065  0.94329  0.49279  1.0000
  C   C750      1.0  0.25012  0.63637  0.61623  1.0000
  Fe  Fe106     1.0  0.14664  0.69948  0.62894  1.0000
  S   S200      1.0  0.15608  0.66573  0.63617  1.0000
  S   S201      1.0  0.11769  0.71565  0.61849  1.0000
  Fe  Fe107     1.0  0.18801  0.71009  0.63502  1.0000
  S   S202      1.0  0.20055  0.67707  0.64206  1.0000
  S   S203      1.0  0.20336  0.73803  0.63507  1.0000
  Fe  Fe108     1.0  0.18642  0.67060  0.62164  1.0000
  S   S204      1.0  0.20157  0.65195  0.60189  1.0000
  Fe  Fe109     1.0  0.16921  0.67508  0.65608  1.0000
  S   S205      1.0  0.16771  0.65680  0.68091  1.0000
  S   S206      1.0  0.17643  0.70394  0.61331  1.0000
  S   S207      1.0  0.15729  0.70851  0.65016  1.0000
  N   N49       1.0  0.06578  0.97888  0.47695  1.0000
  S   S208      1.0  0.21949  0.50796  0.59536  1.0000
  Fe  Fe110     1.0  0.27001  0.52517  0.57215  1.0000
  S   S209      1.0  0.23917  0.54483  0.57124  1.0000
  S   S210      1.0  0.29555  0.54153  0.55712  1.0000
  Fe  Fe111     1.0  0.23383  0.53507  0.59770  1.0000
  S   S211      1.0  0.22010  0.55499  0.61693  1.0000
  Fe  Fe112     1.0  0.22741  0.51607  0.56867  1.0000
  S   S212      1.0  0.20169  0.51706  0.55373  1.0000
  S   S213      1.0  0.26526  0.51700  0.59899  1.0000
  S   S214      1.0  0.29160  0.96495  0.58399  1.0000
  Fe  Fe113     1.0  0.27878  0.96326  0.61000  1.0000
  S   S215      1.0  0.27290  0.93458  0.62743  1.0000
  C   C751      1.0  0.18445  0.52532  0.70934  1.0000
  Fe  Fe114     1.0  0.30705  0.77071  0.64773  1.0000
  S   S216      1.0  0.29359  0.80121  0.65578  1.0000
  S   S217      1.0  0.29296  0.74156  0.64955  1.0000
  H   H895      1.0  0.31073  0.88072  0.59628  1.0000
  S   S218      1.0  0.13240  0.97584  0.50575  1.0000
  C   C752      1.0  0.12150  0.70103  0.56836  1.0000
  C   C753      1.0  0.29426  0.86792  0.61845  1.0000
  C   C754      1.0  0.28111  0.87242  0.63228  1.0000
  C   C755      1.0  0.27472  0.89294  0.63484  1.0000
  C   C756      1.0  0.28139  0.90911  0.62360  1.0000
  C   C757      1.0  0.29457  0.90462  0.60977  1.0000
  H   H896      1.0  0.02555  0.58438  0.48475  1.0000
  H   H897      1.0  0.27543  0.86009  0.64075  1.0000
  H   H898      1.0  0.26441  0.89632  0.64553  1.0000
  H   H899      1.0  0.30005  0.91694  0.60118  1.0000
  H   H900      1.0  0.21471  0.71733  0.66890  1.0000
  C   C758      1.0  0.29563  0.92780  0.66651  1.0000
  H   H901      1.0  0.02480  0.97626  0.48534  1.0000
  H   H902      1.0  0.07623  0.59509  0.48846  1.0000
  C   C759      1.0  0.23007  0.98580  0.55014  1.0000
  C   C760      1.0  0.20001  0.50498  0.53701  1.0000
  C   C761      1.0  0.18180  0.50948  0.53008  1.0000
  S   S219      1.0  0.30133  0.84243  0.61435  1.0000
  H   H903      1.0  0.16943  0.52051  0.53475  1.0000
  H   H904      1.0  0.05404  0.51282  0.48665  1.0000
  C   C762      1.0  0.22881  0.73869  0.63805  1.0000
  C   C763      1.0  0.23452  0.75761  0.63921  1.0000
  C   C764      1.0  0.25424  0.75880  0.64238  1.0000
  C   C765      1.0  0.26843  0.74100  0.64454  1.0000
  C   C766      1.0  0.26281  0.72207  0.64325  1.0000
  C   C767      1.0  0.24316  0.72092  0.63988  1.0000
  H   H905      1.0  0.22354  0.77143  0.63777  1.0000
  H   H906      1.0  0.25835  0.77346  0.64333  1.0000
  H   H907      1.0  0.27370  0.70822  0.64489  1.0000
  H   H908      1.0  0.23898  0.70628  0.63895  1.0000
  C   C768      1.0  0.16331  0.67000  0.69765  1.0000
  C   C769      1.0  0.15608  0.69100  0.69624  1.0000
  C   C770      1.0  0.04346  0.61767  0.47694  1.0000
  H   H909      1.0  0.28141  0.56311  0.60635  1.0000
  H   H910      1.0  0.15211  0.69921  0.68494  1.0000
  C   C771      1.0  0.16102  0.68951  0.57835  1.0000
  C   C772      1.0  0.00805  0.74870  0.60966  1.0000
  C   C773      1.0  0.20496  0.62494  0.60606  1.0000
  C   C774      1.0  0.20079  0.61488  0.62166  1.0000
  C   C775      1.0  0.20509  0.59337  0.62478  1.0000
  C   C776      1.0  0.21322  0.58178  0.61233  1.0000
  C   C777      1.0  0.21653  0.59181  0.59664  1.0000
  C   C778      1.0  0.21262  0.61334  0.59355  1.0000
  H   H911      1.0  0.19482  0.62368  0.63138  1.0000
  H   H912      1.0  0.20236  0.58571  0.63694  1.0000
  H   H913      1.0  0.22228  0.58297  0.58695  1.0000
  H   H914      1.0  0.21571  0.62103  0.58144  1.0000
  H   H915      1.0  0.23871  0.70427  0.67406  1.0000
  H   H916      1.0  0.01529  0.60833  0.52075  1.0000
  C   C779      1.0  0.02414  0.72719  0.63127  1.0000
  H   H917      1.0  0.31656  0.87932  0.64098  1.0000
  H   H918      1.0  0.29145  0.94124  0.65801  1.0000
  Fe  Fe115     1.0  0.01066  0.84766  0.47294  1.0000
  C   C780      1.0  0.06629  0.69086  0.60097  1.0000
  C   C781      1.0  0.08007  0.67752  0.61007  1.0000
  C   C782      1.0  0.09586  0.68480  0.61553  1.0000
  C   C783      1.0  0.09817  0.70552  0.61183  1.0000
  C   C784      1.0  0.08429  0.71888  0.60280  1.0000
  C   C785      1.0  0.06845  0.71161  0.59737  1.0000
  H   H919      1.0  0.07840  0.66148  0.61304  1.0000
  H   H920      1.0  0.10598  0.67442  0.62286  1.0000
  H   H921      1.0  0.08583  0.73496  0.59998  1.0000
  H   H922      1.0  0.05798  0.72205  0.59039  1.0000
  H   H923      1.0  0.23977  0.91112  0.60716  1.0000
  H   H924      1.0  0.26832  0.88700  0.56322  1.0000
  C   C786      1.0  0.19052  0.52461  0.69304  1.0000
  C   C787      1.0  0.21423  0.97772  0.56080  1.0000
  H   H925      1.0  0.07519  0.71600  0.65016  1.0000
  C   C788      1.0  0.30087  0.58887  0.58441  1.0000
  H   H926      1.0  0.28194  0.55636  0.58704  1.0000
  C   C789      1.0  0.10215  0.91770  0.48428  1.0000
  C   C790      1.0  0.09562  0.67228  0.56879  1.0000
  C   C791      1.0  0.21589  0.49073  0.53079  1.0000
  H   H927      1.0  0.17349  0.64317  0.71372  1.0000
  H   H928      1.0  0.00886  0.76359  0.61344  1.0000
  Fe  Fe116     1.0  0.31086  0.81549  0.63295  1.0000
  H   H929      1.0  0.24205  0.94271  0.55476  1.0000
  C   C792      1.0  0.00507  0.80724  0.50424  1.0000
  C   C793      1.0  0.02281  0.79662  0.49661  1.0000
  C   C794      1.0  0.03037  0.77662  0.50323  1.0000
  C   C795      1.0  0.02022  0.76705  0.51746  1.0000
  H   H930      1.0  0.25669  0.58490  0.61896  1.0000
  C   C796      1.0  0.00239  0.77762  0.52505  1.0000
  H   H931      1.0  0.03078  0.80382  0.48567  1.0000
  H   H932      1.0  0.04417  0.76852  0.49731  1.0000
  C   C797      1.0  0.24782  0.94008  0.58507  1.0000
  C   C798      1.0  0.08405  0.90920  0.48992  1.0000
  N   N50       1.0  0.04337  0.60400  0.49250  1.0000
  H   H933      1.0  0.06174  0.89221  0.48464  1.0000
  H   H934      1.0  0.21222  0.98424  0.51499  1.0000
  C   C799      1.0  0.30077  0.88410  0.60712  1.0000
  H   H935      1.0  0.23146  0.94045  0.59031  1.0000
  H   H936      1.0  0.30885  0.84411  0.66326  1.0000
  H   H937      1.0  0.16518  0.50327  0.51214  1.0000
  H   H938      1.0  0.30745  0.87946  0.69721  1.0000
  S   S220      1.0  0.17619  0.96580  0.53167  1.0000
  C   C800      1.0  0.22550  0.71581  0.67783  1.0000
  S   S221      1.0  0.25859  0.49698  0.56769  1.0000
  H   H939      1.0  0.28324  0.94279  0.68712  1.0000
  C   C801      1.0  0.14931  0.88443  0.58190  1.0000
  C   C802      1.0  0.14433  0.66534  0.59766  1.0000
  H   H940      1.0  0.24915  0.95557  0.57824  1.0000
  C   C803      1.0  0.20128  0.48805  0.69865  1.0000
  C   C804      1.0  0.28494  0.76896  0.70379  1.0000
  H   H941      1.0  0.26040  0.65738  0.59593  1.0000
  H   H942      1.0  0.18667  0.72633  0.68824  1.0000
  H   H943      1.0  0.28678  0.92211  0.57607  1.0000
  H   H944      1.0  0.26878  0.85237  0.57789  1.0000
  C   C805      1.0  0.00044  0.71443  0.61710  1.0000
  N   N51       1.0  0.27842  0.58894  0.58755  1.0000
  C   C806      1.0  0.29086  0.92864  0.68288  1.0000
  H   H945      1.0  0.02457  0.58193  0.50585  1.0000
  H   H946      1.0  0.14857  0.71777  0.70824  1.0000
  H   H947      1.0  0.01075  0.60431  0.49510  1.0000
  H   H948      1.0  0.07167  0.64925  0.51565  1.0000
  H   H949      1.0  0.26764  0.76530  0.68566  1.0000
  H   H950      1.0  0.08511  0.66138  0.56955  1.0000
  H   H951      1.0  0.01668  0.62882  0.54124  1.0000
  H   H952      1.0  0.15244  0.64223  0.57447  1.0000
  C   C807      1.0  0.02868  0.62844  0.53104  1.0000
  C   C808      1.0  0.19697  0.97406  0.53836  1.0000
  C   C809      1.0  0.24566  0.87898  0.60802  1.0000
  H   H953      1.0  0.24114  0.61209  0.63438  1.0000
  C   C810      1.0  0.31058  0.89152  0.67170  1.0000
  H   H954      1.0  0.20366  0.50548  0.67500  1.0000
  H   H955      1.0  0.25810  0.56683  0.59743  1.0000
  H   H956      1.0  0.05609  0.75113  0.64713  1.0000
  N   N52       1.0  0.00544  0.73212  0.62338  1.0000
  C   C811      1.0  0.15403  0.70147  0.70947  1.0000
  H   H957      1.0  0.25724  0.93814  0.59498  1.0000
  N   N53       1.0  0.13716  0.91251  0.54097  1.0000
  C   C812      1.0  0.12205  0.89951  0.53906  1.0000
  C   C813      1.0  0.12674  0.93405  0.53977  1.0000
  C   C814      1.0  0.15400  0.91077  0.52744  1.0000
  C   C815      1.0  0.14570  0.90669  0.55628  1.0000
  C   C816      1.0  0.14078  0.88950  0.56762  1.0000
  C   C817      1.0  0.15972  0.91820  0.56012  1.0000
  H   H958      1.0  0.17865  0.92226  0.57704  1.0000
  C   C818      1.0  0.25002  0.71015  0.70309  1.0000
  H   H959      1.0  0.12914  0.88323  0.53882  1.0000
  H   H960      1.0  0.10873  0.90037  0.54871  1.0000
  H   H961      1.0  0.11575  0.90449  0.52751  1.0000
  H   H962      1.0  0.11486  0.93641  0.55028  1.0000
  H   H963      1.0  0.11913  0.93853  0.52880  1.0000
  H   H964      1.0  0.13755  0.94523  0.53896  1.0000
  H   H965      1.0  0.16289  0.89508  0.52826  1.0000
  H   H966      1.0  0.14806  0.91410  0.51571  1.0000
  H   H967      1.0  0.16492  0.92174  0.52701  1.0000
  H   H968      1.0  0.13041  0.87968  0.56575  1.0000
  H   H969      1.0  0.16436  0.93130  0.55201  1.0000
  H   H970      1.0  0.00735  0.50467  0.48188  1.0000
  C   C819      1.0  0.24951  0.61590  0.62257  1.0000
  C   C820      1.0  0.06611  0.97294  0.49440  1.0000
  H   H971      1.0  0.03078  0.69410  0.62978  1.0000
  H   H972      1.0  0.32216  0.51117  0.57625  1.0000
  C   C821      1.0  0.25857  0.60034  0.61347  1.0000
  C   C822      1.0  0.24579  0.89897  0.60002  1.0000
  H   H973      1.0  0.25326  0.59490  0.57391  1.0000
  H   H974      1.0  0.27469  0.60740  0.56454  1.0000
  H   H975      1.0  0.27739  0.63064  0.57994  1.0000
  H   H976      1.0  0.05061  0.97540  0.50140  1.0000
  H   H977      1.0  0.13427  0.65327  0.60044  1.0000
  H   H978      1.0  0.04424  0.64972  0.53886  1.0000
  H   H979      1.0  0.13707  0.67795  0.60463  1.0000
  H   H980      1.0  0.16186  0.66108  0.55867  1.0000
  C   C823      1.0  0.32135  0.53963  0.56024  1.0000
  H   H981      1.0  0.07650  0.91057  0.50196  1.0000
  N   N54       1.0  0.31968  0.87169  0.66614  1.0000
  C   C824      1.0  0.16809  0.91306  0.57443  1.0000
  H   H982      1.0  0.19928  0.68963  0.68528  1.0000
  H   H983      1.0  0.11809  0.65007  0.57923  1.0000
  H   H984      1.0  0.13041  0.71307  0.56827  1.0000
  C   C825      1.0  0.12811  0.68018  0.57428  1.0000
  H   H985      1.0  0.07170  0.62826  0.49484  1.0000
  H   H986      1.0  0.23078  0.73098  0.67656  1.0000
  H   H987      1.0  0.09107  0.50571  0.47653  1.0000
  H   H988      1.0  0.14538  0.87125  0.59038  1.0000
  H   H989      1.0  0.20125  0.74024  0.69742  1.0000
  C   C826      1.0  0.19706  0.72485  0.69745  1.0000
  H   H990      1.0  0.07487  0.69762  0.55893  1.0000
  C   C827      1.0  0.04423  0.64024  0.52973  1.0000
  H   H991      1.0  0.99848  0.67518  0.49385  1.0000
  C   C828      1.0  0.30533  0.90959  0.66094  1.0000
  C   C829      1.0  0.15985  0.65629  0.57185  1.0000
  C   C830      1.0  0.27475  0.56797  0.59499  1.0000
  C   C831      1.0  0.11448  0.66602  0.57441  1.0000
  C   C832      1.0  0.03523  0.70706  0.63366  1.0000
  C   C833      1.0  0.26794  0.76444  0.69841  1.0000
  H   H992      1.0  0.29140  0.91174  0.70649  1.0000
  H   H993      1.0  0.30503  0.60363  0.57770  1.0000
  C   C834      1.0  0.19792  0.97175  0.55493  1.0000
  H   H994      1.0  0.29817  0.85393  0.68151  1.0000
  H   H995      1.0  0.18581  0.96553  0.56329  1.0000
  C   C835      1.0  0.06079  0.71903  0.64534  1.0000
  C   C836      1.0  0.02812  0.61664  0.51910  1.0000
  C   C837      1.0  0.08976  0.69275  0.56287  1.0000
  N   N55       1.0  0.14799  0.67312  0.58036  1.0000
  H   H996      1.0  0.18769  0.72072  0.70914  1.0000
  C   C838      1.0  0.25397  0.86228  0.60005  1.0000
  H   H997      1.0  0.09771  0.72309  0.55847  1.0000
  H   H998      1.0  0.24598  0.91599  0.55348  1.0000
  H   H999      1.0  0.18906  0.48661  0.58150  1.0000
  C   C839      1.0  0.16290  0.89620  0.58531  1.0000
  H   H1000     1.0  0.20025  0.68413  0.70630  1.0000
  H   H1001     1.0  0.22260  0.67726  0.69259  1.0000
  H   H1002     1.0  0.15886  0.65853  0.60240  1.0000
  H   H1003     1.0  0.22515  0.92652  0.56721  1.0000
  C   C840      1.0  0.24141  0.92732  0.56203  1.0000
  H   H1004     1.0  0.16456  0.69602  0.56555  1.0000
  C   C841      1.0  0.26194  0.88537  0.57573  1.0000
  H   H1005     1.0  0.24223  0.64839  0.62306  1.0000
  C   C842      1.0  0.03251  0.96620  0.47685  1.0000
  H   H1006     1.0  0.17594  0.68362  0.58284  1.0000
  N   N56       1.0  0.21555  0.70952  0.69432  1.0000
  H   H1007     1.0  0.28983  0.86659  0.66313  1.0000
  C   C843      1.0  0.04347  0.61616  0.50547  1.0000
  H   H1008     1.0  0.15362  0.70212  0.58536  1.0000
  C   C844      1.0  0.30346  0.85852  0.66858  1.0000
  C   C845      1.0  0.26884  0.60494  0.59767  1.0000
  S   S222      1.0  0.32107  0.81168  0.68898  1.0000
  N   N57       1.0  0.25476  0.92372  0.57473  1.0000
  C   C846      1.0  0.22894  0.70791  0.70678  1.0000
  C   C847      1.0  0.05961  0.63998  0.51663  1.0000
  C   C848      1.0  0.05939  0.62801  0.50473  1.0000
  C   C849      1.0  0.26970  0.62596  0.59176  1.0000
  C   C850      1.0  0.27596  0.92603  0.56707  1.0000
  C   C851      1.0  0.06186  0.58824  0.49159  1.0000
  C   C852      1.0  0.20916  0.68930  0.69465  1.0000
  H   H1009     1.0  0.06169  0.68780  0.64204  1.0000
  H   H1010     1.0  0.02235  0.74464  0.60142  1.0000
  C   C853      1.0  0.25415  0.90278  0.58359  1.0000
  H   H1011     1.0  0.23983  0.87640  0.62066  1.0000
  H   H1012     1.0  0.17538  0.65149  0.57557  1.0000
  S   S223      1.0  0.99526  0.83248  0.49641  1.0000
  H   H1013     1.0  0.16944  0.89221  0.59639  1.0000
  C   C854      1.0  0.10265  0.70708  0.56268  1.0000
  H   H1014     1.0  0.18872  0.53850  0.68450  1.0000
  H   H1015     1.0  0.99500  0.75163  0.60258  1.0000
  H   H1016     1.0  0.25470  0.84683  0.60650  1.0000
  H   H1017     1.0  0.06194  0.57830  0.48231  1.0000
  C   C855      1.0  0.17934  0.49974  0.51723  1.0000
  H   H1018     1.0  0.99717  0.70166  0.62682  1.0000
  Fe  Fe117     1.0  0.99278  0.68751  0.55835  1.0000
  C   C856      1.0  0.27024  0.59323  0.57203  1.0000
  H   H1019     1.0  0.30756  0.58603  0.59579  1.0000
  H   H1020     1.0  0.00459  0.95452  0.47603  1.0000
  S   S224      1.0  0.02191  0.54386  0.47674  1.0000
  C   C857      1.0  0.06070  0.52298  0.47672  1.0000
  Fe  Fe118     1.0  0.16641  0.96997  0.50660  1.0000
  C   C858      1.0  0.29549  0.91114  0.69376  1.0000
  C   C859      1.0  0.03189  0.74288  0.63673  1.0000
  C   C860      1.0  0.26203  0.86546  0.58393  1.0000
  C   C861      1.0  0.16799  0.65945  0.71253  1.0000
  H   H1021     1.0  0.17790  0.53987  0.71340  1.0000
  H   H1022     1.0  0.25742  0.71356  0.69094  1.0000
  H   H1023     1.0  0.07580  0.98195  0.49904  1.0000
  C   C862      1.0  0.26027  0.64139  0.60088  1.0000
  C   C863      1.0  0.21266  0.98235  0.52774  1.0000
  C   C864      1.0  0.02524  0.59324  0.49474  1.0000
  H   H1024     1.0  0.27595  0.58067  0.56462  1.0000
  Fe  Fe119     1.0  0.25117  0.49049  0.59472  1.0000
  Fe  Fe120     1.0  0.32323  0.79859  0.66579  1.0000
  H   H1025     1.0  0.29778  0.77353  0.69522  1.0000
  H   H1026     1.0  0.02413  0.75848  0.63557  1.0000
  C   C865      1.0  0.19893  0.50601  0.68771  1.0000
  C   C866      1.0  0.30497  0.89277  0.68830  1.0000
  H   H1027     1.0  0.06266  0.57804  0.50324  1.0000
  C   C867      1.0  0.99487  0.79767  0.51846  1.0000
  H   H1028     1.0  0.01314  0.70852  0.60815  1.0000
  H   H1029     1.0  0.31498  0.82188  0.72077  1.0000
  H   H1030     1.0  0.05747  0.62504  0.47347  1.0000
  S   S225      1.0  0.32171  0.78514  0.62411  1.0000
  C   C868      1.0  0.19521  0.48814  0.71534  1.0000
  C   C869      1.0  0.25136  0.75887  0.70944  1.0000
  H   H1031     1.0  0.30812  0.91006  0.64809  1.0000
  C   C870      1.0  0.99170  0.66503  0.50373  1.0000
  H   H1032     1.0  0.23811  0.75543  0.70521  1.0000
  C   C871      1.0  0.00502  0.48928  0.48120  1.0000
  S   S226      1.0  0.29850  0.98498  0.61496  1.0000
  H   H1033     1.0  0.21448  0.97618  0.57354  1.0000
  H   H1034     1.0  0.30864  0.57667  0.57712  1.0000
  H   H1035     1.0  0.03009  0.63014  0.47733  1.0000
  H   H1036     1.0  0.99609  0.68262  0.52163  1.0000
  H   H1037     1.0  0.09603  0.96196  0.47181  1.0000
  H   H1038     1.0  0.27832  0.70980  0.71214  1.0000
  C   C872      1.0  0.18673  0.50742  0.72040  1.0000
  S   S227      1.0  0.01680  0.87979  0.47224  1.0000
  S   S228      1.0  0.99074  0.69056  0.58442  1.0000
  H   H1039     1.0  0.23007  0.48724  0.53582  1.0000
  C   C873      1.0  0.32285  0.80632  0.72118  1.0000
  C   C874      1.0  0.28545  0.76786  0.72019  1.0000
  H   H1040     1.0  0.19085  0.84369  0.83639  1.0000
  N   N58       1.0  0.22333  0.86438  0.83906  1.0000
  C   C875      1.0  0.00623  0.95531  0.90113  1.0000
  H   H1041     1.0  0.29885  0.77172  0.72377  1.0000
  H   H1042     1.0  0.30695  0.97809  0.85349  1.0000
  Fe  Fe121     1.0  0.22005  0.94365  0.86434  1.0000
  S   S229      1.0  0.23538  0.92927  0.84270  1.0000
  S   S230      1.0  0.18596  0.94670  0.87353  1.0000
  Fe  Fe122     1.0  0.25973  0.95740  0.86970  1.0000
  S   S231      1.0  0.27810  0.94378  0.84846  1.0000
  C   C876      1.0  0.16625  0.67001  0.72574  1.0000
  Fe  Fe123     1.0  0.25115  0.95731  0.83543  1.0000
  Fe  Fe124     1.0  0.26096  0.91705  0.85722  1.0000
  S   S232      1.0  0.27477  0.88354  0.85963  1.0000
  H   H1043     1.0  0.01687  0.63297  0.83113  1.0000
  S   S233      1.0  0.24456  0.92959  0.87958  1.0000
  Fe  Fe125     1.0  0.05445  0.91766  0.89357  1.0000
  S   S234      1.0  0.07175  0.89731  0.87586  1.0000
  S   S235      1.0  0.04584  0.95158  0.88531  1.0000
  Fe  Fe126     1.0  0.05709  0.88334  0.92143  1.0000
  S   S236      1.0  0.07459  0.86016  0.90596  1.0000
  S   S237      1.0  0.04568  0.87471  0.94772  1.0000
  Fe  Fe127     1.0  0.09272  0.88563  0.89435  1.0000
  S   S238      1.0  0.12740  0.87801  0.88817  1.0000
  Fe  Fe128     1.0  0.05224  0.87356  0.88869  1.0000
  S   S239      1.0  0.03716  0.85717  0.87331  1.0000
  S   S240      1.0  0.07684  0.90761  0.91130  1.0000
  S   S241      1.0  0.03334  0.89508  0.90497  1.0000
  Fe  Fe129     1.0  0.21670  0.51453  0.84290  1.0000
  S   S242      1.0  0.22043  0.54825  0.83817  1.0000
  Fe  Fe130     1.0  0.16906  0.68921  0.76320  1.0000
  S   S243      1.0  0.17531  0.70882  0.78034  1.0000
  C   C877      1.0  0.26322  0.52439  0.80369  1.0000
  Fe  Fe131     1.0  0.17933  0.64934  0.78543  1.0000
  S   S244      1.0  0.18687  0.66573  0.80409  1.0000
  S   S245      1.0  0.17728  0.61539  0.78783  1.0000
  Fe  Fe132     1.0  0.15833  0.68781  0.79925  1.0000
  S   S246      1.0  0.13531  0.69604  0.82066  1.0000
  Fe  Fe133     1.0  0.20313  0.68529  0.78355  1.0000
  S   S247      1.0  0.23586  0.69193  0.78103  1.0000
  S   S248      1.0  0.14985  0.67022  0.78188  1.0000
  S   S249      1.0  0.19784  0.66691  0.76512  1.0000
  C   C878      1.0  0.06022  0.63003  0.82604  1.0000
  H   H1044     1.0  0.23130  0.87873  0.85757  1.0000
  S   S250      1.0  0.02027  0.76423  0.88345  1.0000
  Fe  Fe134     1.0  0.01630  0.72955  0.83655  1.0000
  S   S251      1.0  0.04089  0.72584  0.81509  1.0000
  S   S252      1.0  0.02440  0.71846  0.86108  1.0000
  Fe  Fe135     1.0  0.29763  0.76791  0.80566  1.0000
  S   S253      1.0  0.30267  0.79133  0.78393  1.0000
  S   S254      1.0  0.26554  0.75953  0.81260  1.0000
  C   C879      1.0  0.00724  0.97766  0.94507  1.0000
  H   H1045     1.0  0.22715  0.69767  0.74769  1.0000
  H   H1046     1.0  0.23735  0.76565  0.75715  1.0000
  C   C880      1.0  0.10917  0.70420  0.81882  1.0000
  C   C881      1.0  0.10227  0.70923  0.80389  1.0000
  C   C882      1.0  0.08135  0.71597  0.80294  1.0000
  C   C883      1.0  0.06711  0.71752  0.81687  1.0000
  C   C884      1.0  0.07402  0.71215  0.83179  1.0000
  C   C885      1.0  0.09495  0.70574  0.83274  1.0000
  H   H1047     1.0  0.11309  0.70817  0.79306  1.0000
  H   H1048     1.0  0.07619  0.72000  0.79132  1.0000
  H   H1049     1.0  0.06338  0.71314  0.84263  1.0000
  H   H1050     1.0  0.10018  0.70194  0.84433  1.0000
  C   C886      1.0  0.24375  0.71022  0.79058  1.0000
  C   C887      1.0  0.22971  0.72369  0.79930  1.0000
  C   C888      1.0  0.23663  0.73850  0.80623  1.0000
  C   C889      1.0  0.25758  0.74003  0.80444  1.0000
  C   C890      1.0  0.27162  0.72641  0.79585  1.0000
  C   C891      1.0  0.26471  0.71165  0.78890  1.0000
  H   H1051     1.0  0.21354  0.72275  0.80067  1.0000
  H   H1052     1.0  0.22567  0.74891  0.81291  1.0000
  H   H1053     1.0  0.28780  0.72723  0.79460  1.0000
  H   H1054     1.0  0.27568  0.70120  0.78226  1.0000
  C   C892      1.0  0.20733  0.56696  0.82482  1.0000
  C   C893      1.0  0.19273  0.56224  0.81659  1.0000
  C   C894      1.0  0.18354  0.57729  0.80536  1.0000
  C   C895      1.0  0.18856  0.59723  0.80250  1.0000
  C   C896      1.0  0.20263  0.60216  0.81110  1.0000
  C   C897      1.0  0.21204  0.58702  0.82217  1.0000
  H   H1055     1.0  0.18867  0.54695  0.81876  1.0000
  H   H1056     1.0  0.17259  0.57343  0.79878  1.0000
  H   H1057     1.0  0.20670  0.61745  0.80891  1.0000
  H   H1058     1.0  0.22330  0.59079  0.82850  1.0000
  C   C898      1.0  0.27565  0.49377  0.88657  1.0000
  S   S255      1.0  0.99919  0.76012  0.84246  1.0000
  H   H1059     1.0  0.11414  0.86354  0.92316  1.0000
  C   C899      1.0  0.03196  0.83145  0.87677  1.0000
  C   C900      1.0  0.02180  0.82483  0.86584  1.0000
  C   C901      1.0  0.01798  0.80440  0.86773  1.0000
  C   C902      1.0  0.02436  0.79029  0.88060  1.0000
  C   C903      1.0  0.03450  0.79690  0.89153  1.0000
  C   C904      1.0  0.03826  0.81736  0.88967  1.0000
  H   H1060     1.0  0.01688  0.83561  0.85582  1.0000
  H   H1061     1.0  0.16505  0.86091  0.92992  1.0000
  H   H1062     1.0  0.03947  0.78614  0.90154  1.0000
  H   H1063     1.0  0.04613  0.82218  0.89814  1.0000
  C   C905      1.0  0.28582  0.87208  0.84249  1.0000
  C   C906      1.0  0.29085  0.85067  0.84402  1.0000
  C   C907      1.0  0.29893  0.84090  0.83054  1.0000
  C   C908      1.0  0.30252  0.85251  0.81546  1.0000
  C   C909      1.0  0.29772  0.87395  0.81397  1.0000
  C   C910      1.0  0.28923  0.88373  0.82741  1.0000
  H   H1064     1.0  0.28823  0.84158  0.85566  1.0000
  H   H1065     1.0  0.30250  0.82441  0.83190  1.0000
  H   H1066     1.0  0.26979  0.50192  0.87586  1.0000
  H   H1067     1.0  0.28541  0.90025  0.82611  1.0000
  C   C911      1.0  0.17010  0.92725  0.87713  1.0000
  C   C912      1.0  0.14887  0.93277  0.88108  1.0000
  C   C913      1.0  0.13562  0.91792  0.88421  1.0000
  C   C914      1.0  0.14349  0.89729  0.88358  1.0000
  C   C915      1.0  0.16475  0.89167  0.87975  1.0000
  C   C916      1.0  0.17802  0.90659  0.87647  1.0000
  H   H1068     1.0  0.14260  0.94871  0.88160  1.0000
  H   H1069     1.0  0.11930  0.92247  0.88710  1.0000
  H   H1070     1.0  0.17096  0.87571  0.87937  1.0000
  H   H1071     1.0  0.19434  0.90214  0.87361  1.0000
  H   H1072     1.0  0.24957  0.73912  0.75849  1.0000
  H   H1073     1.0  0.01828  0.90274  0.96699  1.0000
  C   C917      1.0  0.07439  0.89010  0.96045  1.0000
  S   S256      1.0  0.19830  0.49770  0.83118  1.0000
  H   H1074     1.0  0.08019  0.89594  0.94831  1.0000
  C   C918      1.0  0.25722  0.51985  0.77774  1.0000
  H   H1075     1.0  0.29373  0.94922  0.96702  1.0000
  C   C919      1.0  0.01473  0.94470  0.96219  1.0000
  C   C920      1.0  0.28810  0.97067  0.89880  1.0000
  H   H1076     1.0  0.24630  0.52178  0.76896  1.0000
  H   H1077     1.0  0.02339  0.98029  0.92106  1.0000
  C   C921      1.0  0.24264  0.52272  0.91096  1.0000
  H   H1078     1.0  0.29375  0.93848  0.89688  1.0000
  C   C922      1.0  0.23633  0.87591  0.82615  1.0000
  S   S257      1.0  0.23381  0.97277  0.85597  1.0000
  C   C923      1.0  0.02143  0.96504  0.89108  1.0000
  C   C924      1.0  0.26655  0.94404  0.94675  1.0000
  H   H1079     1.0  0.23856  0.75283  0.73375  1.0000
  H   H1080     1.0  0.26355  0.70182  0.74063  1.0000
  H   H1081     1.0  0.14830  0.86735  0.91503  1.0000
  H   H1082     1.0  0.29315  0.51725  0.88868  1.0000
  H   H1083     1.0  0.99292  0.63157  0.89492  1.0000
  H   H1084     1.0  0.01000  0.79965  0.85930  1.0000
  H   H1085     1.0  0.22207  0.55035  0.77103  1.0000
  H   H1086     1.0  0.19559  0.87826  0.82936  1.0000
  Fe  Fe136     1.0  0.00603  0.74812  0.86744  1.0000
  H   H1087     1.0  0.13863  0.90086  0.95478  1.0000
  H   H1088     1.0  0.26623  0.92322  0.93007  1.0000
  C   C925      1.0  0.31341  0.96048  0.92332  1.0000
  H   H1089     1.0  0.23594  0.89194  0.82828  1.0000
  H   H1090     1.0  0.06614  0.49988  0.86116  1.0000
  H   H1091     1.0  0.31591  0.92949  0.91839  1.0000
  C   C926      1.0  0.05207  0.65120  0.82333  1.0000
  H   H1092     1.0  0.27661  0.93260  0.95336  1.0000
  C   C927      1.0  0.24753  0.58815  0.78813  1.0000
  H   H1093     1.0  0.09445  0.66756  0.79954  1.0000
  H   H1094     1.0  0.27127  0.52606  0.77148  1.0000
  H   H1095     1.0  0.30051  0.88305  0.80235  1.0000
  H   H1096     1.0  0.28656  0.78721  0.74619  1.0000
  H   H1097     1.0  0.22937  0.61167  0.77390  1.0000
  H   H1098     1.0  0.27803  0.52449  0.96254  1.0000
  H   H1099     1.0  0.23132  0.87648  0.81429  1.0000
  C   C928      1.0  0.15954  0.69113  0.72414  1.0000
  C   C929      1.0  0.26067  0.93837  0.93335  1.0000
  C   C930      1.0  0.22964  0.56041  0.77594  1.0000
  H   H1100     1.0  0.23158  0.52361  0.96481  1.0000
  C   C931      1.0  0.25404  0.70360  0.73123  1.0000
  H   H1101     1.0  0.05156  0.61880  0.83333  1.0000
  C   C932      1.0  0.22470  0.58149  0.77123  1.0000
  H   H1102     1.0  0.21339  0.58726  0.76320  1.0000
  C   C933      1.0  0.06507  0.66443  0.81363  1.0000
  H   H1103     1.0  0.13576  0.91315  0.92015  1.0000
  H   H1104     1.0  0.16493  0.88483  0.91651  1.0000
  H   H1105     1.0  0.28725  0.73119  0.75168  1.0000
  C   C934      1.0  0.20248  0.87649  0.84058  1.0000
  C   C935      1.0  0.23369  0.59532  0.77726  1.0000
  H   H1106     1.0  0.26648  0.50744  0.80707  1.0000
  H   H1107     1.0  0.26268  0.56273  0.80197  1.0000
  H   H1108     1.0  0.19346  0.80920  0.83009  1.0000
  H   H1109     1.0  0.23249  0.50499  0.80335  1.0000
  H   H1110     1.0  0.99207  0.91417  0.96898  1.0000
  C   C936      1.0  0.29667  0.49216  0.90788  1.0000
  H   H1111     1.0  0.22720  0.78763  0.82524  1.0000
  H   H1112     1.0  0.27141  0.78265  0.76519  1.0000
  N   N59       1.0  0.06699  0.77569  0.83447  1.0000
  C   C937      1.0  0.05667  0.78412  0.82017  1.0000
  C   C938      1.0  0.08650  0.76294  0.82905  1.0000
  C   C939      1.0  0.05346  0.76242  0.84534  1.0000
  C   C940      1.0  0.07128  0.79162  0.84309  1.0000
  C   C941      1.0  0.06648  0.81298  0.83783  1.0000
  C   C942      1.0  0.08073  0.78588  0.85718  1.0000
  C   C943      1.0  0.07091  0.82752  0.84627  1.0000
  C   C944      1.0  0.08498  0.80057  0.86555  1.0000
  C   C945      1.0  0.08010  0.82135  0.86008  1.0000
  H   H1113     1.0  0.05347  0.77167  0.81412  1.0000
  H   H1114     1.0  0.04159  0.79346  0.82352  1.0000
  H   H1115     1.0  0.06632  0.79362  0.81108  1.0000
  H   H1116     1.0  0.09773  0.77264  0.82198  1.0000
  H   H1117     1.0  0.08425  0.75194  0.82129  1.0000
  H   H1118     1.0  0.09376  0.75362  0.83921  1.0000
  H   H1119     1.0  0.03908  0.77171  0.85021  1.0000
  H   H1120     1.0  0.04911  0.75086  0.83908  1.0000
  H   H1121     1.0  0.06057  0.75382  0.85579  1.0000
  H   H1122     1.0  0.05892  0.81892  0.82747  1.0000
  H   H1123     1.0  0.08461  0.76996  0.86199  1.0000
  H   H1124     1.0  0.06642  0.84376  0.84251  1.0000
  H   H1125     1.0  0.09160  0.79588  0.87656  1.0000
  H   H1126     1.0  0.26123  0.54031  0.94977  1.0000
  C   C946      1.0  0.11392  0.85977  0.93598  1.0000
  H   H1127     1.0  0.29217  0.98326  0.95168  1.0000
  C   C947      1.0  0.25239  0.56711  0.79310  1.0000
  C   C948      1.0  0.09973  0.84063  0.96063  1.0000
  H   H1128     1.0  0.09105  0.84010  0.93768  1.0000
  H   H1129     1.0  0.30270  0.75143  0.74721  1.0000
  H   H1130     1.0  0.27815  0.52970  0.79877  1.0000
  H   H1131     1.0  0.21770  0.52426  0.79129  1.0000
  H   H1132     1.0  0.05997  0.68068  0.81111  1.0000
  C   C949      1.0  0.29684  0.95034  0.90295  1.0000
  C   C950      1.0  0.08006  0.62276  0.81923  1.0000
  H   H1133     1.0  0.22249  0.52900  0.81023  1.0000
  C   C951      1.0  0.01974  0.67193  0.81786  1.0000
  C   C952      1.0  0.03319  0.67313  0.84210  1.0000
  S   S258      1.0  0.20662  0.49976  0.86784  1.0000
  C   C953      1.0  0.12660  0.90105  0.92650  1.0000
  H   H1134     1.0  0.03761  0.92281  0.94999  1.0000
  N   N60       1.0  0.03131  0.65964  0.83051  1.0000
  C   C954      1.0  0.24363  0.55253  0.78705  1.0000
  N   N61       1.0  0.24842  0.53012  0.79195  1.0000
  S   S259      1.0  0.25650  0.96995  0.80881  1.0000
  C   C955      1.0  0.24293  0.83038  0.83276  1.0000
  H   H1135     1.0  0.25270  0.86903  0.82515  1.0000
  H   H1136     1.0  0.99832  0.96455  0.86588  1.0000
  C   C956      1.0  0.24958  0.50810  0.93819  1.0000
  C   C957      1.0  0.02880  0.93800  0.94908  1.0000
  N   N62       1.0  0.14605  0.62881  0.83959  1.0000
  C   C958      1.0  0.14772  0.63388  0.82194  1.0000
  C   C959      1.0  0.15559  0.64384  0.84578  1.0000
  C   C960      1.0  0.15827  0.60830  0.84329  1.0000
  C   C961      1.0  0.12419  0.62994  0.84652  1.0000
  C   C962      1.0  0.11558  0.61277  0.85542  1.0000
  C   C963      1.0  0.11076  0.64873  0.84443  1.0000
  C   C964      1.0  0.09493  0.61463  0.86211  1.0000
  C   C965      1.0  0.09020  0.65045  0.85116  1.0000
  C   C966      1.0  0.08231  0.63345  0.86008  1.0000
  H   H1137     1.0  0.14045  0.64976  0.81802  1.0000
  H   H1138     1.0  0.16397  0.63281  0.81635  1.0000
  H   H1139     1.0  0.14068  0.62312  0.81667  1.0000
  H   H1140     1.0  0.17223  0.64295  0.84118  1.0000
  H   H1141     1.0  0.15384  0.64123  0.85909  1.0000
  H   H1142     1.0  0.14883  0.65996  0.84205  1.0000
  H   H1143     1.0  0.15301  0.59637  0.83794  1.0000
  H   H1144     1.0  0.17470  0.60821  0.83827  1.0000
  H   H1145     1.0  0.15787  0.60351  0.85642  1.0000
  H   H1146     1.0  0.12449  0.59777  0.85748  1.0000
  H   H1147     1.0  0.11614  0.66233  0.83759  1.0000
  H   H1148     1.0  0.08874  0.60141  0.86904  1.0000
  H   H1149     1.0  0.08045  0.66512  0.84947  1.0000
  H   H1150     1.0  0.06641  0.63487  0.86546  1.0000
  N   N63       1.0  0.26990  0.76150  0.74903  1.0000
  C   C967      1.0  0.27184  0.78220  0.75216  1.0000
  H   H1151     1.0  0.28920  0.74641  0.76668  1.0000
  C   C968      1.0  0.28799  0.74700  0.75378  1.0000
  C   C969      1.0  0.26897  0.76208  0.73177  1.0000
  H   H1152     1.0  0.22198  0.85462  0.86443  1.0000
  H   H1153     1.0  0.04173  0.66466  0.85186  1.0000
  C   C970      1.0  0.25152  0.75502  0.75962  1.0000
  H   H1154     1.0  0.30810  0.97440  0.83330  1.0000
  C   C971      1.0  0.22621  0.80303  0.82809  1.0000
  H   H1155     1.0  0.11988  0.89605  0.91704  1.0000
  H   H1156     1.0  0.01969  0.66293  0.80803  1.0000
  H   H1157     1.0  0.25262  0.75502  0.77245  1.0000
  C   C972      1.0  0.26000  0.96406  0.95099  1.0000
  H   H1158     1.0  0.25923  0.79387  0.74789  1.0000
  S   S260      1.0  0.31093  0.78456  0.82138  1.0000
  H   H1159     1.0  0.19205  0.86941  0.85070  1.0000
  H   H1160     1.0  0.02572  0.63495  0.84973  1.0000
  C   C973      1.0  0.24399  0.81058  0.82909  1.0000
  Fe  Fe137     1.0  0.31835  0.80635  0.79917  1.0000
  C   C974      1.0  0.05726  0.49338  0.85382  1.0000
  C   C975      1.0  0.10083  0.84609  0.94413  1.0000
  C   C976      1.0  0.30940  0.94530  0.91517  1.0000
  N   N64       1.0  0.13921  0.88384  0.93537  1.0000
  C   C977      1.0  0.28891  0.50243  0.89390  1.0000
  H   H1161     1.0  0.25706  0.53082  0.81506  1.0000
  C   C978      1.0  0.14982  0.89285  0.94585  1.0000
  C   C979      1.0  0.12612  0.86870  0.94422  1.0000
  C   C980      1.0  0.24184  0.97212  0.92745  1.0000
  H   H1162     1.0  0.26136  0.50297  0.78115  1.0000
  H   H1163     1.0  0.24735  0.85540  0.85402  1.0000
  H   H1164     1.0  0.25870  0.80097  0.82697  1.0000
  C   C981      1.0  0.24739  0.97790  0.94093  1.0000
  C   C982      1.0  0.23129  0.86321  0.85441  1.0000
  H   H1165     1.0  0.01794  0.67960  0.84791  1.0000
  H   H1166     1.0  0.26061  0.53548  0.92370  1.0000
  C   C983      1.0  0.05784  0.87913  0.96334  1.0000
  H   H1167     1.0  0.15920  0.90441  0.93881  1.0000
  H   H1168     1.0  0.17043  0.66189  0.73703  1.0000
  H   H1169     1.0  0.16050  0.88096  0.95229  1.0000
  H   H1170     1.0  0.00928  0.93910  0.90544  1.0000
  C   C984      1.0  0.30501  0.98087  0.91893  1.0000
  S   S261      1.0  0.31376  0.84086  0.79840  1.0000
  N   N65       1.0  0.25904  0.50802  0.95270  1.0000
  H   H1171     1.0  0.02611  0.68623  0.81245  1.0000
  H   H1172     1.0  0.24485  0.53411  0.90046  1.0000
  C   C985      1.0  0.22392  0.84337  0.83539  1.0000
  C   C986      1.0  0.00407  0.96505  0.95977  1.0000
  H   H1173     1.0  0.25402  0.59904  0.79314  1.0000
  C   C987      1.0  0.22944  0.52179  0.79944  1.0000
  H   H1174     1.0  0.20272  0.89228  0.84311  1.0000
  S   S262      1.0  0.15946  0.70545  0.73969  1.0000
  S   S263      1.0  0.24535  0.49172  0.83975  1.0000
  C   C988      1.0  0.12498  0.86243  0.96104  1.0000
  H   H1175     1.0  0.04230  0.94520  0.92447  1.0000
  H   H1176     1.0  0.04106  0.68636  0.83634  1.0000
  C   C989      1.0  0.20726  0.81523  0.83080  1.0000
  H   H1177     1.0  0.26728  0.98597  0.77586  1.0000
  H   H1178     1.0  0.08597  0.60656  0.82131  1.0000
  C   C990      1.0  0.25166  0.52329  0.92448  1.0000
  H   H1179     1.0  0.99348  0.92873  0.86632  1.0000
  C   C991      1.0  0.24295  0.50954  0.96678  1.0000
  N   N66       1.0  0.26602  0.97075  0.96499  1.0000
  H   H1180     1.0  0.25718  0.83541  0.83349  1.0000
  C   C992      1.0  0.24843  0.95239  0.92369  1.0000
  H   H1181     1.0  0.11372  0.90829  0.93467  1.0000
  C   C993      1.0  0.20601  0.83513  0.83441  1.0000
  C   C994      1.0  0.15508  0.87381  0.92375  1.0000
  H   H1182     1.0  0.10760  0.63054  0.80424  1.0000
  S   S264      1.0  0.31365  0.50388  0.91633  1.0000
  S   S265      1.0  0.27175  0.97792  0.88382  1.0000
  C   C995      1.0  0.25181  0.75752  0.72590  1.0000
  C   C996      1.0  0.01889  0.64374  0.83917  1.0000
  C   C997      1.0  0.09233  0.63622  0.80966  1.0000
  H   H1183     1.0  0.08270  0.83277  0.86688  1.0000
  C   C998      1.0  0.23350  0.70127  0.73521  1.0000
  C   C999      1.0  0.08488  0.65704  0.80695  1.0000
  C   C1000     1.0  0.23798  0.49247  0.93741  1.0000
  H   H1184     1.0  0.05968  0.50098  0.84120  1.0000
  C   C1001     1.0  0.27101  0.52513  0.95148  1.0000
  C   C1002     1.0  0.03177  0.95073  0.93444  1.0000
  H   H1185     1.0  0.22537  0.50616  0.89977  1.0000
  C   C1003     1.0  0.02106  0.97052  0.93247  1.0000
  H   H1186     1.0  0.09562  0.49365  0.84506  1.0000
  H   H1187     1.0  0.18170  0.50912  0.73282  1.0000
  S   S266      1.0  0.99643  0.67226  0.87911  1.0000
  Fe  Fe138     1.0  0.99512  0.70496  0.86587  1.0000
  H   H1188     1.0  0.04085  0.49782  0.85861  1.0000
  H   H1189     1.0  0.28391  0.52446  0.94143  1.0000
  C   C1004     1.0  0.23162  0.50701  0.91054  1.0000
  C   C1005     1.0  0.22932  0.49190  0.92372  1.0000
  H   H1190     1.0  0.20539  0.70075  0.72699  1.0000
  H   H1191     1.0  0.00352  0.67711  0.82267  1.0000
  H   H1192     1.0  0.99325  0.97164  0.96903  1.0000
  C   C1006     1.0  0.22113  0.70323  0.72323  1.0000
  H   H1193     1.0  0.08904  0.83057  0.96696  1.0000
  H   H1194     1.0  0.23452  0.49616  0.96949  1.0000
  H   H1195     1.0  0.00325  0.65069  0.84410  1.0000
  C   C1007     1.0  0.31012  0.98568  0.84088  1.0000
  C   C1008     1.0  0.11190  0.84863  0.96905  1.0000
  H   H1196     1.0  0.13345  0.86843  0.96844  1.0000
  H   H1197     1.0  0.09668  0.90129  0.97109  1.0000
  H   H1198     1.0  0.24454  0.94819  0.91297  1.0000
  C   C1009     1.0  0.29236  0.98590  0.90678  1.0000
  H   H1199     1.0  0.23277  0.98311  0.91961  1.0000
  H   H1200     1.0  0.99153  0.65527  0.96206  1.0000
  C   C1010     1.0  0.01725  0.98610  0.88554  1.0000
  H   H1201     1.0  0.32370  0.80238  0.74670  1.0000
  H   H1202     1.0  0.28063  0.48812  0.96653  1.0000
  C   C1011     1.0  0.27320  0.48865  0.95570  1.0000
  H   H1203     1.0  0.28549  0.48701  0.94535  1.0000
  S   S267      1.0  0.48621  0.33635  0.99702  1.0000
  S   S268      1.0  0.47742  0.09120  0.98745  1.0000
  S   S269      1.0  0.48931  0.14953  0.98747  1.0000
  Fe  Fe139     1.0  0.50473  0.21298  0.08806  1.0000
  S   S270      1.0  0.47419  0.20190  0.09118  1.0000
  S   S271      1.0  0.52179  0.21211  0.10920  1.0000
  Fe  Fe140     1.0  0.50083  0.23337  0.05368  1.0000
  S   S272      1.0  0.46987  0.22436  0.05401  1.0000
  S   S273      1.0  0.52042  0.24937  0.03281  1.0000
  Fe  Fe141     1.0  0.46254  0.23307  0.07896  1.0000
  S   S274      1.0  0.43490  0.25478  0.08871  1.0000
  Fe  Fe142     1.0  0.48375  0.19385  0.06612  1.0000
  S   S275      1.0  0.47926  0.16314  0.06033  1.0000
  S   S276      1.0  0.49250  0.24475  0.07738  1.0000
  S   S277      1.0  0.51526  0.20215  0.06419  1.0000
  H   H1204     1.0  0.55471  0.33518  0.99231  1.0000
  N   N67       1.0  0.33805  0.28077  0.09085  1.0000
  S   S278      1.0  0.35506  0.23288  0.13594  1.0000
  H   H1205     1.0  0.39351  0.05388  0.00162  1.0000
  H   H1206     1.0  0.56140  0.07987  0.00800  1.0000
  C   C1012     1.0  0.59224  0.37268  0.00288  1.0000
  S   S279      1.0  0.62012  0.98735  0.98329  1.0000
  Fe  Fe143     1.0  0.44963  0.09564  0.97495  1.0000
  C   C1013     1.0  0.52430  0.48404  0.97485  1.0000
  H   H1207     1.0  0.52420  0.38629  0.99884  1.0000
  H   H1208     1.0  0.50739  0.36740  0.00522  1.0000
  S   S280      1.0  0.61769  0.18329  0.10855  1.0000
  H   H1209     1.0  0.56012  0.12792  0.97846  1.0000
  H   H1210     1.0  0.52854  0.14985  0.04571  1.0000
  Fe  Fe144     1.0  0.62532  0.45278  0.99089  1.0000
  S   S281      1.0  0.60242  0.42991  0.99434  1.0000
  H   H1211     1.0  0.60334  0.38975  0.01797  1.0000
  H   H1212     1.0  0.43017  0.20220  0.01973  1.0000
  C   C1014     1.0  0.53379  0.11995  0.03829  1.0000
  S   S282      1.0  0.62694  0.46393  0.01410  1.0000
  H   H1213     1.0  0.64946  0.08920  0.16829  1.0000
  H   H1214     1.0  0.36950  0.28135  0.07969  1.0000
  C   C1015     1.0  0.55635  0.37448  0.02472  1.0000
  S   S283      1.0  0.42180  0.08247  0.98883  1.0000
  H   H1215     1.0  0.57183  0.39094  0.03759  1.0000
  C   C1016     1.0  0.42875  0.18662  0.02528  1.0000
  C   C1017     1.0  0.54819  0.20274  0.10951  1.0000
  C   C1018     1.0  0.55792  0.20677  0.12179  1.0000
  C   C1019     1.0  0.57909  0.20042  0.12200  1.0000
  C   C1020     1.0  0.59073  0.19000  0.10989  1.0000
  C   C1021     1.0  0.58090  0.18573  0.09775  1.0000
  C   C1022     1.0  0.55974  0.19196  0.09760  1.0000
  H   H1216     1.0  0.54912  0.21505  0.13110  1.0000
  H   H1217     1.0  0.58647  0.20389  0.13136  1.0000
  H   H1218     1.0  0.58978  0.17766  0.08834  1.0000
  H   H1219     1.0  0.55242  0.18845  0.08822  1.0000
  C   C1023     1.0  0.41331  0.24805  0.10230  1.0000
  C   C1024     1.0  0.40093  0.26313  0.11066  1.0000
  C   C1025     1.0  0.38332  0.25864  0.12127  1.0000
  C   C1026     1.0  0.37756  0.23914  0.12325  1.0000
  C   C1027     1.0  0.39010  0.22397  0.11505  1.0000
  C   C1028     1.0  0.40796  0.22835  0.10468  1.0000
  H   H1220     1.0  0.40508  0.27836  0.10901  1.0000
  H   H1221     1.0  0.37426  0.27026  0.12792  1.0000
  H   H1222     1.0  0.38590  0.20877  0.11664  1.0000
  H   H1223     1.0  0.41734  0.21661  0.09830  1.0000
  H   H1224     1.0  0.36520  0.25772  0.09110  1.0000
  H   H1225     1.0  0.46109  0.01855  0.99397  1.0000
  C   C1029     1.0  0.57573  0.36411  0.00012  1.0000
  H   H1226     1.0  0.54279  0.37563  0.03349  1.0000
  H   H1227     1.0  0.39979  0.11318  0.01582  1.0000
  C   C1030     1.0  0.48578  0.15290  0.00786  1.0000
  C   C1031     1.0  0.48276  0.13673  0.02024  1.0000
  C   C1032     1.0  0.48069  0.14006  0.03629  1.0000
  C   C1033     1.0  0.48182  0.15947  0.04006  1.0000
  C   C1034     1.0  0.48491  0.17558  0.02767  1.0000
  C   C1035     1.0  0.48688  0.17228  0.01165  1.0000
  H   H1228     1.0  0.48246  0.12161  0.01748  1.0000
  H   H1229     1.0  0.47846  0.12752  0.04584  1.0000
  H   H1230     1.0  0.48585  0.19057  0.03042  1.0000
  H   H1231     1.0  0.48939  0.18482  0.00214  1.0000
  H   H1232     1.0  0.57641  0.09896  0.99729  1.0000
  C   C1036     1.0  0.53862  0.14058  0.00704  1.0000
  H   H1233     1.0  0.56145  0.42195  0.99484  1.0000
  C   C1037     1.0  0.49545  0.31168  0.00634  1.0000
  C   C1038     1.0  0.48495  0.30380  0.02104  1.0000
  C   C1039     1.0  0.49224  0.28453  0.02913  1.0000
  C   C1040     1.0  0.51032  0.27318  0.02268  1.0000
  C   C1041     1.0  0.52098  0.28117  0.00808  1.0000
  C   C1042     1.0  0.51349  0.30027  0.99984  1.0000
  H   H1234     1.0  0.47102  0.31258  0.02616  1.0000
  H   H1235     1.0  0.48393  0.27854  0.04039  1.0000
  H   H1236     1.0  0.53496  0.27243  0.00301  1.0000
  H   H1237     1.0  0.52169  0.30614  0.98852  1.0000
  N   N68       1.0  0.46327  0.22570  0.13747  1.0000
  C   C1043     1.0  0.47019  0.20341  0.13734  1.0000
  C   C1044     1.0  0.46129  0.23561  0.12087  1.0000
  C   C1045     1.0  0.47963  0.23421  0.14289  1.0000
  C   C1046     1.0  0.44313  0.22905  0.14759  1.0000
  C   C1047     1.0  0.42621  0.22100  0.14431  1.0000
  C   C1048     1.0  0.43951  0.24064  0.16057  1.0000
  C   C1049     1.0  0.40699  0.22411  0.15355  1.0000
  C   C1050     1.0  0.42013  0.24384  0.16963  1.0000
  C   C1051     1.0  0.40391  0.23561  0.16611  1.0000
  H   H1238     1.0  0.46007  0.19616  0.13163  1.0000
  H   H1239     1.0  0.48574  0.20036  0.13039  1.0000
  H   H1240     1.0  0.47083  0.19517  0.14971  1.0000
  H   H1241     1.0  0.45088  0.22853  0.11532  1.0000
  H   H1242     1.0  0.47629  0.23436  0.11297  1.0000
  H   H1243     1.0  0.45497  0.25219  0.12042  1.0000
  H   H1244     1.0  0.48209  0.22725  0.15530  1.0000
  H   H1245     1.0  0.49462  0.23102  0.13517  1.0000
  H   H1246     1.0  0.47613  0.25118  0.14223  1.0000
  H   H1247     1.0  0.42760  0.21249  0.13439  1.0000
  H   H1248     1.0  0.45130  0.24757  0.16391  1.0000
  H   H1249     1.0  0.39426  0.21786  0.15080  1.0000
  H   H1250     1.0  0.41758  0.25288  0.17938  1.0000
  H   H1251     1.0  0.38885  0.23828  0.17303  1.0000
  C   C1052     1.0  0.38481  0.04346  0.98146  1.0000
  H   H1252     1.0  0.33095  0.25635  0.20298  1.0000
  C   C1053     1.0  0.39553  0.05500  0.98871  1.0000
  C   C1054     1.0  0.64513  0.02982  0.02951  1.0000
  C   C1055     1.0  0.53474  0.15149  0.02009  1.0000
  H   H1253     1.0  0.52814  0.34234  0.99113  1.0000
  H   H1254     1.0  0.53145  0.11211  0.05045  1.0000
  C   C1056     1.0  0.65120  0.03353  0.04351  1.0000
  C   C1057     1.0  0.52099  0.37297  0.00803  1.0000
  H   H1255     1.0  0.32699  0.29405  0.11237  1.0000
  N   N69       1.0  0.41946  0.13622  0.01401  1.0000
  C   C1058     1.0  0.40361  0.12405  0.02310  1.0000
  C   C1059     1.0  0.41261  0.14509  0.99832  1.0000
  C   C1060     1.0  0.43883  0.12218  0.01090  1.0000
  C   C1061     1.0  0.42299  0.15183  0.02329  1.0000
  C   C1062     1.0  0.42676  0.14618  0.03941  1.0000
  C   C1063     1.0  0.42427  0.17255  0.01641  1.0000
  C   C1064     1.0  0.43104  0.16042  0.04818  1.0000
  C   C1065     1.0  0.34097  0.28511  0.10663  1.0000
  C   C1066     1.0  0.43209  0.18058  0.04112  1.0000
  H   H1256     1.0  0.42235  0.17820  0.00412  1.0000
  H   H1257     1.0  0.38924  0.13423  0.02684  1.0000
  C   C1067     1.0  0.55878  0.47473  0.98146  1.0000
  H   H1258     1.0  0.39834  0.15628  0.99983  1.0000
  H   H1259     1.0  0.40943  0.13300  0.99188  1.0000
  H   H1260     1.0  0.42458  0.15279  0.99011  1.0000
  H   H1261     1.0  0.44469  0.11449  0.02215  1.0000
  H   H1262     1.0  0.43687  0.10988  0.00424  1.0000
  H   H1263     1.0  0.45096  0.13064  0.00366  1.0000
  H   H1264     1.0  0.42720  0.13054  0.04523  1.0000
  Fe  Fe145     1.0  0.32826  0.25519  0.14631  1.0000
  H   H1265     1.0  0.43457  0.15564  0.06030  1.0000
  H   H1266     1.0  0.51614  0.37868  0.01973  1.0000
  H   H1267     1.0  0.43626  0.19132  0.04780  1.0000
  N   N70       1.0  0.55965  0.25352  0.06676  1.0000
  C   C1068     1.0  0.55152  0.27077  0.05507  1.0000
  C   C1069     1.0  0.55577  0.23430  0.06214  1.0000
  C   C1070     1.0  0.54782  0.25621  0.08274  1.0000
  C   C1071     1.0  0.58182  0.25215  0.06738  1.0000
  C   C1072     1.0  0.59462  0.26456  0.05642  1.0000
  C   C1073     1.0  0.59136  0.23761  0.07897  1.0000
  C   C1074     1.0  0.61557  0.26262  0.05733  1.0000
  C   C1075     1.0  0.61227  0.23573  0.07973  1.0000
  C   C1076     1.0  0.62436  0.24825  0.06897  1.0000
  H   H1268     1.0  0.55830  0.26878  0.04253  1.0000
  H   H1269     1.0  0.53469  0.27162  0.05529  1.0000
  H   H1270     1.0  0.55418  0.28576  0.05769  1.0000
  H   H1271     1.0  0.56402  0.23184  0.05005  1.0000
  H   H1272     1.0  0.53923  0.23463  0.06173  1.0000
  H   H1273     1.0  0.56064  0.22063  0.07066  1.0000
  H   H1274     1.0  0.55163  0.26955  0.08728  1.0000
  H   H1275     1.0  0.53102  0.25860  0.08246  1.0000
  H   H1276     1.0  0.55069  0.24252  0.09184  1.0000
  H   H1277     1.0  0.58887  0.27579  0.04701  1.0000
  H   H1278     1.0  0.58276  0.22737  0.08750  1.0000
  C   C1077     1.0  0.59116  0.41969  0.98050  1.0000
  H   H1279     1.0  0.61914  0.22435  0.08870  1.0000
  Fe  Fe146     1.0  0.64005  0.18143  0.12646  1.0000
  H   H1280     1.0  0.52087  0.33310  0.01944  1.0000
  H   H1281     1.0  0.52830  0.08709  0.98604  1.0000
  C   C1078     1.0  0.56290  0.09139  0.99709  1.0000
  H   H1282     1.0  0.35591  0.26493  0.07202  1.0000
  H   H1283     1.0  0.53961  0.14963  0.99534  1.0000
  N   N71       1.0  0.54417  0.10669  0.99580  1.0000
  C   C1079     1.0  0.56192  0.40548  0.97504  1.0000
  C   C1080     1.0  0.54233  0.47001  0.97544  1.0000
  H   H1284     1.0  0.53293  0.16810  0.01813  1.0000
  C   C1081     1.0  0.54038  0.11882  0.00929  1.0000
  H   H1285     1.0  0.54750  0.32724  0.02181  1.0000
  C   C1082     1.0  0.53783  0.10885  0.02535  1.0000
  C   C1083     1.0  0.53226  0.14123  0.03567  1.0000
  H   H1286     1.0  0.51210  0.10683  0.99612  1.0000
  H   H1287     1.0  0.53044  0.34516  0.03316  1.0000
  C   C1084     1.0  0.59078  0.38233  0.01632  1.0000
  C   C1085     1.0  0.32656  0.24605  0.09916  1.0000
  H   H1288     1.0  0.37461  0.03360  0.98876  1.0000
  S   S284      1.0  0.64080  0.19830  0.14713  1.0000
  H   H1289     1.0  0.60594  0.37274  0.99412  1.0000
  C   C1086     1.0  0.32871  0.26489  0.21297  1.0000
  H   H1290     1.0  0.53861  0.09240  0.02800  1.0000
  C   C1087     1.0  0.53432  0.33983  0.02126  1.0000
  H   H1291     1.0  0.54520  0.36027  0.98242  1.0000
  H   H1292     1.0  0.62511  0.27221  0.04890  1.0000
  H   H1293     1.0  0.34155  0.23925  0.10211  1.0000
  H   H1294     1.0  0.40867  0.11427  0.03395  1.0000
  S   S285      1.0  0.32770  0.28853  0.14795  1.0000
  Fe  Fe147     1.0  0.48082  0.12369  0.97698  1.0000
  H   H1295     1.0  0.65083  0.07545  0.06020  1.0000
  H   H1296     1.0  0.57775  0.35766  0.98910  1.0000
  N   N72       1.0  0.53905  0.35664  0.00821  1.0000
  H   H1297     1.0  0.64280  0.05209  0.07100  1.0000
  H   H1298     1.0  0.34405  0.27078  0.11502  1.0000
  C   C1088     1.0  0.55711  0.36498  0.01092  1.0000
  C   C1089     1.0  0.54203  0.34827  0.99284  1.0000
  C   C1090     1.0  0.46249  0.02810  0.98200  1.0000
  C   C1091     1.0  0.57293  0.38313  0.02727  1.0000
  H   H1299     1.0  0.35381  0.29402  0.10573  1.0000
  C   C1092     1.0  0.54695  0.11934  0.97981  1.0000
  H   H1300     1.0  0.54618  0.40300  0.97819  1.0000
  H   H1301     1.0  0.56658  0.08243  0.98684  1.0000
  C   C1093     1.0  0.35789  0.27072  0.08305  1.0000
  C   C1094     1.0  0.57057  0.41645  0.98433  1.0000
  H   H1302     1.0  0.43547  0.00231  0.98369  1.0000
  H   H1303     1.0  0.64929  0.13806  0.21815  1.0000
  C   C1095     1.0  0.65540  0.16313  0.19955  1.0000
  C   C1096     1.0  0.52653  0.09576  0.99637  1.0000
  S   S286      1.0  0.35050  0.99321  0.99311  1.0000
  H   H1304     1.0  0.64059  0.24670  0.06962  1.0000
  H   H1305     1.0  0.64995  0.03466  0.00379  1.0000
  H   H1306     1.0  0.52448  0.08439  0.00733  1.0000
  H   H1307     1.0  0.34538  0.30991  0.07799  1.0000
  H   H1308     1.0  0.57274  0.46385  0.98194  1.0000
  H   H1309     1.0  0.47742  0.03393  0.98005  1.0000
  C   C1097     1.0  0.40876  0.06797  0.97937  1.0000
  H   H1310     1.0  0.64343  0.02691  0.05476  1.0000
  H   H1311     1.0  0.63346  0.02016  0.03015  1.0000
  H   H1312     1.0  0.53289  0.13040  0.97761  1.0000
  H   H1313     1.0  0.45049  0.04186  0.98251  1.0000
  S   S287      1.0  0.61734  0.48442  0.97771  1.0000
  C   C1098     1.0  0.33255  0.30069  0.08075  1.0000
  H   H1314     1.0  0.32840  0.29834  0.06918  1.0000
  S   S288      1.0  0.64735  0.15217  0.18470  1.0000
  C   C1099     1.0  0.65464  0.15279  0.21528  1.0000
  S   S289      1.0  0.65126  0.15045  0.13943  1.0000
  H   H1315     1.0  0.65081  0.11557  0.16794  1.0000
  Fe  Fe148     1.0  0.65453  0.16754  0.15921  1.0000
  C   C1100     1.0  0.65448  0.03792  0.01461  1.0000
  Fe  Fe149     1.0  0.65146  0.48455  0.97190  1.0000
  C   C1101     1.0  0.65610  0.06055  0.06732  1.0000
  C   C1102     1.0  0.43913  0.01171  0.97187  1.0000
  H   H1316     1.0  0.42783  0.02597  0.97179  1.0000
  Fe  Fe150     1.0  0.49890  0.34904  0.97179  1.0000
  Fe  Fe151     1.0  0.41709  0.06226  0.42310  1.0000
  S   S290      1.0  0.44545  0.07473  0.41013  1.0000
  S   S291      1.0  0.41303  0.05086  0.44984  1.0000
  Fe  Fe152     1.0  0.40012  0.05957  0.39232  1.0000
  S   S292      1.0  0.42762  0.07154  0.37747  1.0000
  S   S293      1.0  0.37787  0.05490  0.37592  1.0000
  Fe  Fe153     1.0  0.44674  0.05077  0.39431  1.0000
  S   S294      1.0  0.47722  0.03460  0.38362  1.0000
  Fe  Fe154     1.0  0.42412  0.09476  0.39419  1.0000
  S   S295      1.0  0.42649  0.12635  0.37982  1.0000
  S   S296      1.0  0.41979  0.03689  0.40805  1.0000
  S   S297      1.0  0.39531  0.08416  0.40830  1.0000
  H   H1317     1.0  0.49391  0.09015  0.34459  1.0000
  H   H1318     1.0  0.59497  0.40026  0.42846  1.0000
  H   H1319     1.0  0.62798  0.32831  0.38099  1.0000
  H   H1320     1.0  0.56185  0.29090  0.34833  1.0000
  S   S298      1.0  0.36124  0.25720  0.33387  1.0000
  H   H1321     1.0  0.65201  0.43387  0.33332  1.0000
  Fe  Fe155     1.0  0.54646  0.41573  0.38270  1.0000
  S   S299      1.0  0.53041  0.40055  0.40561  1.0000
  S   S300      1.0  0.53236  0.43770  0.36303  1.0000
  Fe  Fe156     1.0  0.58864  0.39238  0.38864  1.0000
  S   S301      1.0  0.57574  0.37546  0.41195  1.0000
  S   S302      1.0  0.62256  0.38397  0.38036  1.0000
  Fe  Fe157     1.0  0.55025  0.37140  0.39902  1.0000
  S   S303      1.0  0.54119  0.33928  0.40358  1.0000
  Fe  Fe158     1.0  0.55732  0.40581  0.41638  1.0000
  S   S304      1.0  0.55609  0.42190  0.43794  1.0000
  S   S305      1.0  0.56454  0.38627  0.37535  1.0000
  S   S306      1.0  0.57197  0.42306  0.39375  1.0000
  C   C1103     1.0  0.59334  0.21702  0.26854  1.0000
  C   C1104     1.0  0.48351  0.00793  0.38944  1.0000
  H   H1322     1.0  0.62234  0.07502  0.35189  1.0000
  Fe  Fe159     1.0  0.50808  0.25677  0.35504  1.0000
  S   S307      1.0  0.51095  0.25114  0.32943  1.0000
  S   S308      1.0  0.51565  0.28912  0.35435  1.0000
  Fe  Fe160     1.0  0.48976  0.21676  0.36684  1.0000
  S   S309      1.0  0.49091  0.20961  0.34203  1.0000
  S   S310      1.0  0.47808  0.19459  0.38820  1.0000
  Fe  Fe161     1.0  0.52248  0.21839  0.33794  1.0000
  S   S311      1.0  0.54627  0.19724  0.32379  1.0000
  Fe  Fe162     1.0  0.47923  0.24302  0.33601  1.0000
  S   S312      1.0  0.45729  0.25741  0.31830  1.0000
  S   S313      1.0  0.52215  0.22413  0.36314  1.0000
  S   S314      1.0  0.47565  0.24983  0.36119  1.0000
  C   C1105     1.0  0.61577  0.19650  0.31817  1.0000
  C   C1106     1.0  0.60253  0.20983  0.32768  1.0000
  C   C1107     1.0  0.58120  0.21007  0.32969  1.0000
  C   C1108     1.0  0.57297  0.19693  0.32221  1.0000
  C   C1109     1.0  0.58621  0.18353  0.31278  1.0000
  C   C1110     1.0  0.60752  0.18328  0.31077  1.0000
  H   H1323     1.0  0.60881  0.22008  0.33345  1.0000
  H   H1324     1.0  0.57114  0.22047  0.33696  1.0000
  H   H1325     1.0  0.57991  0.17341  0.30689  1.0000
  H   H1326     1.0  0.61752  0.17287  0.30353  1.0000
  C   C1111     1.0  0.33558  0.25561  0.22753  1.0000
  S   S315      1.0  0.34990  0.28797  0.29137  1.0000
  C   C1112     1.0  0.53379  0.32567  0.38980  1.0000
  C   C1113     1.0  0.53089  0.30508  0.39462  1.0000
  C   C1114     1.0  0.52522  0.29363  0.38403  1.0000
  C   C1115     1.0  0.52237  0.30269  0.36846  1.0000
  C   C1116     1.0  0.52533  0.32328  0.36362  1.0000
  C   C1117     1.0  0.53100  0.33471  0.37420  1.0000
  H   H1327     1.0  0.53299  0.29793  0.40666  1.0000
  H   H1328     1.0  0.52308  0.27781  0.38793  1.0000
  H   H1329     1.0  0.52328  0.33044  0.35159  1.0000
  H   H1330     1.0  0.53312  0.35054  0.37032  1.0000
  C   C1118     1.0  0.51820  0.46238  0.36442  1.0000
  C   C1119     1.0  0.50817  0.46894  0.37886  1.0000
  H   H1331     1.0  0.34364  0.38249  0.35499  1.0000
  H   H1332     1.0  0.50896  0.45862  0.38998  1.0000
  H   H1333     1.0  0.41861  0.03227  0.36809  1.0000
  H   H1334     1.0  0.52960  0.14564  0.33178  1.0000
  C   C1120     1.0  0.63905  0.40290  0.37583  1.0000
  C   C1121     1.0  0.63207  0.42314  0.37852  1.0000
  C   C1122     1.0  0.35557  0.35433  0.34525  1.0000
  H   H1335     1.0  0.50255  0.09178  0.39278  1.0000
  H   H1336     1.0  0.61634  0.42753  0.38344  1.0000
  H   H1337     1.0  0.63999  0.45346  0.37678  1.0000
  C   C1123     1.0  0.52212  0.14097  0.34377  1.0000
  C   C1124     1.0  0.56206  0.40820  0.45643  1.0000
  H   H1338     1.0  0.43856  0.01932  0.35528  1.0000
  H   H1339     1.0  0.56034  0.37849  0.45064  1.0000
  H   H1340     1.0  0.41965  0.19675  0.35480  1.0000
  C   C1125     1.0  0.38786  0.25773  0.32944  1.0000
  C   C1126     1.0  0.39721  0.26293  0.31379  1.0000
  C   C1127     1.0  0.41849  0.26285  0.31059  1.0000
  C   C1128     1.0  0.43064  0.25727  0.32296  1.0000
  C   C1129     1.0  0.42131  0.25218  0.33866  1.0000
  C   C1130     1.0  0.39995  0.25257  0.34189  1.0000
  H   H1341     1.0  0.38813  0.26673  0.30407  1.0000
  H   H1342     1.0  0.42562  0.26676  0.29841  1.0000
  H   H1343     1.0  0.43053  0.24797  0.34829  1.0000
  H   H1344     1.0  0.39283  0.24869  0.35407  1.0000
  H   H1345     1.0  0.52477  0.16903  0.35195  1.0000
  H   H1346     1.0  0.36748  0.15114  0.31585  1.0000
  H   H1347     1.0  0.53687  0.23080  0.28905  1.0000
  H   H1348     1.0  0.46827  0.08483  0.37551  1.0000
  C   C1131     1.0  0.44197  0.14420  0.38240  1.0000
  C   C1132     1.0  0.44726  0.15893  0.36933  1.0000
  C   C1133     1.0  0.45828  0.17437  0.37098  1.0000
  C   C1134     1.0  0.46431  0.17519  0.38572  1.0000
  C   C1135     1.0  0.45942  0.16016  0.39873  1.0000
  C   C1136     1.0  0.44835  0.14466  0.39709  1.0000
  H   H1349     1.0  0.44281  0.15844  0.35784  1.0000
  H   H1350     1.0  0.46193  0.18573  0.36087  1.0000
  H   H1351     1.0  0.46402  0.16067  0.41019  1.0000
  H   H1352     1.0  0.44427  0.13347  0.40728  1.0000
  C   C1137     1.0  0.50224  0.99748  0.38289  1.0000
  H   H1353     1.0  0.34492  0.31444  0.35054  1.0000
  H   H1354     1.0  0.38141  0.16183  0.36474  1.0000
  C   C1138     1.0  0.35797  0.03997  0.37681  1.0000
  C   C1139     1.0  0.35316  0.02506  0.38980  1.0000
  C   C1140     1.0  0.33789  0.01301  0.38948  1.0000
  H   H1355     1.0  0.59624  0.34877  0.37935  1.0000
  H   H1356     1.0  0.41904  0.99673  0.39709  1.0000
  H   H1357     1.0  0.36120  0.02277  0.40008  1.0000
  H   H1358     1.0  0.61473  0.48023  0.36320  1.0000
  H   H1359     1.0  0.40248  0.17014  0.37081  1.0000
  C   C1141     1.0  0.56294  0.38693  0.45969  1.0000
  H   H1360     1.0  0.59945  0.40295  0.34591  1.0000
  H   H1361     1.0  0.40698  0.15634  0.35418  1.0000
  H   H1362     1.0  0.41108  0.21070  0.33691  1.0000
  H   H1363     1.0  0.42061  0.09272  0.44899  1.0000
  C   C1142     1.0  0.55243  0.22744  0.28314  1.0000
  H   H1364     1.0  0.51765  0.11251  0.33833  1.0000
  N   N73       1.0  0.61450  0.21077  0.26090  1.0000
  C   C1143     1.0  0.63044  0.21461  0.26978  1.0000
  C   C1144     1.0  0.61772  0.18851  0.25981  1.0000
  C   C1145     1.0  0.61782  0.22219  0.24449  1.0000
  H   H1365     1.0  0.36513  0.29385  0.34706  1.0000
  Fe  Fe163     1.0  0.33112  0.27017  0.28076  1.0000
  H   H1366     1.0  0.39943  0.32173  0.33707  1.0000
  H   H1367     1.0  0.55955  0.48620  0.36020  1.0000
  H   H1368     1.0  0.61400  0.27447  0.38522  1.0000
  H   H1369     1.0  0.61010  0.40767  0.40970  1.0000
  C   C1146     1.0  0.41929  0.06390  0.46433  1.0000
  H   H1370     1.0  0.34316  0.23992  0.22869  1.0000
  H   H1371     1.0  0.41198  0.44319  0.33940  1.0000
  H   H1372     1.0  0.45551  0.00475  0.40540  1.0000
  H   H1373     1.0  0.38070  0.47273  0.38201  1.0000
  H   H1374     1.0  0.46317  0.99339  0.36419  1.0000
  C   C1147     1.0  0.47028  0.05545  0.45713  1.0000
  H   H1375     1.0  0.57740  0.25510  0.35576  1.0000
  C   C1148     1.0  0.33273  0.26658  0.24058  1.0000
  C   C1149     1.0  0.63462  0.11394  0.35387  1.0000
  N   N74       1.0  0.62692  0.39927  0.42966  1.0000
  C   C1150     1.0  0.50242  0.12976  0.37457  1.0000
  H   H1376     1.0  0.61120  0.39196  0.45362  1.0000
  H   H1377     1.0  0.63384  0.21829  0.23858  1.0000
  H   H1378     1.0  0.52450  0.47089  0.33891  1.0000
  H   H1379     1.0  0.61804  0.41693  0.44944  1.0000
  C   C1151     1.0  0.35490  0.38827  0.32998  1.0000
  C   C1152     1.0  0.42407  0.46938  0.34368  1.0000
  C   C1153     1.0  0.41247  0.19531  0.34424  1.0000
  H   H1380     1.0  0.52376  0.08159  0.37917  1.0000
  H   H1381     1.0  0.62934  0.23117  0.27070  1.0000
  H   H1382     1.0  0.35165  0.34558  0.35680  1.0000
  H   H1383     1.0  0.35072  0.05425  0.35351  1.0000
  C   C1154     1.0  0.64294  0.43157  0.42232  1.0000
  C   C1155     1.0  0.37080  0.16570  0.31796  1.0000
  H   H1384     1.0  0.49447  0.12643  0.38655  1.0000
  C   C1156     1.0  0.58885  0.22583  0.28299  1.0000
  C   C1157     1.0  0.37940  0.20320  0.32317  1.0000
  H   H1385     1.0  0.46240  0.48241  0.33724  1.0000
  C   C1158     1.0  0.63569  0.43434  0.33721  1.0000
  C   C1159     1.0  0.63871  0.10508  0.32717  1.0000
  H   H1386     1.0  0.36746  0.21558  0.30108  1.0000
  H   H1387     1.0  0.39776  0.32338  0.31610  1.0000
  N   N75       1.0  0.60052  0.31587  0.38004  1.0000
  C   C1160     1.0  0.59096  0.33684  0.37400  1.0000
  H   H1388     1.0  0.62944  0.20580  0.28206  1.0000
  C   C1161     1.0  0.62303  0.31545  0.37650  1.0000
  C   C1162     1.0  0.59436  0.29953  0.37290  1.0000
  C   C1163     1.0  0.57944  0.30350  0.36227  1.0000
  C   C1164     1.0  0.51695  0.47581  0.35012  1.0000
  H   H1389     1.0  0.35051  0.40474  0.32937  1.0000
  H   H1390     1.0  0.61759  0.36921  0.43444  1.0000
  H   H1391     1.0  0.51286  0.00589  0.37453  1.0000
  H   H1392     1.0  0.44069  0.01842  0.37622  1.0000
  H   H1393     1.0  0.62325  0.10041  0.32995  1.0000
  H   H1394     1.0  0.60354  0.24714  0.37409  1.0000
  H   H1395     1.0  0.39551  0.98847  0.36317  1.0000
  H   H1396     1.0  0.60295  0.29812  0.40343  1.0000
  C   C1165     1.0  0.35106  0.37565  0.34446  1.0000
  H   H1397     1.0  0.44898  0.47431  0.36514  1.0000
  H   H1398     1.0  0.37460  0.35248  0.30582  1.0000
  H   H1399     1.0  0.50171  0.06860  0.38544  1.0000
  H   H1400     1.0  0.57402  0.33880  0.37717  1.0000
  H   H1401     1.0  0.36201  0.29900  0.31990  1.0000
  H   H1402     1.0  0.61485  0.23903  0.24471  1.0000
  C   C1166     1.0  0.56843  0.47139  0.35707  1.0000
  C   C1167     1.0  0.64394  0.41038  0.42148  1.0000
  H   H1403     1.0  0.47033  0.10708  0.38362  1.0000
  C   C1168     1.0  0.50968  0.14861  0.37050  1.0000
  H   H1404     1.0  0.38246  0.21807  0.32460  1.0000
  Fe  Fe164     1.0  0.34055  0.26869  0.31465  1.0000
  H   H1405     1.0  0.64149  0.11232  0.36511  1.0000
  H   H1406     1.0  0.56557  0.45987  0.36785  1.0000
  C   C1169     1.0  0.38378  0.18575  0.33470  1.0000
  N   N76       1.0  0.39248  0.18772  0.34912  1.0000
  C   C1170     1.0  0.60800  0.40844  0.42276  1.0000
  C   C1171     1.0  0.36182  0.31071  0.34734  1.0000
  H   H1407     1.0  0.50743  0.15913  0.37924  1.0000
  H   H1408     1.0  0.56157  0.46737  0.34722  1.0000
  C   C1172     1.0  0.57639  0.21404  0.26161  1.0000
  H   H1409     1.0  0.42341  0.18475  0.33700  1.0000
  C   C1173     1.0  0.34710  0.04282  0.36365  1.0000
  H   H1410     1.0  0.46707  0.10931  0.36301  1.0000
  C   C1174     1.0  0.36652  0.18321  0.30701  1.0000
  C   C1175     1.0  0.37930  0.16682  0.33164  1.0000
  C   C1176     1.0  0.42220  0.08444  0.46082  1.0000
  H   H1411     1.0  0.59484  0.34051  0.36079  1.0000
  H   H1412     1.0  0.62989  0.43989  0.42890  1.0000
  H   H1413     1.0  0.37616  0.21818  0.35148  1.0000
  H   H1414     1.0  0.36293  0.19775  0.36181  1.0000
  C   C1177     1.0  0.64544  0.43788  0.37459  1.0000
  H   H1415     1.0  0.51830  0.07891  0.35123  1.0000
  H   H1416     1.0  0.61445  0.17942  0.27184  1.0000
  N   N77       1.0  0.36904  0.32249  0.33172  1.0000
  N   N78       1.0  0.46844  0.31587  0.32630  1.0000
  C   C1178     1.0  0.48718  0.32402  0.32778  1.0000
  C   C1179     1.0  0.46614  0.29781  0.33875  1.0000
  C   C1180     1.0  0.47152  0.30846  0.31049  1.0000
  C   C1181     1.0  0.45046  0.33194  0.32855  1.0000
  C   C1182     1.0  0.44455  0.33936  0.34350  1.0000
  C   C1183     1.0  0.43872  0.34108  0.31607  1.0000
  C   C1184     1.0  0.42767  0.35457  0.34595  1.0000
  C   C1185     1.0  0.42201  0.35647  0.31860  1.0000
  C   C1186     1.0  0.41639  0.36308  0.33353  1.0000
  H   H1417     1.0  0.48708  0.32767  0.34003  1.0000
  H   H1418     1.0  0.50119  0.31262  0.32550  1.0000
  H   H1419     1.0  0.48907  0.33820  0.31916  1.0000
  H   H1420     1.0  0.45171  0.29170  0.33865  1.0000
  H   H1421     1.0  0.46650  0.30105  0.35102  1.0000
  H   H1422     1.0  0.47898  0.28517  0.33678  1.0000
  H   H1423     1.0  0.48457  0.29569  0.30952  1.0000
  H   H1424     1.0  0.45788  0.30213  0.30864  1.0000
  H   H1425     1.0  0.47512  0.32074  0.30045  1.0000
  H   H1426     1.0  0.45311  0.33356  0.35340  1.0000
  H   H1427     1.0  0.44223  0.33672  0.30421  1.0000
  H   H1428     1.0  0.42347  0.35995  0.35750  1.0000
  H   H1429     1.0  0.41340  0.36342  0.30889  1.0000
  H   H1430     1.0  0.40337  0.37497  0.33544  1.0000
  S   S316      1.0  0.34769  0.46804  0.36602  1.0000
  H   H1431     1.0  0.36586  0.38955  0.30488  1.0000
  H   H1432     1.0  0.37881  0.46314  0.33332  1.0000
  H   H1433     1.0  0.39816  0.98753  0.39114  1.0000
  C   C1187     1.0  0.59693  0.26294  0.37075  1.0000
  C   C1188     1.0  0.60264  0.45332  0.34739  1.0000
  H   H1434     1.0  0.56496  0.43544  0.46576  1.0000
  C   C1189     1.0  0.47705  0.01856  0.46122  1.0000
  C   C1190     1.0  0.58225  0.26737  0.36039  1.0000
  H   H1435     1.0  0.63626  0.40246  0.33586  1.0000
  H   H1436     1.0  0.47711  0.00412  0.45704  1.0000
  C   C1191     1.0  0.62336  0.40092  0.44703  1.0000
  N   N79       1.0  0.64881  0.10319  0.34166  1.0000
  H   H1437     1.0  0.46526  0.03660  0.44052  1.0000
  H   H1438     1.0  0.63208  0.37479  0.41523  1.0000
  C   C1192     1.0  0.63058  0.37712  0.42801  1.0000
  C   C1193     1.0  0.59853  0.47750  0.36619  1.0000
  H   H1439     1.0  0.57788  0.31122  0.40070  1.0000
  C   C1194     1.0  0.33165  0.03096  0.36343  1.0000
  C   C1195     1.0  0.50158  0.08269  0.35512  1.0000
  H   H1440     1.0  0.33445  0.00138  0.39952  1.0000
  H   H1441     1.0  0.57819  0.43394  0.35322  1.0000
  H   H1442     1.0  0.60061  0.22838  0.28938  1.0000
  H   H1443     1.0  0.63375  0.18307  0.25470  1.0000
  H   H1444     1.0  0.63162  0.30112  0.38215  1.0000
  C   C1196     1.0  0.39151  0.31662  0.32831  1.0000
  C   C1197     1.0  0.36819  0.35837  0.31687  1.0000
  H   H1445     1.0  0.39586  0.29970  0.32894  1.0000
  C   C1198     1.0  0.50505  0.11573  0.36337  1.0000
  N   N80       1.0  0.59060  0.47254  0.35232  1.0000
  H   H1446     1.0  0.43827  0.46007  0.34638  1.0000
  H   H1447     1.0  0.35985  0.18234  0.29646  1.0000
  H   H1448     1.0  0.56555  0.23716  0.30131  1.0000
  C   C1199     1.0  0.39591  0.16816  0.36010  1.0000
  C   C1200     1.0  0.36412  0.34500  0.33138  1.0000
  H   H1449     1.0  0.38218  0.15267  0.33961  1.0000
  C   C1201     1.0  0.37084  0.20192  0.30960  1.0000
  H   H1450     1.0  0.62821  0.31690  0.36336  1.0000
  C   C1202     1.0  0.37835  0.20256  0.35837  1.0000
  H   H1451     1.0  0.38415  0.20415  0.36951  1.0000
  H   H1452     1.0  0.54357  0.21626  0.26358  1.0000
  H   H1453     1.0  0.59725  0.32527  0.40344  1.0000
  C   C1203     1.0  0.36349  0.37966  0.31622  1.0000
  C   C1204     1.0  0.60613  0.41692  0.34441  1.0000
  H   H1454     1.0  0.57174  0.31871  0.35871  1.0000
  C   C1205     1.0  0.57357  0.28758  0.35615  1.0000
  H   H1455     1.0  0.63687  0.12108  0.32078  1.0000
  C   C1206     1.0  0.43000  0.01806  0.36762  1.0000
  C   C1207     1.0  0.59450  0.31244  0.39764  1.0000
  C   C1208     1.0  0.40522  0.00086  0.36012  1.0000
  H   H1456     1.0  0.49570  0.06776  0.35916  1.0000
  C   C1209     1.0  0.47484  0.09942  0.37273  1.0000
  C   C1210     1.0  0.35941  0.31594  0.31936  1.0000
  H   H1457     1.0  0.60784  0.21860  0.23648  1.0000
  C   C1211     1.0  0.62686  0.41661  0.33868  1.0000
  C   C1212     1.0  0.56543  0.41898  0.46828  1.0000
  C   C1213     1.0  0.60288  0.27872  0.37698  1.0000
  H   H1458     1.0  0.64613  0.20985  0.26370  1.0000
  C   C1214     1.0  0.59408  0.43494  0.34870  1.0000
  C   C1215     1.0  0.50677  0.08399  0.38194  1.0000
  C   C1216     1.0  0.51512  0.12194  0.34774  1.0000
  S   S317      1.0  0.64244  0.19701  0.31574  1.0000
  H   H1459     1.0  0.34262  0.32094  0.32097  1.0000
  C   C1217     1.0  0.51943  0.15425  0.35512  1.0000
  N   N81       1.0  0.49730  0.09580  0.36806  1.0000
  H   H1460     1.0  0.39838  0.01432  0.38922  1.0000
  C   C1218     1.0  0.47051  0.03683  0.45183  1.0000
  H   H1461     1.0  0.36542  0.32211  0.30695  1.0000
  S   S318      1.0  0.65653  0.16053  0.28205  1.0000
  C   C1219     1.0  0.63813  0.06875  0.35277  1.0000
  H   H1462     1.0  0.57860  0.20746  0.25062  1.0000
  C   C1220     1.0  0.40842  0.99943  0.38796  1.0000
  H   H1463     1.0  0.36952  0.31356  0.35715  1.0000
  H   H1464     1.0  0.60305  0.42474  0.42451  1.0000
  C   C1221     1.0  0.55627  0.21909  0.26888  1.0000
  H   H1465     1.0  0.63169  0.46545  0.34080  1.0000
  H   H1466     1.0  0.58781  0.48584  0.32798  1.0000
  H   H1467     1.0  0.63757  0.39519  0.45255  1.0000
  S   S319      1.0  0.34168  0.25466  0.25864  1.0000
  H   H1468     1.0  0.63091  0.13065  0.34957  1.0000
  H   H1469     1.0  0.64456  0.36913  0.43310  1.0000
  H   H1470     1.0  0.60789  0.18450  0.25189  1.0000
  C   C1222     1.0  0.56866  0.23103  0.29004  1.0000
  N   N82       1.0  0.41996  0.99933  0.37161  1.0000
  H   H1471     1.0  0.61979  0.10794  0.35703  1.0000
  S   S320      1.0  0.32399  0.24910  0.30371  1.0000
  C   C1223     1.0  0.64252  0.04785  0.35845  1.0000
  H   H1472     1.0  0.42898  0.11037  0.46993  1.0000
  H   H1473     1.0  0.46486  0.06962  0.44988  1.0000
  C   C1224     1.0  0.65388  0.08121  0.34801  1.0000
  H   H1474     1.0  0.47689  0.47607  0.46793  1.0000
  H   H1475     1.0  0.39443  0.01557  0.35995  1.0000
  H   H1476     1.0  0.63035  0.03848  0.36182  1.0000
  H   H1477     1.0  0.64790  0.09519  0.31851  1.0000
  C   C1225     1.0  0.32705  0.01586  0.37630  1.0000
  C   C1226     1.0  0.62385  0.45241  0.34155  1.0000
  C   C1227     1.0  0.39063  0.47079  0.33598  1.0000
  C   C1228     1.0  0.46990  0.99692  0.40022  1.0000
  H   H1478     1.0  0.59789  0.46467  0.37632  1.0000
  H   H1479     1.0  0.41332  0.00010  0.34773  1.0000
  C   C1229     1.0  0.40923  0.45959  0.33956  1.0000
  S   S321      1.0  0.32391  0.45026  0.33280  1.0000
  S   S322      1.0  0.42130  0.20981  0.71402  1.0000
  Fe  Fe165     1.0  0.61070  0.25180  0.70859  1.0000
  H   H1480     1.0  0.41918  0.03743  0.48252  1.0000
  S   S323      1.0  0.59188  0.26125  0.68807  1.0000
  Fe  Fe166     1.0  0.48648  0.23121  0.63172  1.0000
  S   S324      1.0  0.50205  0.19950  0.63916  1.0000
  S   S325      1.0  0.45499  0.24433  0.64282  1.0000
  Fe  Fe167     1.0  0.52115  0.24082  0.60525  1.0000
  S   S326      1.0  0.53945  0.20954  0.61087  1.0000
  S   S327      1.0  0.53099  0.26324  0.58341  1.0000
  Fe  Fe168     1.0  0.50962  0.19728  0.61287  1.0000
  S   S328      1.0  0.50949  0.16686  0.60390  1.0000
  Fe  Fe169     1.0  0.53028  0.21437  0.63663  1.0000
  S   S329      1.0  0.54933  0.20285  0.65684  1.0000
  S   S330      1.0  0.49193  0.22815  0.60555  1.0000
  S   S331      1.0  0.51414  0.24649  0.63084  1.0000
  Fe  Fe170     1.0  0.45110  0.10049  0.55774  1.0000
  S   S332      1.0  0.45213  0.06892  0.57210  1.0000
  S   S333      1.0  0.45150  0.13161  0.56581  1.0000
  Fe  Fe171     1.0  0.44112  0.08464  0.52793  1.0000
  S   S334      1.0  0.44146  0.05220  0.54012  1.0000
  S   S335      1.0  0.43475  0.09728  0.50261  1.0000
  Fe  Fe172     1.0  0.42400  0.06630  0.56151  1.0000
  S   S336      1.0  0.39325  0.06050  0.57594  1.0000
  Fe  Fe173     1.0  0.46944  0.05735  0.54949  1.0000
  S   S337      1.0  0.50041  0.03723  0.54573  1.0000
  S   S338      1.0  0.42196  0.09844  0.54855  1.0000
  S   S339      1.0  0.47013  0.08919  0.53587  1.0000
  Fe  Fe174     1.0  0.56066  0.37537  0.56517  1.0000
  S   S340      1.0  0.58918  0.37564  0.54728  1.0000
  S   S341      1.0  0.55672  0.35018  0.58657  1.0000
  Fe  Fe175     1.0  0.54220  0.41812  0.55019  1.0000
  S   S342      1.0  0.56939  0.42157  0.53107  1.0000
  S   S343      1.0  0.51115  0.43812  0.55264  1.0000
  Fe  Fe176     1.0  0.56842  0.38876  0.52879  1.0000
  S   S344      1.0  0.57175  0.37403  0.50624  1.0000
  Fe  Fe177     1.0  0.58818  0.40834  0.55107  1.0000
  S   S345      1.0  0.61936  0.41719  0.55202  1.0000
  S   S346      1.0  0.53991  0.38609  0.54648  1.0000
  S   S347      1.0  0.56099  0.40734  0.57033  1.0000
  C   C1230     1.0  0.50643  0.46519  0.54881  1.0000
  H   H1481     1.0  0.39594  0.19279  0.69101  1.0000
  C   C1231     1.0  0.48036  0.47090  0.48003  1.0000
  Fe  Fe178     1.0  0.65120  0.22905  0.71882  1.0000
  C   C1232     1.0  0.48574  0.05810  0.50290  1.0000
  H   H1482     1.0  0.53778  0.46945  0.54079  1.0000
  H   H1483     1.0  0.40556  0.07349  0.52498  1.0000
  H   H1484     1.0  0.47392  0.46609  0.55589  1.0000
  C   C1233     1.0  0.56904  0.38747  0.48698  1.0000
  H   H1485     1.0  0.45853  0.03061  0.50962  1.0000
  C   C1234     1.0  0.56907  0.40863  0.48348  1.0000
  C   C1235     1.0  0.48311  0.01884  0.47607  1.0000
  H   H1486     1.0  0.57173  0.41701  0.49254  1.0000
  C   C1236     1.0  0.62638  0.42964  0.56660  1.0000
  C   C1237     1.0  0.61196  0.43814  0.57840  1.0000
  C   C1238     1.0  0.61824  0.44879  0.58922  1.0000
  C   C1239     1.0  0.63892  0.45103  0.58835  1.0000
  H   H1487     1.0  0.51131  0.31438  0.62917  1.0000
  H   H1488     1.0  0.59598  0.43684  0.57901  1.0000
  H   H1489     1.0  0.34530  0.01463  0.52967  1.0000
  H   H1490     1.0  0.39985  0.02365  0.60825  1.0000
  H   H1491     1.0  0.49293  0.45384  0.52319  1.0000
  H   H1492     1.0  0.33887  0.08030  0.55094  1.0000
  H   H1493     1.0  0.44866  0.15694  0.66933  1.0000
  C   C1240     1.0  0.62734  0.39782  0.63213  1.0000
  H   H1494     1.0  0.51804  0.24485  0.55869  1.0000
  H   H1495     1.0  0.63240  0.17936  0.70238  1.0000
  H   H1496     1.0  0.62588  0.22219  0.68542  1.0000
  C   C1241     1.0  0.38518  0.01846  0.61255  1.0000
  C   C1242     1.0  0.42903  0.08388  0.48812  1.0000
  C   C1243     1.0  0.42636  0.06326  0.49159  1.0000
  H   H1497     1.0  0.42819  0.05494  0.50332  1.0000
  C   C1244     1.0  0.37897  0.04094  0.57483  1.0000
  H   H1498     1.0  0.51259  0.01169  0.49661  1.0000
  H   H1499     1.0  0.62001  0.46340  0.53601  1.0000
  C   C1245     1.0  0.38769  0.02360  0.56761  1.0000
  H   H1500     1.0  0.50678  0.24027  0.54242  1.0000
  H   H1501     1.0  0.40350  0.02211  0.56210  1.0000
  C   C1246     1.0  0.53766  0.28754  0.58462  1.0000
  C   C1247     1.0  0.53981  0.29325  0.59922  1.0000
  C   C1248     1.0  0.54562  0.31246  0.59960  1.0000
  C   C1249     1.0  0.54913  0.32627  0.58547  1.0000
  C   C1250     1.0  0.54682  0.32063  0.57091  1.0000
  C   C1251     1.0  0.54121  0.30134  0.57050  1.0000
  H   H1502     1.0  0.53726  0.28277  0.61017  1.0000
  H   H1503     1.0  0.54749  0.31661  0.61091  1.0000
  H   H1504     1.0  0.54952  0.33105  0.55993  1.0000
  H   H1505     1.0  0.53963  0.29711  0.55915  1.0000
  C   C1252     1.0  0.49290  0.15744  0.59347  1.0000
  C   C1253     1.0  0.49728  0.13686  0.59071  1.0000
  C   C1254     1.0  0.48473  0.12860  0.58246  1.0000
  C   C1255     1.0  0.46752  0.14083  0.57688  1.0000
  C   C1256     1.0  0.46304  0.16139  0.57976  1.0000
  C   C1257     1.0  0.47569  0.16970  0.58790  1.0000
  H   H1506     1.0  0.51056  0.12722  0.59494  1.0000
  H   H1507     1.0  0.48843  0.11280  0.58034  1.0000
  H   H1508     1.0  0.44988  0.17105  0.57536  1.0000
  H   H1509     1.0  0.47223  0.18562  0.58966  1.0000
  C   C1258     1.0  0.57957  0.24495  0.67988  1.0000
  C   C1259     1.0  0.57202  0.25208  0.66528  1.0000
  C   C1260     1.0  0.56239  0.23946  0.65821  1.0000
  C   C1261     1.0  0.56044  0.21952  0.66565  1.0000
  C   C1262     1.0  0.56767  0.21251  0.68040  1.0000
  C   C1263     1.0  0.57704  0.22526  0.68758  1.0000
  H   H1510     1.0  0.57384  0.26737  0.65930  1.0000
  H   H1511     1.0  0.55685  0.24503  0.64685  1.0000
  H   H1512     1.0  0.56597  0.19716  0.68631  1.0000
  H   H1513     1.0  0.58222  0.21994  0.69908  1.0000
  C   C1264     1.0  0.43018  0.21972  0.69423  1.0000
  C   C1265     1.0  0.41927  0.23669  0.68588  1.0000
  C   C1266     1.0  0.42692  0.24401  0.67002  1.0000
  C   C1267     1.0  0.44538  0.23432  0.66246  1.0000
  C   C1268     1.0  0.45607  0.21717  0.67079  1.0000
  C   C1269     1.0  0.44863  0.21007  0.68668  1.0000
  H   H1514     1.0  0.40498  0.24416  0.69162  1.0000
  H   H1515     1.0  0.41853  0.25724  0.66361  1.0000
  H   H1516     1.0  0.47008  0.20933  0.66505  1.0000
  H   H1517     1.0  0.45699  0.19679  0.69306  1.0000
  N   N83       1.0  0.49803  0.25537  0.67953  1.0000
  C   C1270     1.0  0.47704  0.25893  0.68848  1.0000
  C   C1271     1.0  0.50040  0.23618  0.67252  1.0000
  C   C1272     1.0  0.51272  0.25233  0.69130  1.0000
  C   C1273     1.0  0.50142  0.27243  0.66638  1.0000
  C   C1274     1.0  0.48681  0.27959  0.65565  1.0000
  C   C1275     1.0  0.51981  0.28128  0.66303  1.0000
  C   C1276     1.0  0.62544  0.19675  0.66381  1.0000
  C   C1277     1.0  0.57353  0.99110  0.58968  1.0000
  C   C1278     1.0  0.33702  0.05876  0.63514  1.0000
  H   H1518     1.0  0.46498  0.25790  0.68125  1.0000
  H   H1519     1.0  0.63358  0.20522  0.65304  1.0000
  H   H1520     1.0  0.47381  0.27428  0.69252  1.0000
  H   H1521     1.0  0.48975  0.23737  0.66363  1.0000
  H   H1522     1.0  0.49750  0.22281  0.68179  1.0000
  H   H1523     1.0  0.51611  0.23261  0.66610  1.0000
  H   H1524     1.0  0.51254  0.26668  0.69632  1.0000
  H   H1525     1.0  0.50916  0.24018  0.70148  1.0000
  H   H1526     1.0  0.52866  0.24705  0.68587  1.0000
  H   H1527     1.0  0.33439  0.02321  0.65595  1.0000
  H   H1528     1.0  0.46087  0.14479  0.64579  1.0000
  S   S348      1.0  0.64616  0.46502  0.60184  1.0000
  S   S349      1.0  0.35946  0.21854  0.72142  1.0000
  C   C1279     1.0  0.45316  0.19432  0.62842  1.0000
  H   H1529     1.0  0.44070  0.20525  0.62325  1.0000
  S   S350      1.0  0.34203  0.98844  0.57675  1.0000
  C   C1280     1.0  0.37608  0.00777  0.56805  1.0000
  H   H1530     1.0  0.60701  0.45550  0.59823  1.0000
  H   H1531     1.0  0.54163  0.99178  0.57154  1.0000
  N   N84       1.0  0.37295  0.07494  0.52687  1.0000
  C   C1281     1.0  0.37272  0.08129  0.50943  1.0000
  C   C1282     1.0  0.37018  0.09382  0.53451  1.0000
  C   C1283     1.0  0.35721  0.06149  0.53338  1.0000
  C   C1284     1.0  0.49032  0.29467  0.64251  1.0000
  N   N85       1.0  0.44621  0.17511  0.63725  1.0000
  N   N86       1.0  0.52080  0.21280  0.55606  1.0000
  H   H1532     1.0  0.41149  0.20359  0.64020  1.0000
  N   N87       1.0  0.33170  0.03916  0.63219  1.0000
  C   C1285     1.0  0.52318  0.29632  0.64981  1.0000
  H   H1533     1.0  0.38404  0.09192  0.50426  1.0000
  H   H1534     1.0  0.37681  0.06809  0.50257  1.0000
  H   H1535     1.0  0.39434  0.98973  0.60339  1.0000
  H   H1536     1.0  0.37111  0.09005  0.54761  1.0000
  H   H1537     1.0  0.38239  0.10346  0.52941  1.0000
  H   H1538     1.0  0.61969  0.16865  0.68922  1.0000
  H   H1539     1.0  0.62129  0.36398  0.58380  1.0000
  H   H1540     1.0  0.47504  0.15750  0.62876  1.0000
  H   H1541     1.0  0.56928  0.38164  0.60161  1.0000
  H   H1542     1.0  0.44492  0.16277  0.61571  1.0000
  C   C1286     1.0  0.32640  0.05317  0.55160  1.0000
  H   H1543     1.0  0.38910  0.21167  0.66459  1.0000
  H   H1544     1.0  0.49510  0.41970  0.52898  1.0000
  H   H1545     1.0  0.50601  0.39678  0.52110  1.0000
  C   C1287     1.0  0.41504  0.19484  0.65145  1.0000
  N   N88       1.0  0.60143  0.37547  0.60397  1.0000
  C   C1288     1.0  0.60633  0.37370  0.58663  1.0000
  C   C1289     1.0  0.60036  0.35452  0.61275  1.0000
  C   C1290     1.0  0.58093  0.38796  0.60651  1.0000
  C   C1291     1.0  0.61654  0.38499  0.61000  1.0000
  C   C1292     1.0  0.61372  0.38820  0.62627  1.0000
  C   C1293     1.0  0.63415  0.39151  0.60010  1.0000
  C   C1294     1.0  0.36913  0.03144  0.62004  1.0000
  H   H1546     1.0  0.51374  0.14587  0.55117  1.0000
  C   C1295     1.0  0.50982  0.02803  0.49849  1.0000
  H   H1547     1.0  0.60656  0.38901  0.57923  1.0000
  C   C1296     1.0  0.43496  0.16668  0.62690  1.0000
  H   H1548     1.0  0.60885  0.48505  0.55749  1.0000
  H   H1549     1.0  0.61562  0.34481  0.61149  1.0000
  C   C1297     1.0  0.42130  0.05338  0.47978  1.0000
  C   C1298     1.0  0.48955  0.45803  0.51107  1.0000
  H   H1550     1.0  0.65025  0.21010  0.69118  1.0000
  C   C1299     1.0  0.48614  0.47508  0.55127  1.0000
  H   H1551     1.0  0.63757  0.38998  0.58753  1.0000
  H   H1552     1.0  0.58949  0.34676  0.60812  1.0000
  H   H1553     1.0  0.39766  0.04998  0.52309  1.0000
  N   N89       1.0  0.50867  0.42424  0.50405  1.0000
  C   C1300     1.0  0.50426  0.01037  0.54610  1.0000
  C   C1301     1.0  0.48249  0.03755  0.48205  1.0000
  C   C1302     1.0  0.62469  0.48326  0.55195  1.0000
  C   C1303     1.0  0.62429  0.18294  0.69164  1.0000
  C   C1304     1.0  0.34940  0.02549  0.62501  1.0000
  H   H1554     1.0  0.53822  0.21766  0.53267  1.0000
  H   H1555     1.0  0.39412  0.05822  0.54235  1.0000
  H   H1556     1.0  0.52322  0.39636  0.49471  1.0000
  C   C1305     1.0  0.43248  0.17947  0.65212  1.0000
  H   H1557     1.0  0.47470  0.24716  0.69919  1.0000
  H   H1558     1.0  0.52560  0.43561  0.51932  1.0000
  H   H1559     1.0  0.38301  0.99420  0.56272  1.0000
  H   H1560     1.0  0.60078  0.38353  0.63454  1.0000
  H   H1561     1.0  0.42910  0.15245  0.63323  1.0000
  C   C1306     1.0  0.35818  0.04258  0.52759  1.0000
  H   H1562     1.0  0.47289  0.27301  0.65688  1.0000
  H   H1563     1.0  0.37018  0.03777  0.51831  1.0000
  C   C1307     1.0  0.48883  0.99853  0.55265  1.0000
  C   C1308     1.0  0.48901  0.16809  0.54332  1.0000
  C   C1309     1.0  0.50942  0.23400  0.55491  1.0000
  H   H1564     1.0  0.34882  0.05600  0.64333  1.0000
  H   H1565     1.0  0.48082  0.15667  0.54065  1.0000
  C   C1310     1.0  0.49634  0.44438  0.49960  1.0000
  C   C1311     1.0  0.56639  0.37662  0.47493  1.0000
  H   H1566     1.0  0.35165  0.05597  0.58759  1.0000
  H   H1567     1.0  0.48799  0.00429  0.48296  1.0000
  H   H1568     1.0  0.53673  0.43706  0.49875  1.0000
  S   S351      1.0  0.64287  0.25890  0.70340  1.0000
  H   H1569     1.0  0.46959  0.06577  0.50344  1.0000
  C   C1312     1.0  0.48061  0.18872  0.54138  1.0000
  H   H1570     1.0  0.45923  0.20248  0.63651  1.0000
  H   H1571     1.0  0.47407  0.16560  0.64777  1.0000
  C   C1313     1.0  0.63101  0.47115  0.53978  1.0000
  H   H1572     1.0  0.47795  0.00849  0.50908  1.0000
  H   H1573     1.0  0.46545  0.19136  0.61825  1.0000
  H   H1574     1.0  0.49996  0.40794  0.48706  1.0000
  H   H1575     1.0  0.47472  0.07095  0.47557  1.0000
  H   H1576     1.0  0.57506  0.38850  0.61936  1.0000
  H   H1577     1.0  0.35733  0.08923  0.50692  1.0000
  H   H1578     1.0  0.60983  0.19316  0.69496  1.0000
  H   H1579     1.0  0.53746  0.30259  0.64731  1.0000
  H   H1580     1.0  0.42561  0.16563  0.69301  1.0000
  C   C1314     1.0  0.52491  0.20666  0.57283  1.0000
  C   C1315     1.0  0.49744  0.41237  0.51793  1.0000
  H   H1581     1.0  0.58130  0.40404  0.60053  1.0000
  H   H1582     1.0  0.48213  0.41057  0.51539  1.0000
  H   H1583     1.0  0.52013  0.03643  0.48909  1.0000
  H   H1584     1.0  0.62257  0.18222  0.66044  1.0000
  C   C1316     1.0  0.49139  0.45140  0.48386  1.0000
  H   H1585     1.0  0.62091  0.99161  0.59913  1.0000
  H   H1586     1.0  0.65191  0.15190  0.69019  1.0000
  H   H1587     1.0  0.53203  0.27659  0.67025  1.0000
  C   C1317     1.0  0.64710  0.43153  0.56595  1.0000
  C   C1318     1.0  0.43582  0.16880  0.66752  1.0000
  H   H1588     1.0  0.54929  0.22477  0.54840  1.0000
  C   C1319     1.0  0.47502  0.02503  0.51033  1.0000
  C   C1320     1.0  0.51392  0.41137  0.49094  1.0000
  H   H1589     1.0  0.48323  0.21909  0.54370  1.0000
  C   C1321     1.0  0.35847  0.04255  0.58207  1.0000
  H   H1590     1.0  0.47397  0.00583  0.55758  1.0000
  H   H1591     1.0  0.42160  0.17771  0.62318  1.0000
  C   C1322     1.0  0.34688  0.02674  0.58249  1.0000
  C   C1323     1.0  0.51785  0.17658  0.55326  1.0000
  H   H1592     1.0  0.53545  0.00977  0.53457  1.0000
  C   C1324     1.0  0.50968  0.19775  0.55155  1.0000
  H   H1593     1.0  0.52339  0.41884  0.48037  1.0000
  H   H1594     1.0  0.55068  0.19833  0.54652  1.0000
  H   H1595     1.0  0.33118  0.02798  0.58823  1.0000
  C   C1325     1.0  0.34691  0.00582  0.62215  1.0000
  H   H1596     1.0  0.37251  0.04625  0.62129  1.0000
  C   C1326     1.0  0.36302  0.99302  0.61460  1.0000
  C   C1327     1.0  0.52347  0.00068  0.53974  1.0000
  N   N90       1.0  0.63717  0.19266  0.67756  1.0000
  C   C1328     1.0  0.54061  0.21339  0.54544  1.0000
  H   H1597     1.0  0.56651  0.36021  0.47755  1.0000
  C   C1329     1.0  0.65164  0.46778  0.53324  1.0000
  H   H1598     1.0  0.64813  0.22212  0.67107  1.0000
  C   C1330     1.0  0.34077  0.06646  0.54559  1.0000
  H   H1599     1.0  0.49010  0.05744  0.51500  1.0000
  H   H1600     1.0  0.47772  0.02586  0.52269  1.0000
  H   H1601     1.0  0.35534  0.10361  0.53266  1.0000
  H   H1602     1.0  0.49570  0.06810  0.49459  1.0000
  C   C1331     1.0  0.50758  0.16203  0.54925  1.0000
  C   C1332     1.0  0.52811  0.42757  0.50863  1.0000
  H   H1603     1.0  0.46598  0.19323  0.53699  1.0000
  H   H1604     1.0  0.53208  0.17103  0.55800  1.0000
  H   H1605     1.0  0.59493  0.35455  0.62573  1.0000
  C   C1333     1.0  0.35572  0.00917  0.57564  1.0000
  C   C1334     1.0  0.49072  0.20343  0.54538  1.0000
  N   N91       1.0  0.48813  0.03736  0.49812  1.0000
  H   H1606     1.0  0.53150  0.21862  0.57714  1.0000
  H   H1607     1.0  0.58723  0.01347  0.59818  1.0000
  C   C1335     1.0  0.42259  0.17351  0.68130  1.0000
  C   C1336     1.0  0.39344  0.06362  0.52941  1.0000
  C   C1337     1.0  0.46479  0.16010  0.64013  1.0000
  H   H1608     1.0  0.51057  0.20394  0.58093  1.0000
  H   H1609     1.0  0.49450  0.23470  0.56292  1.0000
  H   H1610     1.0  0.53813  0.41279  0.51165  1.0000
  H   H1611     1.0  0.53594  0.19232  0.57450  1.0000
  C   C1338     1.0  0.50848  0.30300  0.63957  1.0000
  C   C1339     1.0  0.40578  0.18884  0.68021  1.0000
  H   H1612     1.0  0.59472  0.36647  0.58250  1.0000
  H   H1613     1.0  0.61031  0.20628  0.66658  1.0000
  C   C1340     1.0  0.34392  0.02929  0.53389  1.0000
  H   H1614     1.0  0.51472  0.02839  0.51028  1.0000
  C   C1341     1.0  0.40201  0.19950  0.66532  1.0000
  C   C1342     1.0  0.38210  0.99936  0.60977  1.0000
  H   H1615     1.0  0.34267  0.06813  0.62376  1.0000
  C   C1343     1.0  0.64055  0.21255  0.68145  1.0000
  C   C1344     1.0  0.52212  0.47692  0.54282  1.0000
  C   C1345     1.0  0.58953  0.99826  0.59474  1.0000
  C   C1346     1.0  0.32395  0.15670  0.71827  1.0000
  H   H1616     1.0  0.47912  0.29948  0.63429  1.0000
  C   C1347     1.0  0.65334  0.44225  0.57670  1.0000
  H   H1617     1.0  0.55931  0.00146  0.58942  1.0000
  C   C1348     1.0  0.32946  0.30883  0.71948  1.0000
  H   H1618     1.0  0.62469  0.40049  0.64452  1.0000
  C   C1349     1.0  0.32808  0.03456  0.54587  1.0000
  H   H1619     1.0  0.33228  0.00044  0.62525  1.0000
  H   H1620     1.0  0.32775  0.41003  0.67774  1.0000
  H   H1621     1.0  0.32836  0.15886  0.70543  1.0000
  H   H1622     1.0  0.33126  0.38702  0.66873  1.0000
  C   C1350     1.0  0.64427  0.40429  0.62206  1.0000
  C   C1351     1.0  0.47869  0.47750  0.50711  1.0000
  H   H1623     1.0  0.65461  0.41213  0.62651  1.0000
  C   C1352     1.0  0.42694  0.09440  0.47271  1.0000
  C   C1353     1.0  0.64779  0.40089  0.60616  1.0000
  H   H1624     1.0  0.65580  0.45720  0.52459  1.0000
  C   C1354     1.0  0.47409  0.48392  0.49162  1.0000
  H   H1625     1.0  0.34528  0.30237  0.72022  1.0000
  H   H1626     1.0  0.33401  0.33981  0.72039  1.0000
  C   C1355     1.0  0.47604  0.05595  0.47204  1.0000
  H   H1627     1.0  0.49604  0.44226  0.47423  1.0000
  C   C1356     1.0  0.65702  0.17980  0.67326  1.0000
  Fe  Fe179     1.0  0.47474  0.26726  0.85894  1.0000
  S   S352      1.0  0.50822  0.25562  0.85401  1.0000
  S   S353      1.0  0.46250  0.28956  0.87700  1.0000
  Fe  Fe180     1.0  0.46333  0.23796  0.83822  1.0000
  S   S354      1.0  0.49624  0.22398  0.83275  1.0000
  S   S355      1.0  0.44230  0.22160  0.82796  1.0000
  Fe  Fe181     1.0  0.49808  0.22452  0.85867  1.0000
  S   S356      1.0  0.51425  0.19923  0.87525  1.0000
  Fe  Fe182     1.0  0.50275  0.25635  0.82861  1.0000
  S   S357      1.0  0.51960  0.27067  0.80537  1.0000
  S   S358      1.0  0.46478  0.23604  0.86458  1.0000
  S   S359      1.0  0.46965  0.27048  0.83306  1.0000
  Fe  Fe183     1.0  0.63617  0.27281  0.72612  1.0000
  S   S360      1.0  0.52904  0.33750  0.95800  1.0000
  Fe  Fe184     1.0  0.48898  0.38433  0.94574  1.0000
  S   S361      1.0  0.51862  0.37538  0.93028  1.0000
  S   S362      1.0  0.46937  0.41295  0.93517  1.0000
  Fe  Fe185     1.0  0.51167  0.34311  0.93683  1.0000
  S   S363      1.0  0.51935  0.32191  0.91753  1.0000
  Fe  Fe186     1.0  0.53337  0.37082  0.95260  1.0000
  S   S364      1.0  0.56483  0.38062  0.95128  1.0000
  S   S365      1.0  0.48106  0.35229  0.95109  1.0000
  C   C1357     1.0  0.57328  0.06633  0.95840  1.0000
  N   N92       1.0  0.46050  0.01621  0.96928  1.0000
  C   C1358     1.0  0.48956  0.21800  0.92656  1.0000
  Fe  Fe187     1.0  0.47086  0.11879  0.94462  1.0000
  S   S366      1.0  0.32421  0.47054  0.95893  1.0000
  S   S367      1.0  0.46203  0.13685  0.92138  1.0000
  H   H1628     1.0  0.32647  0.98795  0.83850  1.0000
  C   C1359     1.0  0.59540  0.30526  0.76034  1.0000
  C   C1360     1.0  0.49211  0.13684  0.87273  1.0000
  S   S368      1.0  0.50061  0.11534  0.95437  1.0000
  S   S369      1.0  0.46670  0.08569  0.95217  1.0000
  H   H1629     1.0  0.35263  0.44777  0.93621  1.0000
  S   S370      1.0  0.38502  0.20735  0.75244  1.0000
  C   C1361     1.0  0.41193  0.40891  0.95872  1.0000
  S   S371      1.0  0.34123  0.23721  0.75517  1.0000
  Fe  Fe188     1.0  0.37374  0.23944  0.75757  1.0000
  S   S372      1.0  0.38186  0.25628  0.77624  1.0000
  Fe  Fe189     1.0  0.35319  0.20631  0.74743  1.0000
  H   H1630     1.0  0.47403  0.17099  0.95744  1.0000
  S   S373      1.0  0.38065  0.25436  0.73206  1.0000
  Fe  Fe190     1.0  0.61424  0.23767  0.74373  1.0000
  H   H1631     1.0  0.48590  0.24797  0.80182  1.0000
  S   S374      1.0  0.59923  0.22436  0.76800  1.0000
  H   H1632     1.0  0.34446  0.31022  0.74978  1.0000
  S   S375      1.0  0.51528  0.05271  0.96543  1.0000
  H   H1633     1.0  0.45317  0.30938  0.90529  1.0000
  C   C1362     1.0  0.33161  0.16814  0.72778  1.0000
  H   H1634     1.0  0.49250  0.21062  0.75941  1.0000
  Fe  Fe191     1.0  0.35828  0.46646  0.95930  1.0000
  C   C1363     1.0  0.34412  0.44761  0.92615  1.0000
  H   H1635     1.0  0.61748  0.33368  0.75493  1.0000
  H   H1636     1.0  0.38425  0.45166  0.91594  1.0000
  C   C1364     1.0  0.47774  0.22005  0.75933  1.0000
  H   H1637     1.0  0.43614  0.00371  0.96225  1.0000
  H   H1638     1.0  0.37768  0.41948  0.92828  1.0000
  H   H1639     1.0  0.46133  0.13234  0.87961  1.0000
  C   C1365     1.0  0.49343  0.19444  0.95157  1.0000
  S   S376      1.0  0.37334  0.03162  0.95494  1.0000
  H   H1640     1.0  0.61879  0.41418  0.96406  1.0000
  S   S377      1.0  0.33415  0.18057  0.75676  1.0000
  H   H1641     1.0  0.42117  0.07936  0.95534  1.0000
  H   H1642     1.0  0.43447  0.22127  0.74285  1.0000
  C   C1366     1.0  0.55190  0.06827  0.95917  1.0000
  H   H1643     1.0  0.55012  0.10976  0.96996  1.0000
  C   C1367     1.0  0.63466  0.30407  0.78812  1.0000
  C   C1368     1.0  0.33639  0.45743  0.89157  1.0000
  C   C1369     1.0  0.50571  0.23008  0.77772  1.0000
  H   H1644     1.0  0.46888  0.20132  0.74407  1.0000
  H   H1645     1.0  0.43246  0.13519  0.86668  1.0000
  Fe  Fe192     1.0  0.35588  0.00548  0.96684  1.0000
  H   H1646     1.0  0.54364  0.45534  0.97122  1.0000
  C   C1370     1.0  0.59436  0.40072  0.95801  1.0000
  C   C1371     1.0  0.46833  0.19056  0.93554  1.0000
  C   C1372     1.0  0.45198  0.24823  0.76686  1.0000
  H   H1647     1.0  0.60382  0.39430  0.94800  1.0000
  S   S378      1.0  0.37493  0.43389  0.96147  1.0000
  C   C1373     1.0  0.62534  0.32842  0.76525  1.0000
  C   C1374     1.0  0.44330  0.41871  0.94301  1.0000
  C   C1375     1.0  0.43289  0.40403  0.95313  1.0000
  C   C1376     1.0  0.38699  0.04510  0.96476  1.0000
  C   C1377     1.0  0.40135  0.42858  0.95451  1.0000
  C   C1378     1.0  0.41177  0.44329  0.94443  1.0000
  C   C1379     1.0  0.43264  0.43829  0.93858  1.0000
  H   H1648     1.0  0.54624  0.01823  0.97102  1.0000
  H   H1649     1.0  0.37815  0.41096  0.90938  1.0000
  H   H1650     1.0  0.40381  0.45850  0.94113  1.0000
  H   H1651     1.0  0.44062  0.44974  0.93079  1.0000
  C   C1380     1.0  0.42659  0.23176  0.81288  1.0000
  C   C1381     1.0  0.42019  0.21819  0.80445  1.0000
  C   C1382     1.0  0.40693  0.22548  0.79289  1.0000
  C   C1383     1.0  0.39963  0.24641  0.78987  1.0000
  C   C1384     1.0  0.40623  0.26001  0.79816  1.0000
  C   C1385     1.0  0.41977  0.25276  0.80952  1.0000
  H   H1652     1.0  0.42538  0.20192  0.80694  1.0000
  H   H1653     1.0  0.40200  0.21486  0.78659  1.0000
  H   H1654     1.0  0.40065  0.27623  0.79592  1.0000
  H   H1655     1.0  0.42444  0.26334  0.81602  1.0000
  C   C1386     1.0  0.49943  0.18298  0.88911  1.0000
  C   C1387     1.0  0.47842  0.18441  0.88892  1.0000
  C   C1388     1.0  0.46712  0.17057  0.89936  1.0000
  C   C1389     1.0  0.47667  0.15515  0.91001  1.0000
  C   C1390     1.0  0.49755  0.15411  0.91068  1.0000
  C   C1391     1.0  0.50891  0.16800  0.90020  1.0000
  H   H1656     1.0  0.47099  0.19568  0.88039  1.0000
  H   H1657     1.0  0.45095  0.17148  0.89904  1.0000
  H   H1658     1.0  0.50506  0.14226  0.91888  1.0000
  H   H1659     1.0  0.52517  0.16681  0.90044  1.0000
  C   C1392     1.0  0.54153  0.25737  0.79512  1.0000
  C   C1393     1.0  0.54890  0.26557  0.77945  1.0000
  C   C1394     1.0  0.56635  0.25540  0.77089  1.0000
  C   C1395     1.0  0.57670  0.23709  0.77803  1.0000
  C   C1396     1.0  0.56915  0.22877  0.79362  1.0000
  C   C1397     1.0  0.55155  0.23882  0.80213  1.0000
  H   H1660     1.0  0.54108  0.27983  0.77392  1.0000
  H   H1661     1.0  0.57180  0.26172  0.75880  1.0000
  H   H1662     1.0  0.57704  0.21456  0.79919  1.0000
  H   H1663     1.0  0.54595  0.23234  0.81417  1.0000
  C   C1398     1.0  0.47844  0.29835  0.88828  1.0000
  C   C1399     1.0  0.49969  0.29617  0.88405  1.0000
  C   C1400     1.0  0.51189  0.30341  0.89320  1.0000
  C   C1401     1.0  0.50306  0.31287  0.90671  1.0000
  C   C1402     1.0  0.48182  0.31482  0.91109  1.0000
  C   C1403     1.0  0.46958  0.30776  0.90183  1.0000
  H   H1664     1.0  0.50675  0.28915  0.87361  1.0000
  H   H1665     1.0  0.52830  0.30177  0.88971  1.0000
  H   H1666     1.0  0.47482  0.32160  0.92168  1.0000
  H   H1667     1.0  0.44633  0.26126  0.77314  1.0000
  H   H1668     1.0  0.46576  0.21115  0.91417  1.0000
  H   H1669     1.0  0.63068  0.27917  0.75814  1.0000
  N   N93       1.0  0.47861  0.37930  0.89466  1.0000
  C   C1404     1.0  0.46186  0.39686  0.89277  1.0000
  C   C1405     1.0  0.47764  0.36553  0.88289  1.0000
  C   C1406     1.0  0.47462  0.36804  0.91097  1.0000
  C   C1407     1.0  0.49908  0.38578  0.89258  1.0000
  C   C1408     1.0  0.51717  0.37152  0.88977  1.0000
  C   C1409     1.0  0.50172  0.40576  0.89472  1.0000
  C   C1410     1.0  0.53659  0.37716  0.88851  1.0000
  C   C1411     1.0  0.52123  0.41124  0.89343  1.0000
  C   C1412     1.0  0.53862  0.39701  0.89027  1.0000
  H   H1670     1.0  0.46510  0.40705  0.88127  1.0000
  H   H1671     1.0  0.44688  0.39167  0.89303  1.0000
  H   H1672     1.0  0.45940  0.40614  0.90281  1.0000
  H   H1673     1.0  0.48307  0.37240  0.87048  1.0000
  H   H1674     1.0  0.46186  0.36217  0.88320  1.0000
  H   H1675     1.0  0.48691  0.35019  0.88538  1.0000
  H   H1676     1.0  0.47394  0.37815  0.92017  1.0000
  H   H1677     1.0  0.45994  0.36172  0.91303  1.0000
  H   H1678     1.0  0.48705  0.35513  0.91332  1.0000
  H   H1679     1.0  0.51659  0.35561  0.88925  1.0000
  H   H1680     1.0  0.48898  0.41720  0.89805  1.0000
  H   H1681     1.0  0.55011  0.36582  0.88679  1.0000
  H   H1682     1.0  0.52286  0.42642  0.89548  1.0000
  H   H1683     1.0  0.55369  0.40115  0.88977  1.0000
  H   H1684     1.0  0.52211  0.14522  0.86472  1.0000
  C   C1413     1.0  0.32588  0.16563  0.74439  1.0000
  C   C1414     1.0  0.47190  0.23713  0.76791  1.0000
  H   H1685     1.0  0.44414  0.19734  0.85728  1.0000
  H   H1686     1.0  0.35684  0.29254  0.78381  1.0000
  C   C1415     1.0  0.57507  0.02977  0.96670  1.0000
  H   H1687     1.0  0.34189  0.17891  0.72225  1.0000
  C   C1416     1.0  0.43825  0.16567  0.84263  1.0000
  C   C1417     1.0  0.54207  0.05096  0.96387  1.0000
  H   H1688     1.0  0.50098  0.18930  0.96213  1.0000
  C   C1418     1.0  0.49920  0.16539  0.85252  1.0000
  H   H1689     1.0  0.58634  0.32032  0.76259  1.0000
  C   C1419     1.0  0.49724  0.99933  0.96738  1.0000
  H   H1690     1.0  0.47192  0.22811  0.79964  1.0000
  H   H1691     1.0  0.49743  0.12422  0.88150  1.0000
  S   S379      1.0  0.45139  0.12903  0.96662  1.0000
  C   C1420     1.0  0.47122  0.14180  0.87152  1.0000
  H   H1692     1.0  0.58090  0.07971  0.95472  1.0000
  H   H1693     1.0  0.34851  0.31891  0.77712  1.0000
  H   H1694     1.0  0.58192  0.28321  0.78680  1.0000
  C   C1421     1.0  0.51822  0.22999  0.90846  1.0000
  H   H1695     1.0  0.42946  0.15056  0.88269  1.0000
  H   H1696     1.0  0.40196  0.05947  0.94253  1.0000
  C   C1422     1.0  0.40026  0.05804  0.95545  1.0000
  H   H1697     1.0  0.47379  0.18395  0.84293  1.0000
  N   N94       1.0  0.35778  0.43909  0.91267  1.0000
  C   C1423     1.0  0.44489  0.22573  0.74967  1.0000
  C   C1424     1.0  0.47578  0.24356  0.79427  1.0000
  H   H1698     1.0  0.46334  0.02066  0.94357  1.0000
  C   C1425     1.0  0.65101  0.33447  0.78011  1.0000
  H   H1699     1.0  0.47566  0.27611  0.77162  1.0000
  C   C1426     1.0  0.50605  0.14864  0.86330  1.0000
  C   C1427     1.0  0.49911  0.21113  0.94054  1.0000
  H   H1700     1.0  0.51542  0.23517  0.78526  1.0000
  H   H1701     1.0  0.50057  0.26977  0.77738  1.0000
  H   H1702     1.0  0.38362  0.44740  0.89578  1.0000
  H   H1703     1.0  0.47753  0.25818  0.92797  1.0000
  H   H1704     1.0  0.41863  0.19175  0.86201  1.0000
  C   C1428     1.0  0.48977  0.26464  0.77078  1.0000
  H   H1705     1.0  0.49665  0.26551  0.75797  1.0000
  C   C1429     1.0  0.42835  0.15105  0.86976  1.0000
  H   H1706     1.0  0.49825  0.26735  0.91411  1.0000
  H   H1707     1.0  0.42353  0.25115  0.75736  1.0000
  H   H1708     1.0  0.65269  0.05794  0.86345  1.0000
  H   H1709     1.0  0.64178  0.35433  0.75936  1.0000
  H   H1710     1.0  0.51005  0.17491  0.84560  1.0000
  H   H1711     1.0  0.58390  0.01486  0.96957  1.0000
  N   N95       1.0  0.60794  0.29642  0.77333  1.0000
  C   C1430     1.0  0.59363  0.29244  0.78833  1.0000
  C   C1431     1.0  0.41122  0.06929  0.96269  1.0000
  H   H1712     1.0  0.52086  0.21546  0.90315  1.0000
  H   H1713     1.0  0.58434  0.29508  0.75923  1.0000
  H   H1714     1.0  0.44425  0.15066  0.83836  1.0000
  H   H1715     1.0  0.42173  0.16946  0.84125  1.0000
  N   N96       1.0  0.49630  0.23532  0.91483  1.0000
  H   H1716     1.0  0.51120  0.21850  0.94296  1.0000
  C   C1432     1.0  0.36800  0.41852  0.91904  1.0000
  H   H1717     1.0  0.35672  0.40836  0.92525  1.0000
  C   C1433     1.0  0.46432  0.21451  0.75040  1.0000
  H   H1718     1.0  0.50234  0.01413  0.96555  1.0000
  C   C1434     1.0  0.47383  0.20725  0.92444  1.0000
  C   C1435     1.0  0.43877  0.24259  0.75783  1.0000
  H   H1719     1.0  0.54307  0.08304  0.95591  1.0000
  H   H1720     1.0  0.49032  0.25353  0.89227  1.0000
  H   H1721     1.0  0.50334  0.25200  0.93245  1.0000
  H   H1722     1.0  0.62838  0.26821  0.77885  1.0000
  C   C1436     1.0  0.47837  0.17051  0.85120  1.0000
  H   H1723     1.0  0.52360  0.24213  0.89888  1.0000
  C   C1437     1.0  0.43468  0.18586  0.86411  1.0000
  H   H1724     1.0  0.33701  0.46366  0.92261  1.0000
  C   C1438     1.0  0.46367  0.15896  0.86075  1.0000
  H   H1725     1.0  0.46144  0.25463  0.79550  1.0000
  H   H1726     1.0  0.52835  0.22793  0.91783  1.0000
  H   H1727     1.0  0.44585  0.17758  0.83427  1.0000
  S   S380      1.0  0.64688  0.24349  0.74128  1.0000
  H   H1728     1.0  0.48658  0.22754  0.89409  1.0000
  C   C1439     1.0  0.64871  0.31625  0.79031  1.0000
  C   C1440     1.0  0.48475  0.24064  0.90094  1.0000
  H   H1729     1.0  0.41192  0.15605  0.86841  1.0000
  H   H1730     1.0  0.46817  0.24564  0.90467  1.0000
  C   C1441     1.0  0.47816  0.18411  0.94901  1.0000
  H   H1731     1.0  0.43554  0.18591  0.87694  1.0000
  C   C1442     1.0  0.49375  0.25393  0.92272  1.0000
  H   H1732     1.0  0.51471  0.23022  0.76556  1.0000
  S   S381      1.0  0.60315  0.26816  0.73024  1.0000
  N   N97       1.0  0.44162  0.16512  0.85943  1.0000
  H   H1733     1.0  0.60511  0.30723  0.74844  1.0000
  H   H1734     1.0  0.44094  0.38890  0.95660  1.0000
  H   H1735     1.0  0.63376  0.28987  0.79614  1.0000
  H   H1736     1.0  0.50377  0.21403  0.78296  1.0000
  H   H1737     1.0  0.60934  0.26616  0.76714  1.0000
  N   N98       1.0  0.48565  0.24358  0.77744  1.0000
  C   C1443     1.0  0.58491  0.04709  0.96228  1.0000
  N   N99       1.0  0.32925  0.29827  0.77272  1.0000
  C   C1444     1.0  0.62242  0.30983  0.77556  1.0000
  C   C1445     1.0  0.61959  0.27664  0.76923  1.0000
  C   C1446     1.0  0.34542  0.43878  0.89988  1.0000
  H   H1738     1.0  0.36766  0.46873  0.90403  1.0000
  H   H1739     1.0  0.33149  0.43843  0.93085  1.0000
  Fe  Fe193     1.0  0.34899  0.24962  0.72932  1.0000
  H   H1740     1.0  0.60149  0.28353  0.79831  1.0000
  H   H1741     1.0  0.45162  0.04301  0.95263  1.0000
  H   H1742     1.0  0.33855  0.47213  0.89418  1.0000
  C   C1447     1.0  0.37399  0.45225  0.90678  1.0000
  H   H1743     1.0  0.35634  0.28546  0.75804  1.0000
  H   H1744     1.0  0.58539  0.30704  0.79232  1.0000
  S   S382      1.0  0.63955  0.99447  0.94494  1.0000
  C   C1448     1.0  0.57396  0.39701  0.96209  1.0000
  C   C1449     1.0  0.60287  0.41213  0.96704  1.0000
  Fe  Fe194     1.0  0.39039  0.22203  0.72675  1.0000
  H   H1745     1.0  0.65521  0.18079  0.72617  1.0000
  Fe  Fe195     1.0  0.49474  0.08316  0.96402  1.0000
  H   H1746     1.0  0.64902  0.07476  0.83585  1.0000
  H   H1747     1.0  0.45663  0.18225  0.93352  1.0000
  C   C1450     1.0  0.47609  0.99759  0.96953  1.0000
  Fe  Fe196     1.0  0.62977  0.01333  0.96502  1.0000
  C   C1451     1.0  0.63935  0.34052  0.76763  1.0000
  C   C1452     1.0  0.34063  0.42033  0.89618  1.0000
  C   C1453     1.0  0.55372  0.03172  0.96750  1.0000
  C   C1454     1.0  0.46367  0.02931  0.95355  1.0000
  S   S383      1.0  0.61156  0.04526  0.96196  1.0000
  H   H1748     1.0  0.47859  0.03525  0.95143  1.0000
  H   H1749     1.0  0.40395  0.39745  0.96651  1.0000
  H   H1750     1.0  0.33349  0.28747  0.74972  1.0000
  C   C1455     1.0  0.34134  0.29529  0.75690  1.0000
  S   S384      1.0  0.50421  0.38205  0.96765  1.0000
  S   S385      1.0  0.32391  0.00356  0.96255  1.0000
  H   H1751     1.0  0.33653  0.26653  0.78271  1.0000
  H   H1752     1.0  0.51193  0.47958  0.97020  1.0000
  C   C1456     1.0  0.34297  0.30421  0.78261  1.0000
  S   S386      1.0  0.64382  0.30471  0.72551  1.0000
  H   H1753     1.0  0.33530  0.30550  0.79503  1.0000
  H   H1754     1.0  0.34650  0.40541  0.90201  1.0000
  C   C1457     1.0  0.32745  0.42072  0.88498  1.0000
  S   S387      1.0  0.61946  0.22066  0.72235  1.0000
  Fe  Fe197     1.0  0.52945  0.71359  0.10903  1.0000
  S   S388      1.0  0.51079  0.74487  0.10643  1.0000
  S   S389      1.0  0.54613  0.70177  0.13064  1.0000
  Fe  Fe198     1.0  0.51297  0.70114  0.08068  1.0000
  S   S390      1.0  0.49280  0.73147  0.07670  1.0000
  S   S391      1.0  0.51752  0.68031  0.06138  1.0000
  Fe  Fe199     1.0  0.51985  0.74514  0.07988  1.0000
  S   S392      1.0  0.53228  0.77125  0.06278  1.0000
  Fe  Fe200     1.0  0.48560  0.72812  0.10360  1.0000
  S   S393      1.0  0.45349  0.73738  0.11587  1.0000
  S   S394      1.0  0.54069  0.71503  0.08267  1.0000
  S   S395      1.0  0.50368  0.69661  0.10745  1.0000
  Fe  Fe201     1.0  0.49864  0.84413  0.98919  1.0000
  H   H1755     1.0  0.41321  0.71199  0.08520  1.0000
  S   S396      1.0  0.48326  0.82143  0.00782  1.0000
  C   C1458     1.0  0.35200  0.50966  0.01283  1.0000
  C   C1459     1.0  0.36531  0.55968  0.99996  1.0000
  C   C1460     1.0  0.55111  0.56477  0.98519  1.0000
  H   H1756     1.0  0.53944  0.52187  0.99068  1.0000
  H   H1757     1.0  0.49453  0.74046  0.99842  1.0000
  S   S397      1.0  0.50013  0.87674  0.99180  1.0000
  Fe  Fe202     1.0  0.47409  0.61097  0.01402  1.0000
  S   S398      1.0  0.49417  0.62601  0.99344  1.0000
  S   S399      1.0  0.47129  0.61672  0.03988  1.0000
  Fe  Fe203     1.0  0.45930  0.58492  0.99258  1.0000
  C   C1461     1.0  0.46144  0.69116  0.09134  1.0000
  S   S400      1.0  0.44325  0.55678  0.99452  1.0000
  Fe  Fe204     1.0  0.50299  0.59489  0.98575  1.0000
  C   C1462     1.0  0.50637  0.77533  0.99047  1.0000
  C   C1463     1.0  0.53940  0.50768  0.98630  1.0000
  S   S401      1.0  0.48520  0.57932  0.00743  1.0000
  S   S402      1.0  0.44666  0.61537  0.00110  1.0000
  Fe  Fe205     1.0  0.39812  0.70815  0.20383  1.0000
  H   H1758     1.0  0.44449  0.65958  0.08737  1.0000
  S   S403      1.0  0.42335  0.69447  0.18568  1.0000
  H   H1759     1.0  0.57013  0.49699  0.99171  1.0000
  C   C1464     1.0  0.43597  0.67489  0.08348  1.0000
  N   N100      1.0  0.34297  0.53158  0.00996  1.0000
  H   H1760     1.0  0.46978  0.67637  0.09647  1.0000
  H   H1761     1.0  0.55519  0.53850  0.02249  1.0000
  S   S404      1.0  0.36450  0.71718  0.20216  1.0000
  Fe  Fe206     1.0  0.64530  0.75950  0.19830  1.0000
  H   H1762     1.0  0.54879  0.70700  0.21696  1.0000
  Fe  Fe207     1.0  0.61732  0.74453  0.17876  1.0000
  S   S405      1.0  0.60207  0.72628  0.20039  1.0000
  S   S406      1.0  0.60781  0.74965  0.15391  1.0000
  Fe  Fe208     1.0  0.60126  0.75371  0.21251  1.0000
  Fe  Fe209     1.0  0.63354  0.71671  0.20751  1.0000
  S   S407      1.0  0.61475  0.77284  0.19043  1.0000
  C   C1465     1.0  0.33734  0.63550  0.20510  1.0000
  H   H1763     1.0  0.48324  0.49451  0.98573  1.0000
  Fe  Fe210     1.0  0.62008  0.49542  0.00046  1.0000
  S   S408      1.0  0.38286  0.93682  0.99662  1.0000
  H   H1764     1.0  0.44809  0.89179  0.98620  1.0000
  H   H1765     1.0  0.34815  0.62959  0.19549  1.0000
  H   H1766     1.0  0.41115  0.71579  0.11242  1.0000
  C   C1466     1.0  0.43004  0.71104  0.08466  1.0000
  C   C1467     1.0  0.48326  0.72155  0.98543  1.0000
  S   S409      1.0  0.59496  0.51705  0.01287  1.0000
  H   H1767     1.0  0.47123  0.51931  0.98995  1.0000
  C   C1468     1.0  0.32399  0.53499  0.02146  1.0000
  C   C1469     1.0  0.50367  0.53774  0.98504  1.0000
  H   H1768     1.0  0.51226  0.78988  0.99067  1.0000
  H   H1769     1.0  0.36073  0.56260  0.98816  1.0000
  C   C1470     1.0  0.49042  0.73954  0.98690  1.0000
  C   C1471     1.0  0.41581  0.67689  0.14275  1.0000
  C   C1472     1.0  0.41723  0.53336  0.98673  1.0000
  C   C1473     1.0  0.40906  0.69577  0.13425  1.0000
  H   H1770     1.0  0.42206  0.52233  0.99665  1.0000
  S   S410      1.0  0.53528  0.58440  0.97461  1.0000
  C   C1474     1.0  0.54570  0.55810  0.00148  1.0000
  C   C1475     1.0  0.55916  0.54322  0.00979  1.0000
  C   C1476     1.0  0.57786  0.53456  0.00180  1.0000
  C   C1477     1.0  0.34141  0.65197  0.21186  1.0000
  S   S411      1.0  0.64394  0.68584  0.22133  1.0000
  H   H1771     1.0  0.53133  0.56457  0.00773  1.0000
  S   S412      1.0  0.33035  0.95702  0.98215  1.0000
  H   H1772     1.0  0.48211  0.70944  0.99554  1.0000
  H   H1773     1.0  0.48899  0.54835  0.98423  1.0000
  C   C1478     1.0  0.43064  0.68621  0.10968  1.0000
  S   S413      1.0  0.40065  0.73496  0.21572  1.0000
  C   C1479     1.0  0.58293  0.67840  0.19297  1.0000
  H   H1774     1.0  0.32675  0.53041  0.03411  1.0000
  H   H1775     1.0  0.41946  0.67335  0.08486  1.0000
  Fe  Fe211     1.0  0.36168  0.96260  0.98457  1.0000
  C   C1480     1.0  0.59838  0.56154  0.02746  1.0000
  C   C1481     1.0  0.59363  0.67391  0.21914  1.0000
  H   H1776     1.0  0.35499  0.50460  0.02537  1.0000
  H   H1777     1.0  0.35528  0.65860  0.20750  1.0000
  C   C1482     1.0  0.40775  0.93076  0.98642  1.0000
  H   H1778     1.0  0.51902  0.76264  0.99295  1.0000
  C   C1483     1.0  0.44606  0.72612  0.13570  1.0000
  C   C1484     1.0  0.45662  0.70756  0.14222  1.0000
  C   C1485     1.0  0.44961  0.69824  0.15766  1.0000
  C   C1486     1.0  0.43215  0.70749  0.16678  1.0000
  C   C1487     1.0  0.42189  0.72634  0.16045  1.0000
  C   C1488     1.0  0.42875  0.73553  0.14489  1.0000
  H   H1779     1.0  0.46981  0.70005  0.13521  1.0000
  H   H1780     1.0  0.45753  0.68359  0.16246  1.0000
  H   H1781     1.0  0.40842  0.73358  0.16738  1.0000
  H   H1782     1.0  0.42049  0.74989  0.13991  1.0000
  C   C1489     1.0  0.56309  0.71543  0.13695  1.0000
  C   C1490     1.0  0.57071  0.70808  0.15152  1.0000
  C   C1491     1.0  0.58419  0.71855  0.15699  1.0000
  C   C1492     1.0  0.59033  0.73635  0.14782  1.0000
  C   C1493     1.0  0.58259  0.74377  0.13331  1.0000
  C   C1494     1.0  0.56892  0.73345  0.12793  1.0000
  H   H1783     1.0  0.56622  0.69417  0.15854  1.0000
  H   H1784     1.0  0.59013  0.71275  0.16812  1.0000
  H   H1785     1.0  0.58728  0.75753  0.12613  1.0000
  H   H1786     1.0  0.56316  0.73927  0.11670  1.0000
  C   C1495     1.0  0.49723  0.80648  0.02254  1.0000
  C   C1496     1.0  0.48693  0.79514  0.03576  1.0000
  C   C1497     1.0  0.49761  0.78374  0.04798  1.0000
  C   C1498     1.0  0.51868  0.78362  0.04700  1.0000
  C   C1499     1.0  0.52904  0.79444  0.03351  1.0000
  C   C1500     1.0  0.51840  0.80574  0.02129  1.0000
  H   H1787     1.0  0.47056  0.79553  0.03676  1.0000
  H   H1788     1.0  0.48946  0.77555  0.05835  1.0000
  H   H1789     1.0  0.54538  0.79407  0.03251  1.0000
  H   H1790     1.0  0.52658  0.81413  0.01106  1.0000
  C   C1501     1.0  0.50085  0.66573  0.05578  1.0000
  C   C1502     1.0  0.48997  0.65247  0.06708  1.0000
  C   C1503     1.0  0.48007  0.63819  0.06201  1.0000
  C   C1504     1.0  0.48107  0.63698  0.04563  1.0000
  C   C1505     1.0  0.49121  0.65082  0.03435  1.0000
  C   C1506     1.0  0.50116  0.66500  0.03942  1.0000
  H   H1791     1.0  0.49033  0.65226  0.07969  1.0000
  H   H1792     1.0  0.47245  0.62737  0.07081  1.0000
  H   H1793     1.0  0.49195  0.65017  0.02172  1.0000
  H   H1794     1.0  0.50972  0.67507  0.03062  1.0000
  H   H1795     1.0  0.58829  0.89846  0.00033  1.0000
  N   N101      1.0  0.53435  0.85736  0.03993  1.0000
  C   C1507     1.0  0.54357  0.87658  0.03675  1.0000
  C   C1508     1.0  0.52246  0.85709  0.02684  1.0000
  C   C1509     1.0  0.51970  0.85797  0.05497  1.0000
  C   C1510     1.0  0.55070  0.83938  0.04057  1.0000
  C   C1511     1.0  0.56674  0.83736  0.02756  1.0000
  C   C1512     1.0  0.55126  0.82345  0.05384  1.0000
  C   C1513     1.0  0.58252  0.82072  0.02796  1.0000
  C   C1514     1.0  0.56713  0.80690  0.05412  1.0000
  C   C1515     1.0  0.58273  0.80553  0.04124  1.0000
  H   H1796     1.0  0.55260  0.87876  0.02462  1.0000
  H   H1797     1.0  0.53172  0.89041  0.03719  1.0000
  H   H1798     1.0  0.55396  0.87670  0.04563  1.0000
  H   H1799     1.0  0.51445  0.84343  0.02912  1.0000
  H   H1800     1.0  0.53227  0.85680  0.01504  1.0000
  H   H1801     1.0  0.51056  0.87085  0.02555  1.0000
  H   H1802     1.0  0.52765  0.85823  0.06536  1.0000
  H   H1803     1.0  0.50784  0.87182  0.05421  1.0000
  H   H1804     1.0  0.51123  0.84454  0.05754  1.0000
  H   H1805     1.0  0.56713  0.84861  0.01691  1.0000
  H   H1806     1.0  0.53940  0.82303  0.06405  1.0000
  H   H1807     1.0  0.59455  0.81952  0.01786  1.0000
  H   H1808     1.0  0.56692  0.79465  0.06419  1.0000
  H   H1809     1.0  0.59477  0.79245  0.04146  1.0000
  N   N102      1.0  0.49831  0.73083  0.16561  1.0000
  C   C1516     1.0  0.50101  0.74074  0.14865  1.0000
  C   C1517     1.0  0.50329  0.70837  0.16584  1.0000
  C   C1518     1.0  0.47629  0.73594  0.17206  1.0000
  C   C1519     1.0  0.51188  0.73730  0.17531  1.0000
  C   C1520     1.0  0.53107  0.74347  0.16839  1.0000
  C   C1521     1.0  0.50697  0.73618  0.19222  1.0000
  C   C1522     1.0  0.54395  0.74911  0.17770  1.0000
  C   C1523     1.0  0.51990  0.74204  0.20140  1.0000
  C   C1524     1.0  0.53831  0.74857  0.19415  1.0000
  H   H1810     1.0  0.51599  0.73491  0.14198  1.0000
  H   H1811     1.0  0.48943  0.73743  0.14181  1.0000
  H   H1812     1.0  0.49964  0.75768  0.14781  1.0000
  H   H1813     1.0  0.50059  0.70002  0.17819  1.0000
  H   H1814     1.0  0.51965  0.70385  0.16101  1.0000
  H   H1815     1.0  0.49388  0.70274  0.15836  1.0000
  H   H1816     1.0  0.46599  0.73376  0.16370  1.0000
  H   H1817     1.0  0.47162  0.72587  0.18331  1.0000
  H   H1818     1.0  0.47252  0.75220  0.17421  1.0000
  H   H1819     1.0  0.53658  0.74396  0.15577  1.0000
  H   H1820     1.0  0.49313  0.73082  0.19855  1.0000
  H   H1821     1.0  0.48910  0.50444  0.00244  1.0000
  C   C1525     1.0  0.38017  0.55348  0.02931  1.0000
  C   C1526     1.0  0.33364  0.78993  0.21977  1.0000
  H   H1822     1.0  0.58570  0.67516  0.18073  1.0000
  H   H1823     1.0  0.43660  0.71394  0.07180  1.0000
  N   N103      1.0  0.49933  0.77501  0.97492  1.0000
  H   H1824     1.0  0.59733  0.53419  0.97916  1.0000
  C   C1527     1.0  0.38747  0.56788  0.01695  1.0000
  C   C1528     1.0  0.57186  0.90042  0.98032  1.0000
  H   H1825     1.0  0.43324  0.72392  0.09023  1.0000
  Fe  Fe212     1.0  0.46756  0.62871  0.97994  1.0000
  H   H1826     1.0  0.64306  0.86555  0.19229  1.0000
  C   C1529     1.0  0.41639  0.70053  0.11800  1.0000
  H   H1827     1.0  0.36680  0.50664  0.00487  1.0000
  C   C1530     1.0  0.42539  0.55191  0.98283  1.0000
  H   H1828     1.0  0.39867  0.70711  0.14049  1.0000
  Fe  Fe213     1.0  0.53238  0.87100  0.97920  1.0000
  C   C1531     1.0  0.58294  0.54076  0.98541  1.0000
  H   H1829     1.0  0.39654  0.51472  0.98120  1.0000
  H   H1830     1.0  0.60966  0.92520  0.98722  1.0000
  S   S414      1.0  0.53147  0.83762  0.97861  1.0000
  H   H1831     1.0  0.46425  0.70314  0.09796  1.0000
  Fe  Fe214     1.0  0.65281  0.98200  0.98842  1.0000
  C   C1532     1.0  0.42982  0.66255  0.13500  1.0000
  H   H1832     1.0  0.55847  0.75393  0.17210  1.0000
  C   C1533     1.0  0.43916  0.90644  0.98268  1.0000
  C   C1534     1.0  0.37983  0.57116  0.00241  1.0000
  N   N104      1.0  0.43920  0.69085  0.09259  1.0000
  H   H1833     1.0  0.59926  0.57195  0.00232  1.0000
  H   H1834     1.0  0.38575  0.58223  0.99276  1.0000
  H   H1835     1.0  0.46869  0.69453  0.07868  1.0000
  C   C1535     1.0  0.41959  0.91192  0.99104  1.0000
  S   S415      1.0  0.55826  0.87997  0.98951  1.0000
  H   H1836     1.0  0.43531  0.64803  0.14175  1.0000
  H   H1837     1.0  0.65366  0.85174  0.17589  1.0000
  C   C1536     1.0  0.49195  0.75569  0.97383  1.0000
  C   C1537     1.0  0.35779  0.54459  0.01224  1.0000
  H   H1838     1.0  0.41062  0.67365  0.15549  1.0000
  S   S416      1.0  0.64916  0.73255  0.18478  1.0000
  C   C1538     1.0  0.58624  0.90607  0.98840  1.0000
  H   H1839     1.0  0.61055  0.65948  0.19928  1.0000
  C   C1539     1.0  0.43714  0.66706  0.11872  1.0000
  H   H1840     1.0  0.44148  0.67847  0.07045  1.0000
  N   N105      1.0  0.50300  0.51795  0.97954  1.0000
  H   H1841     1.0  0.41351  0.90143  0.00101  1.0000
  N   N106      1.0  0.54444  0.60687  0.03316  1.0000
  C   C1540     1.0  0.52866  0.60165  0.02485  1.0000
  C   C1541     1.0  0.53526  0.60834  0.05005  1.0000
  C   C1542     1.0  0.54950  0.62742  0.02581  1.0000
  C   C1543     1.0  0.56301  0.59137  0.03151  1.0000
  C   C1544     1.0  0.57398  0.58876  0.01612  1.0000
  C   C1545     1.0  0.57054  0.57829  0.04482  1.0000
  C   C1546     1.0  0.59147  0.57416  0.01420  1.0000
  C   C1547     1.0  0.58796  0.56359  0.04272  1.0000
  H   H1842     1.0  0.61150  0.54970  0.02584  1.0000
  H   H1843     1.0  0.52458  0.58621  0.02996  1.0000
  H   H1844     1.0  0.51431  0.61276  0.02602  1.0000
  H   H1845     1.0  0.53373  0.60160  0.01181  1.0000
  H   H1846     1.0  0.52978  0.59381  0.05611  1.0000
  H   H1847     1.0  0.52164  0.62044  0.05086  1.0000
  H   H1848     1.0  0.54623  0.61249  0.05701  1.0000
  H   H1849     1.0  0.55434  0.62845  0.01269  1.0000
  H   H1850     1.0  0.53610  0.63962  0.02754  1.0000
  H   H1851     1.0  0.56202  0.63145  0.03126  1.0000
  H   H1852     1.0  0.56883  0.59761  0.00538  1.0000
  H   H1853     1.0  0.56316  0.57889  0.05697  1.0000
  C   C1548     1.0  0.33704  0.53569  0.99361  1.0000
  H   H1854     1.0  0.44832  0.65560  0.11335  1.0000
  S   S417      1.0  0.34946  0.77363  0.20700  1.0000
  H   H1855     1.0  0.55509  0.69897  0.18983  1.0000
  C   C1549     1.0  0.40267  0.52902  0.97803  1.0000
  C   C1550     1.0  0.56969  0.55597  0.97717  1.0000
  H   H1856     1.0  0.39930  0.57632  0.01850  1.0000
  Fe  Fe215     1.0  0.36637  0.74249  0.21608  1.0000
  H   H1857     1.0  0.34158  0.49945  0.01057  1.0000
  H   H1858     1.0  0.51592  0.54588  0.97759  1.0000
  C   C1551     1.0  0.59834  0.92129  0.98103  1.0000
  H   H1859     1.0  0.59327  0.55343  0.05295  1.0000
  C   C1552     1.0  0.56568  0.69176  0.19815  1.0000
  H   H1860     1.0  0.38619  0.55098  0.04060  1.0000
  H   H1861     1.0  0.32946  0.55174  0.99077  1.0000
  C   C1553     1.0  0.36544  0.54208  0.02709  1.0000
  C   C1554     1.0  0.56230  0.69632  0.21384  1.0000
  C   C1555     1.0  0.59689  0.66953  0.20343  1.0000
  C   C1556     1.0  0.52230  0.50340  0.98020  1.0000
  H   H1862     1.0  0.51559  0.74160  0.21423  1.0000
  H   H1863     1.0  0.64845  0.89670  0.17552  1.0000
  H   H1864     1.0  0.49363  0.77445  0.00062  1.0000
  H   H1865     1.0  0.54832  0.75317  0.20126  1.0000
  H   H1866     1.0  0.36035  0.53102  0.03701  1.0000
  H   H1867     1.0  0.35056  0.53279  0.98435  1.0000
  S   S418      1.0  0.65338  0.49866  0.99370  1.0000
  C   C1557     1.0  0.48596  0.50860  0.98984  1.0000
  H   H1868     1.0  0.50614  0.53553  0.99780  1.0000
  H   H1869     1.0  0.46907  0.79029  0.98214  1.0000
  C   C1558     1.0  0.55728  0.49348  0.98692  1.0000
  H   H1870     1.0  0.32601  0.52564  0.99221  1.0000
  H   H1871     1.0  0.64675  0.79433  0.22100  1.0000
  C   C1559     1.0  0.48255  0.79238  0.97281  1.0000
  S   S419      1.0  0.35594  0.48746  0.97783  1.0000
  H   H1872     1.0  0.45539  0.97437  0.97334  1.0000
  H   H1873     1.0  0.48738  0.80718  0.97384  1.0000
  C   C1560     1.0  0.41573  0.94425  0.97354  1.0000
  H   H1874     1.0  0.48196  0.94498  0.97331  1.0000
  S   S420      1.0  0.63150  0.74281  0.22145  1.0000
  H   H1875     1.0  0.32434  0.68892  0.19098  1.0000
  S   S421      1.0  0.35892  0.72415  0.24024  1.0000
  Fe  Fe216     1.0  0.39313  0.71465  0.23899  1.0000
  S   S422      1.0  0.41338  0.70647  0.25893  1.0000
  H   H1876     1.0  0.48478  0.83723  0.32665  1.0000
  Fe  Fe217     1.0  0.47628  0.74526  0.31413  1.0000
  S   S423      1.0  0.49808  0.71672  0.30964  1.0000
  S   S424      1.0  0.44936  0.75882  0.30064  1.0000
  Fe  Fe218     1.0  0.49705  0.75295  0.34156  1.0000
  S   S425      1.0  0.51973  0.72423  0.33950  1.0000
  S   S426      1.0  0.49826  0.77239  0.36116  1.0000
  Fe  Fe219     1.0  0.52234  0.73431  0.31301  1.0000
  S   S427      1.0  0.55482  0.73160  0.30030  1.0000
  Fe  Fe220     1.0  0.49384  0.70851  0.33647  1.0000
  S   S428      1.0  0.49554  0.67417  0.34487  1.0000
  S   S429      1.0  0.50113  0.76389  0.31512  1.0000
  S   S430      1.0  0.47046  0.73622  0.34091  1.0000
  Fe  Fe221     1.0  0.53884  0.87452  0.38172  1.0000
  S   S431      1.0  0.54406  0.90713  0.37210  1.0000
  S   S432      1.0  0.53083  0.85688  0.36308  1.0000
  Fe  Fe222     1.0  0.54823  0.87935  0.41518  1.0000
  S   S433      1.0  0.55460  0.91158  0.40762  1.0000
  S   S434      1.0  0.54547  0.86617  0.44155  1.0000
  Fe  Fe223     1.0  0.52653  0.91586  0.39545  1.0000
  S   S435      1.0  0.49810  0.93820  0.40253  1.0000
  Fe  Fe224     1.0  0.57173  0.90018  0.38513  1.0000
  S   S436      1.0  0.60438  0.90445  0.37386  1.0000
  S   S437      1.0  0.51937  0.88392  0.40404  1.0000
  S   S438      1.0  0.56742  0.86715  0.39361  1.0000
  Fe  Fe225     1.0  0.43577  0.58339  0.38932  1.0000
  S   S439      1.0  0.41091  0.56904  0.40626  1.0000
  S   S440      1.0  0.43300  0.61820  0.38724  1.0000
  Fe  Fe226     1.0  0.45713  0.54143  0.38061  1.0000
  S   S441      1.0  0.43398  0.52412  0.39673  1.0000
  S   S442      1.0  0.48254  0.52761  0.36289  1.0000
  Fe  Fe227     1.0  0.41056  0.54949  0.38724  1.0000
  S   S443      1.0  0.38116  0.54723  0.37791  1.0000
  Fe  Fe228     1.0  0.43633  0.54512  0.41431  1.0000
  S   S444      1.0  0.44094  0.53234  0.43991  1.0000
  S   S445      1.0  0.43357  0.56568  0.36980  1.0000
  S   S446      1.0  0.46133  0.56062  0.39872  1.0000
  C   C1561     1.0  0.43403  0.54801  0.45519  1.0000
  C   C1562     1.0  0.41967  0.56577  0.45367  1.0000
  C   C1563     1.0  0.48614  0.81140  0.28912  1.0000
  H   H1877     1.0  0.41235  0.57003  0.44299  1.0000
  H   H1878     1.0  0.44153  0.82015  0.35366  1.0000
  C   C1564     1.0  0.55648  0.87754  0.45462  1.0000
  C   C1565     1.0  0.57321  0.88797  0.44906  1.0000
  H   H1879     1.0  0.57964  0.88913  0.43653  1.0000
  C   C1566     1.0  0.63911  0.92216  0.37020  1.0000
  C   C1567     1.0  0.61776  0.92488  0.37456  1.0000
  C   C1568     1.0  0.60775  0.94390  0.37849  1.0000
  H   H1880     1.0  0.64697  0.90742  0.36733  1.0000
  H   H1881     1.0  0.59133  0.94619  0.38185  1.0000
  H   H1882     1.0  0.51314  0.82538  0.28010  1.0000
  S   S447      1.0  0.65392  0.97838  0.37164  1.0000
  H   H1883     1.0  0.47935  0.66677  0.44301  1.0000
  C   C1569     1.0  0.46941  0.96110  0.36730  1.0000
  H   H1884     1.0  0.62334  0.93687  0.41166  1.0000
  H   H1885     1.0  0.61198  0.93236  0.44091  1.0000
  H   H1886     1.0  0.32380  0.54691  0.23633  1.0000
  C   C1570     1.0  0.38102  0.50522  0.38068  1.0000
  C   C1571     1.0  0.37172  0.52495  0.37530  1.0000
  C   C1572     1.0  0.35445  0.52722  0.36741  1.0000
  C   C1573     1.0  0.34665  0.50998  0.36476  1.0000
  C   C1574     1.0  0.46178  0.65050  0.46282  1.0000
  H   H1887     1.0  0.34710  0.54244  0.36328  1.0000
  H   H1888     1.0  0.55598  0.72233  0.23721  1.0000
  H   H1889     1.0  0.41117  0.95993  0.37798  1.0000
  H   H1890     1.0  0.65118  0.82187  0.23587  1.0000
  C   C1575     1.0  0.50725  0.97611  0.38699  1.0000
  C   C1576     1.0  0.49343  0.96510  0.39757  1.0000
  C   C1577     1.0  0.47481  0.97561  0.40419  1.0000
  C   C1578     1.0  0.63389  0.93761  0.41985  1.0000
  H   H1891     1.0  0.58273  0.50409  0.34193  1.0000
  H   H1892     1.0  0.52161  0.96814  0.38179  1.0000
  H   H1893     1.0  0.46398  0.96716  0.41229  1.0000
  H   H1894     1.0  0.42619  0.60656  0.43982  1.0000
  C   C1579     1.0  0.50744  0.79594  0.36140  1.0000
  C   C1580     1.0  0.51290  0.80908  0.34740  1.0000
  C   C1581     1.0  0.51984  0.82762  0.34821  1.0000
  C   C1582     1.0  0.52146  0.83341  0.36301  1.0000
  C   C1583     1.0  0.51591  0.82033  0.37704  1.0000
  C   C1584     1.0  0.50890  0.80178  0.37621  1.0000
  H   H1895     1.0  0.51167  0.80507  0.33592  1.0000
  H   H1896     1.0  0.52417  0.83754  0.33728  1.0000
  H   H1897     1.0  0.51703  0.82448  0.38852  1.0000
  H   H1898     1.0  0.50463  0.79187  0.38717  1.0000
  C   C1585     1.0  0.47777  0.65910  0.35673  1.0000
  C   C1586     1.0  0.45995  0.66771  0.36568  1.0000
  C   C1587     1.0  0.44640  0.65495  0.37499  1.0000
  C   C1588     1.0  0.45041  0.63355  0.37528  1.0000
  C   C1589     1.0  0.46817  0.62498  0.36627  1.0000
  C   C1590     1.0  0.48180  0.63771  0.35710  1.0000
  H   H1899     1.0  0.45675  0.68413  0.36559  1.0000
  H   H1900     1.0  0.43272  0.66169  0.38201  1.0000
  H   H1901     1.0  0.47148  0.60854  0.36643  1.0000
  H   H1902     1.0  0.49559  0.63091  0.35023  1.0000
  C   C1591     1.0  0.56658  0.75682  0.24717  1.0000
  C   C1592     1.0  0.58285  0.74798  0.25557  1.0000
  C   C1593     1.0  0.57906  0.74060  0.27196  1.0000
  C   C1594     1.0  0.55899  0.74202  0.28001  1.0000
  C   C1595     1.0  0.54270  0.75123  0.27171  1.0000
  C   C1596     1.0  0.54652  0.75869  0.25532  1.0000
  H   H1903     1.0  0.59835  0.74671  0.24943  1.0000
  H   H1904     1.0  0.59170  0.73359  0.27837  1.0000
  H   H1905     1.0  0.52718  0.75240  0.27787  1.0000
  H   H1906     1.0  0.53388  0.76558  0.24886  1.0000
  C   C1597     1.0  0.46930  0.81732  0.31608  1.0000
  C   C1598     1.0  0.42431  0.72249  0.26873  1.0000
  C   C1599     1.0  0.41467  0.74218  0.27130  1.0000
  C   C1600     1.0  0.42268  0.75331  0.28086  1.0000
  C   C1601     1.0  0.44048  0.74498  0.28780  1.0000
  C   C1602     1.0  0.45050  0.72563  0.28472  1.0000
  C   C1603     1.0  0.44233  0.71438  0.27540  1.0000
  H   H1907     1.0  0.40073  0.74856  0.26633  1.0000
  H   H1908     1.0  0.41487  0.76833  0.28306  1.0000
  H   H1909     1.0  0.46446  0.71925  0.28961  1.0000
  H   H1910     1.0  0.44998  0.69922  0.27340  1.0000
  N   N107      1.0  0.43429  0.67624  0.32177  1.0000
  C   C1604     1.0  0.42778  0.66429  0.33747  1.0000
  C   C1605     1.0  0.45456  0.68218  0.32201  1.0000
  C   C1606     1.0  0.41938  0.69538  0.31989  1.0000
  C   C1607     1.0  0.43591  0.66356  0.30885  1.0000
  C   C1608     1.0  0.44895  0.64440  0.30932  1.0000
  C   C1609     1.0  0.42516  0.66980  0.29542  1.0000
  C   C1610     1.0  0.45105  0.63227  0.29715  1.0000
  C   C1611     1.0  0.42747  0.65760  0.28328  1.0000
  C   C1612     1.0  0.44035  0.63889  0.28413  1.0000
  H   H1911     1.0  0.43948  0.65107  0.34091  1.0000
  H   H1912     1.0  0.42510  0.67376  0.34737  1.0000
  H   H1913     1.0  0.41336  0.65817  0.33738  1.0000
  H   H1914     1.0  0.46639  0.66869  0.32451  1.0000
  H   H1915     1.0  0.45408  0.69202  0.33141  1.0000
  H   H1916     1.0  0.46022  0.69075  0.31030  1.0000
  H   H1917     1.0  0.40370  0.69202  0.31978  1.0000
  H   H1918     1.0  0.41847  0.70451  0.32982  1.0000
  H   H1919     1.0  0.42385  0.70565  0.30868  1.0000
  H   H1920     1.0  0.45778  0.63875  0.31908  1.0000
  H   H1921     1.0  0.41509  0.68421  0.29377  1.0000
  H   H1922     1.0  0.46113  0.61774  0.29777  1.0000
  H   H1923     1.0  0.41936  0.66291  0.27300  1.0000
  H   H1924     1.0  0.44211  0.62961  0.27460  1.0000
  C   C1613     1.0  0.50632  0.49569  0.35013  1.0000
  H   H1925     1.0  0.60595  0.68962  0.24283  1.0000
  C   C1614     1.0  0.43264  0.82074  0.32431  1.0000
  C   C1615     1.0  0.33107  0.56055  0.23683  1.0000
  C   C1616     1.0  0.59158  0.70061  0.24424  1.0000
  N   N108      1.0  0.45787  0.60872  0.43029  1.0000
  C   C1617     1.0  0.46959  0.61295  0.41408  1.0000
  C   C1618     1.0  0.46571  0.58751  0.43716  1.0000
  C   C1619     1.0  0.43613  0.60978  0.42828  1.0000
  C   C1620     1.0  0.45943  0.62324  0.44121  1.0000
  C   C1621     1.0  0.64111  0.93584  0.44679  1.0000
  C   C1622     1.0  0.47005  0.64042  0.43628  1.0000
  H   H1926     1.0  0.60839  0.49323  0.33573  1.0000
  C   C1623     1.0  0.33284  0.78580  0.23641  1.0000
  H   H1927     1.0  0.58542  0.66166  0.25172  1.0000
  H   H1928     1.0  0.48620  0.61216  0.41458  1.0000
  H   H1929     1.0  0.46816  0.60166  0.40625  1.0000
  H   H1930     1.0  0.46370  0.62820  0.40771  1.0000
  H   H1931     1.0  0.48195  0.58615  0.43908  1.0000
  H   H1932     1.0  0.39404  0.50328  0.38703  1.0000
  H   H1933     1.0  0.45687  0.58240  0.44886  1.0000
  H   H1934     1.0  0.43418  0.59849  0.42063  1.0000
  H   H1935     1.0  0.36699  0.61913  0.23287  1.0000
  H   H1936     1.0  0.42992  0.62524  0.42246  1.0000
  H   H1937     1.0  0.47239  0.92826  0.37219  1.0000
  H   H1938     1.0  0.47757  0.64394  0.42420  1.0000
  H   H1939     1.0  0.42653  0.53164  0.33870  1.0000
  H   H1940     1.0  0.50595  0.50597  0.33895  1.0000
  H   H1941     1.0  0.58982  0.70453  0.25658  1.0000
  H   H1942     1.0  0.53186  0.94864  0.44143  1.0000
  H   H1943     1.0  0.45222  0.84051  0.34048  1.0000
  C   C1624     1.0  0.45448  0.79104  0.33527  1.0000
  H   H1944     1.0  0.44124  0.60809  0.46200  1.0000
  H   H1945     1.0  0.46480  0.57612  0.42926  1.0000
  C   C1625     1.0  0.46185  0.94253  0.37154  1.0000
  C   C1626     1.0  0.65032  0.93841  0.36930  1.0000
  H   H1946     1.0  0.44220  0.52966  0.35392  1.0000
  H   H1947     1.0  0.58357  0.83017  0.32552  1.0000
  H   H1948     1.0  0.59397  0.71477  0.23572  1.0000
  H   H1949     1.0  0.63650  0.91418  0.32857  1.0000
  N   N109      1.0  0.56534  0.76444  0.33925  1.0000
  C   C1627     1.0  0.55883  0.74960  0.35335  1.0000
  C   C1628     1.0  0.54924  0.76832  0.32869  1.0000
  C   C1629     1.0  0.58450  0.75445  0.33055  1.0000
  C   C1630     1.0  0.56856  0.78414  0.34347  1.0000
  C   C1631     1.0  0.56444  0.78882  0.35942  1.0000
  C   C1632     1.0  0.57564  0.79959  0.33134  1.0000
  C   C1633     1.0  0.56757  0.80765  0.36291  1.0000
  C   C1634     1.0  0.57851  0.81844  0.33497  1.0000
  C   C1635     1.0  0.57449  0.82245  0.35073  1.0000
  H   H1950     1.0  0.54364  0.75547  0.35980  1.0000
  H   H1951     1.0  0.55703  0.73479  0.34980  1.0000
  H   H1952     1.0  0.57026  0.74598  0.36187  1.0000
  H   H1953     1.0  0.53446  0.77524  0.33488  1.0000
  H   H1954     1.0  0.54656  0.75389  0.32520  1.0000
  H   H1955     1.0  0.55320  0.77853  0.31737  1.0000
  H   H1956     1.0  0.59733  0.75211  0.33775  1.0000
  H   H1957     1.0  0.58265  0.73923  0.32771  1.0000
  H   H1958     1.0  0.58922  0.76349  0.31882  1.0000
  H   H1959     1.0  0.55832  0.77845  0.36941  1.0000
  H   H1960     1.0  0.57869  0.79733  0.31891  1.0000
  H   H1961     1.0  0.56382  0.81121  0.37508  1.0000
  Fe  Fe229     1.0  0.35898  0.69828  0.22627  1.0000
  S   S448      1.0  0.39237  0.68721  0.22705  1.0000
  C   C1636     1.0  0.44084  0.94238  0.37522  1.0000
  C   C1637     1.0  0.64027  0.95757  0.37281  1.0000
  C   C1638     1.0  0.47050  0.80850  0.30190  1.0000
  H   H1962     1.0  0.48760  0.90763  0.45678  1.0000
  H   H1963     1.0  0.54348  0.93335  0.46527  1.0000
  C   C1639     1.0  0.54840  0.87597  0.47094  1.0000
  H   H1964     1.0  0.39704  0.51790  0.34144  1.0000
  H   H1965     1.0  0.34736  0.55488  0.23829  1.0000
  H   H1966     1.0  0.48955  0.94816  0.43485  1.0000
  H   H1967     1.0  0.61112  0.97490  0.38049  1.0000
  C   C1640     1.0  0.61899  0.96017  0.37762  1.0000
  H   H1968     1.0  0.45219  0.78223  0.32594  1.0000
  H   H1969     1.0  0.44287  0.78740  0.34582  1.0000
  C   C1641     1.0  0.44303  0.54236  0.46928  1.0000
  C   C1642     1.0  0.42733  0.96082  0.37489  1.0000
  C   C1643     1.0  0.62751  0.93502  0.43629  1.0000
  H   H1970     1.0  0.40347  0.59167  0.46487  1.0000
  C   C1644     1.0  0.48441  0.82975  0.31646  1.0000
  C   C1645     1.0  0.57634  0.68761  0.22482  1.0000
  H   H1971     1.0  0.42985  0.81212  0.31500  1.0000
  H   H1972     1.0  0.53959  0.92114  0.44241  1.0000
  C   C1646     1.0  0.49151  0.94704  0.44768  1.0000
  H   H1973     1.0  0.48582  0.96108  0.36466  1.0000
  H   H1974     1.0  0.50168  0.90990  0.43709  1.0000
  S   S449      1.0  0.33233  0.67982  0.23377  1.0000
  H   H1975     1.0  0.41994  0.81882  0.33436  1.0000
  H   H1976     1.0  0.52397  0.93487  0.42798  1.0000
  H   H1977     1.0  0.65638  0.89222  0.31159  1.0000
  C   C1647     1.0  0.39984  0.51647  0.46969  1.0000
  C   C1648     1.0  0.35462  0.61405  0.24168  1.0000
  H   H1978     1.0  0.55843  0.66599  0.25071  1.0000
  H   H1979     1.0  0.45253  0.49833  0.36956  1.0000
  C   C1649     1.0  0.65388  0.94112  0.41385  1.0000
  C   C1650     1.0  0.32977  0.59010  0.25133  1.0000
  C   C1651     1.0  0.45508  0.49861  0.33738  1.0000
  H   H1980     1.0  0.49483  0.96215  0.44953  1.0000
  C   C1652     1.0  0.55518  0.70752  0.24530  1.0000
  C   C1653     1.0  0.44987  0.62055  0.45737  1.0000
  C   C1654     1.0  0.50093  0.82333  0.28999  1.0000
  C   C1655     1.0  0.64236  0.92912  0.32656  1.0000
  C   C1656     1.0  0.38662  0.53094  0.46117  1.0000
  H   H1981     1.0  0.43505  0.92786  0.37856  1.0000
  C   C1657     1.0  0.34627  0.62561  0.25394  1.0000
  C   C1658     1.0  0.45391  0.82355  0.34364  1.0000
  C   C1659     1.0  0.41460  0.57793  0.46609  1.0000
  H   H1982     1.0  0.47641  0.94461  0.45466  1.0000
  C   C1660     1.0  0.50001  0.83255  0.30360  1.0000
  H   H1983     1.0  0.36182  0.55585  0.46249  1.0000
  H   H1984     1.0  0.45954  0.79892  0.30066  1.0000
  H   H1985     1.0  0.51156  0.84184  0.30425  1.0000
  H   H1986     1.0  0.46977  0.78485  0.33891  1.0000
  H   H1987     1.0  0.33039  0.57020  0.22492  1.0000
  H   H1988     1.0  0.46857  0.81800  0.34862  1.0000
  H   H1989     1.0  0.48690  0.80410  0.27857  1.0000
  H   H1990     1.0  0.57615  0.83729  0.35351  1.0000
  H   H1991     1.0  0.56847  0.67623  0.26549  1.0000
  N   N110      1.0  0.57351  0.69227  0.24145  1.0000
  H   H1992     1.0  0.34219  0.77239  0.24172  1.0000
  H   H1993     1.0  0.63331  0.93983  0.31801  1.0000
  H   H1994     1.0  0.41626  0.52537  0.35956  1.0000
  C   C1661     1.0  0.32984  0.61970  0.26493  1.0000
  H   H1995     1.0  0.35322  0.58893  0.23008  1.0000
  H   H1996     1.0  0.43127  0.83725  0.31916  1.0000
  C   C1662     1.0  0.50261  0.91056  0.44990  1.0000
  H   H1997     1.0  0.51425  0.89751  0.45382  1.0000
  C   C1663     1.0  0.52678  0.93393  0.44058  1.0000
  C   C1664     1.0  0.49595  0.50232  0.36435  1.0000
  C   C1665     1.0  0.47118  0.65377  0.44700  1.0000
  H   H1998     1.0  0.42764  0.49054  0.37434  1.0000
  H   H1999     1.0  0.59540  0.90384  0.45547  1.0000
  C   C1666     1.0  0.42994  0.52276  0.35038  1.0000
  H   H2000     1.0  0.60506  0.66677  0.22670  1.0000
  H   H2001     1.0  0.54079  0.70184  0.24445  1.0000
  N   N111      1.0  0.50815  0.93036  0.45209  1.0000
  C   C1667     1.0  0.58211  0.89631  0.45980  1.0000
  N   N112      1.0  0.45293  0.81337  0.32965  1.0000
  C   C1668     1.0  0.57137  0.67320  0.25282  1.0000
  H   H2002     1.0  0.37213  0.50034  0.33398  1.0000
  H   H2003     1.0  0.55383  0.71116  0.25773  1.0000
  C   C1669     1.0  0.59251  0.48963  0.33892  1.0000
  H   H2004     1.0  0.58950  0.49153  0.37063  1.0000
  C   C1670     1.0  0.34649  0.59663  0.24025  1.0000
  H   H2005     1.0  0.33346  0.51197  0.35857  1.0000
  C   C1671     1.0  0.45112  0.63393  0.46798  1.0000
  S   S450      1.0  0.57067  0.76453  0.22638  1.0000
  C   C1672     1.0  0.38687  0.49183  0.33636  1.0000
  C   C1673     1.0  0.51085  0.92990  0.46901  1.0000
  H   H2006     1.0  0.33628  0.55308  0.26843  1.0000
  H   H2007     1.0  0.63603  0.93370  0.45960  1.0000
  H   H2008     1.0  0.63869  0.93512  0.33824  1.0000
  H   H2009     1.0  0.41165  0.50644  0.46325  1.0000
  C   C1674     1.0  0.43455  0.98006  0.37102  1.0000
  C   C1675     1.0  0.35612  0.49024  0.36994  1.0000
  H   H2010     1.0  0.35216  0.63955  0.25459  1.0000
  C   C1676     1.0  0.45609  0.97965  0.36709  1.0000
  C   C1677     1.0  0.40144  0.50174  0.34072  1.0000
  C   C1678     1.0  0.32766  0.65963  0.22439  1.0000
  H   H2011     1.0  0.38818  0.53200  0.44825  1.0000
  H   H2012     1.0  0.48884  0.49388  0.38987  1.0000
  H   H2013     1.0  0.46688  0.50700  0.33999  1.0000
  C   C1679     1.0  0.49673  0.48886  0.37879  1.0000
  N   N113      1.0  0.43637  0.50060  0.34931  1.0000
  H   H2014     1.0  0.45158  0.50500  0.32511  1.0000
  C   C1680     1.0  0.42053  0.49072  0.34461  1.0000
  C   C1681     1.0  0.44156  0.49046  0.36523  1.0000
  C   C1682     1.0  0.37329  0.48795  0.37796  1.0000
  C   C1683     1.0  0.37188  0.54442  0.46922  1.0000
  H   H2015     1.0  0.46268  0.66086  0.47109  1.0000
  H   H2016     1.0  0.45418  0.52868  0.47046  1.0000
  Fe  Fe230     1.0  0.57721  0.90389  0.51593  1.0000
  S   S451      1.0  0.54912  0.89352  0.53105  1.0000
  S   S452      1.0  0.58612  0.90535  0.48903  1.0000
  Fe  Fe231     1.0  0.59422  0.91433  0.54463  1.0000
  S   S453      1.0  0.56726  0.90457  0.56195  1.0000
  S   S454      1.0  0.61949  0.93146  0.54866  1.0000
  Fe  Fe232     1.0  0.57058  0.87759  0.54843  1.0000
  S   S455      1.0  0.57208  0.84462  0.56112  1.0000
  Fe  Fe233     1.0  0.54791  0.92123  0.54321  1.0000
  S   S456      1.0  0.51696  0.94023  0.54950  1.0000
  S   S457      1.0  0.59903  0.88623  0.53240  1.0000
  S   S458      1.0  0.57434  0.93278  0.52679  1.0000
  Fe  Fe234     1.0  0.41324  0.55358  0.55081  1.0000
  S   S459      1.0  0.40645  0.58681  0.54087  1.0000
  S   S460      1.0  0.39004  0.53305  0.56389  1.0000
  Fe  Fe235     1.0  0.45934  0.55194  0.53916  1.0000
  S   S461      1.0  0.45568  0.58507  0.52785  1.0000
  S   S462      1.0  0.49197  0.53527  0.53750  1.0000
  Fe  Fe236     1.0  0.43472  0.59118  0.55047  1.0000
  S   S463      1.0  0.43590  0.61538  0.56635  1.0000
  Fe  Fe237     1.0  0.42812  0.57780  0.51922  1.0000
  S   S464      1.0  0.41861  0.58918  0.49467  1.0000
  S   S465      1.0  0.43979  0.55830  0.56225  1.0000
  S   S466      1.0  0.43351  0.54427  0.52867  1.0000
  H   H2017     1.0  0.63412  0.50083  0.56753  1.0000
  H   H2018     1.0  0.50003  0.62267  0.59999  1.0000
  S   S467      1.0  0.62527  0.69761  0.64653  1.0000
  C   C1684     1.0  0.34045  0.71548  0.62167  1.0000
  Fe  Fe238     1.0  0.34952  0.78368  0.63598  1.0000
  S   S468      1.0  0.33952  0.81491  0.64339  1.0000
  S   S469      1.0  0.37809  0.77599  0.61839  1.0000
  H   H2019     1.0  0.51707  0.65021  0.58285  1.0000
  H   H2020     1.0  0.33972  0.70167  0.63088  1.0000
  H   H2021     1.0  0.57021  0.63785  0.62245  1.0000
  Fe  Fe239     1.0  0.50140  0.70393  0.57374  1.0000
  S   S470      1.0  0.50658  0.69243  0.59917  1.0000
  S   S471      1.0  0.49354  0.68503  0.55616  1.0000
  Fe  Fe240     1.0  0.51394  0.74636  0.57503  1.0000
  S   S472      1.0  0.51993  0.73751  0.60057  1.0000
  S   S473      1.0  0.51400  0.77837  0.56054  1.0000
  Fe  Fe241     1.0  0.53528  0.70721  0.59314  1.0000
  S   S474      1.0  0.56613  0.68856  0.59773  1.0000
  Fe  Fe242     1.0  0.49067  0.72371  0.60431  1.0000
  S   S475      1.0  0.46732  0.72865  0.62641  1.0000
  S   S476      1.0  0.53111  0.71693  0.56722  1.0000
  S   S477      1.0  0.48374  0.73432  0.57923  1.0000
  C   C1685     1.0  0.40231  0.76198  0.62141  1.0000
  C   C1686     1.0  0.41545  0.75568  0.60801  1.0000
  C   C1687     1.0  0.43516  0.74508  0.60950  1.0000
  C   C1688     1.0  0.44202  0.74070  0.62442  1.0000
  C   C1689     1.0  0.42871  0.74656  0.63794  1.0000
  C   C1690     1.0  0.40886  0.75715  0.63646  1.0000
  H   H2022     1.0  0.41048  0.75921  0.59633  1.0000
  H   H2023     1.0  0.44505  0.74042  0.59904  1.0000
  H   H2024     1.0  0.43387  0.74311  0.64956  1.0000
  H   H2025     1.0  0.39880  0.76182  0.64689  1.0000
  C   C1691     1.0  0.57391  0.78198  0.53571  1.0000
  C   C1692     1.0  0.55738  0.77857  0.52907  1.0000
  H   H2026     1.0  0.59560  0.80135  0.53598  1.0000
  C   C1693     1.0  0.60941  0.69600  0.63224  1.0000
  C   C1694     1.0  0.61529  0.68206  0.62126  1.0000
  C   C1695     1.0  0.60207  0.68054  0.61044  1.0000
  C   C1696     1.0  0.58284  0.69285  0.61050  1.0000
  C   C1697     1.0  0.57722  0.70731  0.62113  1.0000
  C   C1698     1.0  0.59052  0.70891  0.63191  1.0000
  H   H2027     1.0  0.62996  0.67240  0.62118  1.0000
  H   H2028     1.0  0.60659  0.66960  0.60206  1.0000
  H   H2029     1.0  0.56247  0.71690  0.62128  1.0000
  H   H2030     1.0  0.58590  0.71985  0.64030  1.0000
  H   H2031     1.0  0.55508  0.68135  0.65510  1.0000
  C   C1699     1.0  0.36141  0.52483  0.52018  1.0000
  H   H2032     1.0  0.34916  0.53749  0.51677  1.0000
  C   C1700     1.0  0.45229  0.63448  0.56333  1.0000
  C   C1701     1.0  0.45359  0.64464  0.57621  1.0000
  C   C1702     1.0  0.46605  0.66016  0.57428  1.0000
  C   C1703     1.0  0.47738  0.66573  0.55938  1.0000
  C   C1704     1.0  0.47613  0.65550  0.54653  1.0000
  C   C1705     1.0  0.46372  0.63996  0.54847  1.0000
  H   H2033     1.0  0.44498  0.64043  0.58779  1.0000
  H   H2034     1.0  0.46695  0.66777  0.58430  1.0000
  H   H2035     1.0  0.48480  0.65969  0.53497  1.0000
  H   H2036     1.0  0.46276  0.63248  0.53840  1.0000
  C   C1706     1.0  0.37861  0.66839  0.59807  1.0000
  C   C1707     1.0  0.55696  0.88486  0.48160  1.0000
  C   C1708     1.0  0.35366  0.55368  0.55375  1.0000
  C   C1709     1.0  0.36336  0.53669  0.56299  1.0000
  C   C1710     1.0  0.35177  0.52155  0.57124  1.0000
  H   H2037     1.0  0.57884  0.77150  0.54592  1.0000
  C   C1711     1.0  0.58346  0.79928  0.52980  1.0000
  H   H2038     1.0  0.36222  0.56570  0.54764  1.0000
  H   H2039     1.0  0.35911  0.50840  0.57848  1.0000
  C   C1712     1.0  0.39893  0.66997  0.59184  1.0000
  C   C1713     1.0  0.65103  0.91309  0.58714  1.0000
  H   H2040     1.0  0.40824  0.65792  0.58564  1.0000
  H   H2041     1.0  0.38641  0.54906  0.52840  1.0000
  H   H2042     1.0  0.44562  0.55042  0.49222  1.0000
  C   C1714     1.0  0.55494  0.82688  0.56152  1.0000
  C   C1715     1.0  0.53843  0.83148  0.55278  1.0000
  C   C1716     1.0  0.52593  0.81652  0.55278  1.0000
  C   C1717     1.0  0.52958  0.79692  0.56168  1.0000
  C   C1718     1.0  0.54572  0.79249  0.57079  1.0000
  C   C1719     1.0  0.55841  0.80736  0.57060  1.0000
  H   H2043     1.0  0.53534  0.84648  0.54591  1.0000
  H   H2044     1.0  0.51348  0.82008  0.54570  1.0000
  H   H2045     1.0  0.54874  0.77747  0.57767  1.0000
  H   H2046     1.0  0.57109  0.80365  0.57745  1.0000
  H   H2047     1.0  0.60153  0.82046  0.48913  1.0000
  C   C1720     1.0  0.39527  0.70270  0.60135  1.0000
  C   C1721     1.0  0.51484  0.92962  0.50164  1.0000
  C   C1722     1.0  0.63725  0.92880  0.56258  1.0000
  C   C1723     1.0  0.63710  0.91398  0.57620  1.0000
  C   C1724     1.0  0.37037  0.54351  0.48581  1.0000
  H   H2048     1.0  0.39577  0.51350  0.53322  1.0000
  H   H2049     1.0  0.37228  0.65499  0.59673  1.0000
  H   H2050     1.0  0.62620  0.90328  0.57836  1.0000
  C   C1725     1.0  0.38538  0.54911  0.51555  1.0000
  H   H2051     1.0  0.46582  0.49909  0.48857  1.0000
  C   C1726     1.0  0.42403  0.57257  0.47999  1.0000
  H   H2052     1.0  0.57776  0.83696  0.48652  1.0000
  H   H2053     1.0  0.35777  0.51050  0.51702  1.0000
  H   H2054     1.0  0.55013  0.88433  0.49398  1.0000
  C   C1727     1.0  0.61162  0.96654  0.59078  1.0000
  C   C1728     1.0  0.49717  0.50827  0.54188  1.0000
  C   C1729     1.0  0.55567  0.94366  0.58995  1.0000
  C   C1730     1.0  0.51218  0.96732  0.54721  1.0000
  H   H2055     1.0  0.48100  0.96793  0.55879  1.0000
  H   H2056     1.0  0.62492  0.63887  0.61494  1.0000
  C   C1731     1.0  0.32851  0.87395  0.64892  1.0000
  H   H2057     1.0  0.58744  0.66879  0.66633  1.0000
  C   C1732     1.0  0.56629  0.95875  0.56293  1.0000
  C   C1733     1.0  0.61242  0.60213  0.64578  1.0000
  H   H2058     1.0  0.52801  0.97043  0.57583  1.0000
  C   C1734     1.0  0.49624  0.92718  0.49748  1.0000
  H   H2059     1.0  0.62020  0.60704  0.65472  1.0000
  H   H2060     1.0  0.48337  0.92508  0.50680  1.0000
  C   C1735     1.0  0.63895  0.49218  0.55755  1.0000
  H   H2061     1.0  0.56714  0.84977  0.52774  1.0000
  H   H2062     1.0  0.42313  0.68821  0.58866  1.0000
  C   C1736     1.0  0.57113  0.85042  0.51455  1.0000
  H   H2063     1.0  0.54958  0.76551  0.53410  1.0000
  H   H2064     1.0  0.33162  0.72862  0.62756  1.0000
  H   H2065     1.0  0.47955  0.92510  0.47883  1.0000
  H   H2066     1.0  0.59812  0.59659  0.65220  1.0000
  C   C1737     1.0  0.52732  0.97929  0.54005  1.0000
  C   C1738     1.0  0.59144  0.83441  0.49280  1.0000
  H   H2067     1.0  0.62647  0.95707  0.59107  1.0000
  C   C1739     1.0  0.56083  0.65951  0.63849  1.0000
  C   C1740     1.0  0.37443  0.70168  0.60776  1.0000
  H   H2068     1.0  0.53709  0.78994  0.51162  1.0000
  C   C1741     1.0  0.53154  0.93196  0.48979  1.0000
  H   H2069     1.0  0.39987  0.55352  0.50855  1.0000
  H   H2070     1.0  0.40958  0.50419  0.49201  1.0000
  H   H2071     1.0  0.59948  0.84790  0.48793  1.0000
  C   C1742     1.0  0.62740  0.62658  0.62516  1.0000
  H   H2072     1.0  0.56964  0.97286  0.55467  1.0000
  H   H2073     1.0  0.55439  0.95233  0.55848  1.0000
  H   H2074     1.0  0.40245  0.71570  0.60227  1.0000
  H   H2075     1.0  0.33636  0.85909  0.64518  1.0000
  C   C1743     1.0  0.37128  0.72175  0.62944  1.0000
  H   H2076     1.0  0.34233  0.77012  0.69693  1.0000
  H   H2077     1.0  0.44368  0.63136  0.48027  1.0000
  H   H2078     1.0  0.39524  0.49733  0.51868  1.0000
  H   H2079     1.0  0.35083  0.68174  0.61041  1.0000
  C   C1744     1.0  0.39728  0.51306  0.52007  1.0000
  H   H2080     1.0  0.36246  0.73476  0.63545  1.0000
  N   N114      1.0  0.36193  0.71875  0.61560  1.0000
  C   C1745     1.0  0.32801  0.79731  0.70706  1.0000
  H   H2081     1.0  0.63431  0.63296  0.63386  1.0000
  H   H2082     1.0  0.56910  0.93136  0.58913  1.0000
  N   N115      1.0  0.58609  0.83245  0.51050  1.0000
  C   C1746     1.0  0.60090  0.60964  0.62009  1.0000
  H   H2083     1.0  0.63921  0.61422  0.62063  1.0000
  N   N116      1.0  0.55973  0.96305  0.57959  1.0000
  H   H2084     1.0  0.38708  0.72543  0.62591  1.0000
  C   C1747     1.0  0.38372  0.52907  0.49486  1.0000
  H   H2085     1.0  0.49522  0.59267  0.58898  1.0000
  N   N117      1.0  0.46545  0.79725  0.60192  1.0000
  C   C1748     1.0  0.45672  0.79860  0.61891  1.0000
  C   C1749     1.0  0.47923  0.77744  0.60158  1.0000
  C   C1750     1.0  0.47784  0.81408  0.59618  1.0000
  C   C1751     1.0  0.44973  0.79855  0.59132  1.0000
  C   C1752     1.0  0.45568  0.79643  0.57490  1.0000
  C   C1753     1.0  0.42835  0.80199  0.59678  1.0000
  C   C1754     1.0  0.44120  0.79737  0.56465  1.0000
  C   C1755     1.0  0.41399  0.80303  0.58639  1.0000
  C   C1756     1.0  0.42038  0.80065  0.57040  1.0000
  H   H2086     1.0  0.44765  0.78590  0.62395  1.0000
  H   H2087     1.0  0.46891  0.79719  0.62662  1.0000
  H   H2088     1.0  0.44685  0.81354  0.62027  1.0000
  H   H2089     1.0  0.47035  0.76444  0.60423  1.0000
  H   H2090     1.0  0.49013  0.77495  0.61047  1.0000
  H   H2091     1.0  0.48869  0.77627  0.58977  1.0000
  H   H2092     1.0  0.46800  0.82930  0.59567  1.0000
  H   H2093     1.0  0.48957  0.81387  0.60407  1.0000
  H   H2094     1.0  0.48643  0.81287  0.58397  1.0000
  H   H2095     1.0  0.47164  0.79381  0.56987  1.0000
  H   H2096     1.0  0.42220  0.80338  0.60909  1.0000
  H   H2097     1.0  0.44622  0.79535  0.55223  1.0000
  H   H2098     1.0  0.39776  0.80515  0.59095  1.0000
  H   H2099     1.0  0.40917  0.80116  0.56248  1.0000
  H   H2100     1.0  0.58031  0.94729  0.56181  1.0000
  H   H2101     1.0  0.55340  0.82024  0.50082  1.0000
  H   H2102     1.0  0.51639  0.92946  0.51411  1.0000
  C   C1757     1.0  0.33285  0.55494  0.55218  1.0000
  N   N118      1.0  0.60805  0.61880  0.63246  1.0000
  H   H2103     1.0  0.33081  0.85555  0.68801  1.0000
  C   C1758     1.0  0.33082  0.52308  0.57000  1.0000
  H   H2104     1.0  0.61137  0.64061  0.65622  1.0000
  C   C1759     1.0  0.59310  0.63567  0.63866  1.0000
  C   C1760     1.0  0.59724  0.64519  0.65120  1.0000
  H   H2105     1.0  0.53394  0.98089  0.59210  1.0000
  C   C1761     1.0  0.58355  0.66130  0.65716  1.0000
  H   H2106     1.0  0.34803  0.87121  0.67511  1.0000
  H   H2107     1.0  0.54708  0.66573  0.63310  1.0000
  H   H2108     1.0  0.65072  0.75622  0.62575  1.0000
  C   C1762     1.0  0.33823  0.77720  0.70772  1.0000
  H   H2109     1.0  0.33203  0.71408  0.61182  1.0000
  H   H2110     1.0  0.64273  0.73196  0.62676  1.0000
  H   H2111     1.0  0.57734  0.86501  0.50984  1.0000
  H   H2112     1.0  0.35512  0.73593  0.59302  1.0000
  H   H2113     1.0  0.59854  0.62107  0.60924  1.0000
  H   H2114     1.0  0.37646  0.74278  0.60012  1.0000
  C   C1763     1.0  0.57681  0.81360  0.51675  1.0000
  C   C1764     1.0  0.51748  0.49840  0.53941  1.0000
  C   C1765     1.0  0.59577  0.95922  0.58573  1.0000
  C   C1766     1.0  0.36117  0.73785  0.60395  1.0000
  C   C1767     1.0  0.39855  0.51548  0.48628  1.0000
  H   H2115     1.0  0.41323  0.51558  0.51510  1.0000
  H   H2116     1.0  0.55158  0.94600  0.60273  1.0000
  H   H2117     1.0  0.54209  0.97207  0.53493  1.0000
  C   C1768     1.0  0.50587  0.62115  0.58759  1.0000
  N   N119      1.0  0.38210  0.52887  0.51236  1.0000
  C   C1769     1.0  0.60496  0.83321  0.51728  1.0000
  H   H2118     1.0  0.60168  0.83389  0.53042  1.0000
  H   H2119     1.0  0.35123  0.75095  0.60914  1.0000
  H   H2120     1.0  0.52968  0.50741  0.53480  1.0000
  H   H2121     1.0  0.58637  0.60339  0.62481  1.0000
  H   H2122     1.0  0.46582  0.50395  0.54983  1.0000
  H   H2123     1.0  0.55661  0.85128  0.50963  1.0000
  C   C1770     1.0  0.36644  0.68394  0.60593  1.0000
  H   H2124     1.0  0.54288  0.93742  0.58646  1.0000
  C   C1771     1.0  0.48150  0.49652  0.54781  1.0000
  H   H2125     1.0  0.62304  0.58883  0.64145  1.0000
  H   H2126     1.0  0.47411  0.48774  0.51609  1.0000
  H   H2127     1.0  0.61676  0.81974  0.51504  1.0000
  C   C1772     1.0  0.57412  0.89472  0.47611  1.0000
  H   H2128     1.0  0.53529  0.86813  0.47528  1.0000
  C   C1773     1.0  0.50311  0.60410  0.58113  1.0000
  H   H2129     1.0  0.37291  0.56162  0.51235  1.0000
  N   N120      1.0  0.50640  0.58406  0.55815  1.0000
  C   C1774     1.0  0.51659  0.56499  0.56683  1.0000
  C   C1775     1.0  0.48419  0.58311  0.56013  1.0000
  C   C1776     1.0  0.51425  0.58438  0.54083  1.0000
  C   C1777     1.0  0.50986  0.60212  0.56475  1.0000
  C   C1778     1.0  0.51969  0.61823  0.55530  1.0000
  C   C1779     1.0  0.52246  0.63515  0.56193  1.0000
  C   C1780     1.0  0.51553  0.63664  0.57800  1.0000
  H   H2130     1.0  0.50997  0.56243  0.57966  1.0000
  H   H2131     1.0  0.51484  0.55117  0.56171  1.0000
  H   H2132     1.0  0.53324  0.56538  0.56620  1.0000
  H   H2133     1.0  0.47687  0.58199  0.57281  1.0000
  H   H2134     1.0  0.48111  0.56956  0.55546  1.0000
  H   H2135     1.0  0.47601  0.59699  0.55357  1.0000
  H   H2136     1.0  0.53107  0.58441  0.53843  1.0000
  H   H2137     1.0  0.51134  0.57062  0.53626  1.0000
  H   H2138     1.0  0.50647  0.59788  0.53349  1.0000
  H   H2139     1.0  0.52494  0.61844  0.54267  1.0000
  H   H2140     1.0  0.52924  0.64770  0.55443  1.0000
  C   C1781     1.0  0.56536  0.66842  0.65083  1.0000
  C   C1782     1.0  0.57445  0.64343  0.63239  1.0000
  H   H2141     1.0  0.32562  0.56785  0.54465  1.0000
  H   H2142     1.0  0.61234  0.59675  0.61594  1.0000
  C   C1783     1.0  0.43812  0.55461  0.48163  1.0000
  C   C1784     1.0  0.40727  0.68706  0.59352  1.0000
  C   C1785     1.0  0.49284  0.97707  0.55329  1.0000
  H   H2143     1.0  0.37208  0.70775  0.63851  1.0000
  S   S478      1.0  0.33570  0.76708  0.65929  1.0000
  C   C1786     1.0  0.54005  0.97724  0.57983  1.0000
  H   H2144     1.0  0.61190  0.84724  0.51194  1.0000
  Fe  Fe243     1.0  0.65225  0.67308  0.65174  1.0000
  H   H2145     1.0  0.65064  0.90166  0.59768  1.0000
  C   C1787     1.0  0.55982  0.80969  0.51034  1.0000
  C   C1788     1.0  0.57620  0.97123  0.58505  1.0000
  C   C1789     1.0  0.60851  0.98601  0.59529  1.0000
  C   C1790     1.0  0.52972  0.93203  0.47371  1.0000
  C   C1791     1.0  0.33642  0.86107  0.67532  1.0000
  H   H2146     1.0  0.33988  0.88481  0.64623  1.0000
  C   C1792     1.0  0.55032  0.79242  0.51644  1.0000
  H   H2147     1.0  0.36012  0.52303  0.53346  1.0000
  C   C1793     1.0  0.49422  0.92726  0.48144  1.0000
  H   H2148     1.0  0.34434  0.84686  0.67046  1.0000
  H   H2149     1.0  0.54616  0.93333  0.49311  1.0000
  H   H2150     1.0  0.65177  0.95420  0.54961  1.0000
  H   H2151     1.0  0.35888  0.55445  0.49151  1.0000
  C   C1794     1.0  0.65153  0.94261  0.56006  1.0000
  H   H2152     1.0  0.59910  0.94411  0.58214  1.0000
  S   S479      1.0  0.65019  0.64355  0.66840  1.0000
  H   H2153     1.0  0.36045  0.97847  0.61186  1.0000
  H   H2154     1.0  0.65567  0.56130  0.63942  1.0000
  C   C1795     1.0  0.65580  0.73944  0.62833  1.0000
  H   H2155     1.0  0.65686  0.73146  0.59916  1.0000
  S   S480      1.0  0.52373  0.88075  0.95457  1.0000
  Fe  Fe244     1.0  0.51984  0.84788  0.95497  1.0000
  S   S481      1.0  0.53351  0.82954  0.93469  1.0000
  H   H2156     1.0  0.51111  0.52908  0.95463  1.0000
  Fe  Fe245     1.0  0.48775  0.75674  0.88944  1.0000
  S   S482      1.0  0.46405  0.73892  0.88472  1.0000
  S   S483      1.0  0.47818  0.77637  0.90959  1.0000
  Fe  Fe246     1.0  0.51986  0.74053  0.86285  1.0000
  S   S484      1.0  0.49879  0.72165  0.85608  1.0000
  S   S485      1.0  0.55139  0.74501  0.84912  1.0000
  Fe  Fe247     1.0  0.47390  0.74872  0.85856  1.0000
  S   S486      1.0  0.45409  0.76023  0.83844  1.0000
  Fe  Fe248     1.0  0.49035  0.71330  0.88267  1.0000
  S   S487      1.0  0.48792  0.68015  0.89242  1.0000
  S   S488      1.0  0.49568  0.76856  0.86337  1.0000
  S   S489      1.0  0.51331  0.73010  0.88936  1.0000
  C   C1796     1.0  0.37039  0.83469  0.81132  1.0000
  Fe  Fe249     1.0  0.35989  0.51182  0.95650  1.0000
  S   S490      1.0  0.37711  0.53911  0.95430  1.0000
  C   C1797     1.0  0.60796  0.87569  0.95102  1.0000
  Fe  Fe250     1.0  0.32980  0.49583  0.93874  1.0000
  H   H2157     1.0  0.35113  0.75065  0.72288  1.0000
  H   H2158     1.0  0.44307  0.69774  0.88985  1.0000
  C   C1798     1.0  0.56940  0.91038  0.96490  1.0000
  H   H2159     1.0  0.40559  0.70200  0.89027  1.0000
  H   H2160     1.0  0.43611  0.66904  0.82934  1.0000
  H   H2161     1.0  0.34570  0.80358  0.84081  1.0000
  S   S491      1.0  0.63059  0.67928  0.83370  1.0000
  C   C1799     1.0  0.43675  0.69712  0.87907  1.0000
  H   H2162     1.0  0.39104  0.70054  0.86642  1.0000
  Fe  Fe251     1.0  0.34150  0.76629  0.81366  1.0000
  S   S492      1.0  0.34962  0.78906  0.79204  1.0000
  S   S493      1.0  0.36129  0.75329  0.83354  1.0000
  H   H2163     1.0  0.46621  0.69221  0.86490  1.0000
  N   N121      1.0  0.53471  0.64360  0.94040  1.0000
  H   H2164     1.0  0.48594  0.76442  0.94900  1.0000
  H   H2165     1.0  0.41375  0.70907  0.81149  1.0000
  C   C1800     1.0  0.39605  0.54326  0.96532  1.0000
  H   H2166     1.0  0.53060  0.72395  0.82336  1.0000
  H   H2167     1.0  0.63128  0.90858  0.91291  1.0000
  C   C1801     1.0  0.57625  0.85241  0.95048  1.0000
  H   H2168     1.0  0.57365  0.88191  0.91442  1.0000
  H   H2169     1.0  0.36422  0.80795  0.85960  1.0000
  H   H2170     1.0  0.58034  0.93232  0.94525  1.0000
  C   C1802     1.0  0.42797  0.75890  0.83763  1.0000
  C   C1803     1.0  0.41517  0.75041  0.85075  1.0000
  C   C1804     1.0  0.39462  0.74950  0.84943  1.0000
  C   C1805     1.0  0.38663  0.75691  0.83498  1.0000
  C   C1806     1.0  0.39932  0.76572  0.82194  1.0000
  C   C1807     1.0  0.41985  0.76668  0.82328  1.0000
  H   H2171     1.0  0.42114  0.74447  0.86189  1.0000
  H   H2172     1.0  0.38492  0.74278  0.85963  1.0000
  H   H2173     1.0  0.39351  0.77135  0.81071  1.0000
  H   H2174     1.0  0.42960  0.77336  0.81308  1.0000
  C   C1808     1.0  0.57311  0.72630  0.84508  1.0000
  C   C1809     1.0  0.57311  0.70540  0.85060  1.0000
  C   C1810     1.0  0.59080  0.69118  0.84704  1.0000
  C   C1811     1.0  0.60857  0.69767  0.83781  1.0000
  C   C1812     1.0  0.60848  0.71854  0.83219  1.0000
  C   C1813     1.0  0.59089  0.73274  0.83587  1.0000
  H   H2175     1.0  0.55951  0.70023  0.85762  1.0000
  H   H2176     1.0  0.59070  0.67507  0.85141  1.0000
  H   H2177     1.0  0.62206  0.72381  0.82522  1.0000
  H   H2178     1.0  0.59104  0.74887  0.83159  1.0000
  C   C1814     1.0  0.62494  0.89911  0.92348  1.0000
  H   H2179     1.0  0.36254  0.90264  0.96618  1.0000
  H   H2180     1.0  0.39930  0.57288  0.95156  1.0000
  H   H2181     1.0  0.45271  0.69054  0.84050  1.0000
  C   C1815     1.0  0.46525  0.66566  0.94586  1.0000
  C   C1816     1.0  0.46507  0.68610  0.93861  1.0000
  C   C1817     1.0  0.47167  0.69074  0.92214  1.0000
  C   C1818     1.0  0.47797  0.67496  0.91278  1.0000
  C   C1819     1.0  0.47736  0.65457  0.91990  1.0000
  C   C1820     1.0  0.47124  0.64988  0.93645  1.0000
  H   H2182     1.0  0.46015  0.69837  0.94578  1.0000
  H   H2183     1.0  0.47204  0.70651  0.91674  1.0000
  H   H2184     1.0  0.48203  0.64233  0.91263  1.0000
  H   H2185     1.0  0.47115  0.63411  0.94191  1.0000
  H   H2186     1.0  0.56413  0.84360  0.94908  1.0000
  H   H2187     1.0  0.63126  0.69309  0.78433  1.0000
  H   H2188     1.0  0.45289  0.88241  0.94714  1.0000
  C   C1821     1.0  0.55228  0.70279  0.81033  1.0000
  H   H2189     1.0  0.60670  0.88641  0.91068  1.0000
  H   H2190     1.0  0.54318  0.80050  0.91208  1.0000
  H   H2191     1.0  0.54395  0.69001  0.81484  1.0000
  S   S494      1.0  0.47806  0.59872  0.97035  1.0000
  C   C1822     1.0  0.51791  0.81563  0.92700  1.0000
  C   C1823     1.0  0.49681  0.81742  0.93201  1.0000
  C   C1824     1.0  0.48490  0.80547  0.92638  1.0000
  C   C1825     1.0  0.49386  0.79173  0.91556  1.0000
  C   C1826     1.0  0.51492  0.79010  0.91035  1.0000
  C   C1827     1.0  0.52689  0.80200  0.91608  1.0000
  H   H2192     1.0  0.48962  0.82800  0.94022  1.0000
  H   H2193     1.0  0.46860  0.80693  0.93036  1.0000
  H   H2194     1.0  0.52200  0.77956  0.90202  1.0000
  C   C1828     1.0  0.44695  0.91983  0.96964  1.0000
  N   N122      1.0  0.58551  0.86247  0.93481  1.0000
  H   H2195     1.0  0.57392  0.56095  0.96455  1.0000
  H   H2196     1.0  0.37906  0.84776  0.81018  1.0000
  C   C1829     1.0  0.56782  0.65348  0.92381  1.0000
  C   C1830     1.0  0.60141  0.87476  0.93618  1.0000
  H   H2197     1.0  0.53695  0.61497  0.93141  1.0000
  C   C1831     1.0  0.41893  0.56604  0.97000  1.0000
  C   C1832     1.0  0.58180  0.92524  0.95741  1.0000
  S   S495      1.0  0.32893  0.95306  0.93888  1.0000
  C   C1833     1.0  0.47856  0.73467  0.95807  1.0000
  H   H2198     1.0  0.57547  0.68059  0.88642  1.0000
  H   H2199     1.0  0.56254  0.88920  0.93356  1.0000
  C   C1834     1.0  0.48562  0.75273  0.95941  1.0000
  C   C1835     1.0  0.40751  0.69850  0.86540  1.0000
  H   H2200     1.0  0.47386  0.73285  0.94689  1.0000
  C   C1836     1.0  0.35169  0.84290  0.83641  1.0000
  C   C1837     1.0  0.42178  0.89695  0.94607  1.0000
  C   C1838     1.0  0.56871  0.87582  0.92709  1.0000
  C   C1839     1.0  0.61070  0.88652  0.92238  1.0000
  H   H2201     1.0  0.37959  0.82270  0.80441  1.0000
  C   C1840     1.0  0.40431  0.56174  0.96136  1.0000
  Fe  Fe252     1.0  0.63174  0.96783  0.96369  1.0000
  H   H2202     1.0  0.50755  0.66612  0.93844  1.0000
  C   C1841     1.0  0.51836  0.65913  0.94704  1.0000
  H   H2203     1.0  0.59447  0.66333  0.90861  1.0000
  C   C1842     1.0  0.41916  0.67274  0.83177  1.0000
  H   H2204     1.0  0.38423  0.69743  0.82583  1.0000
  C   C1843     1.0  0.33793  0.77517  0.73658  1.0000
  N   N123      1.0  0.41249  0.69373  0.83594  1.0000
  H   H2205     1.0  0.60745  0.83596  0.93008  1.0000
  H   H2206     1.0  0.57700  0.64625  0.93302  1.0000
  H   H2207     1.0  0.52487  0.67191  0.95020  1.0000
  H   H2208     1.0  0.36366  0.89343  0.93959  1.0000
  H   H2209     1.0  0.44123  0.94918  0.95510  1.0000
  C   C1844     1.0  0.43522  0.93875  0.96513  1.0000
  C   C1845     1.0  0.54636  0.65326  0.92564  1.0000
  H   H2210     1.0  0.33893  0.85052  0.82964  1.0000
  Fe  Fe253     1.0  0.33626  0.97190  0.95665  1.0000
  C   C1846     1.0  0.54464  0.72189  0.81506  1.0000
  H   H2211     1.0  0.51262  0.77980  0.94995  1.0000
  C   C1847     1.0  0.54740  0.63459  0.95324  1.0000
  C   C1848     1.0  0.49826  0.52276  0.96286  1.0000
  S   S496      1.0  0.48678  0.85238  0.96549  1.0000
  C   C1849     1.0  0.59453  0.84616  0.92483  1.0000
  H   H2212     1.0  0.35993  0.91954  0.93080  1.0000
  N   N124      1.0  0.60226  0.71287  0.78403  1.0000
  H   H2213     1.0  0.51848  0.94913  0.96955  1.0000
  H   H2214     1.0  0.37896  0.94388  0.93543  1.0000
  H   H2215     1.0  0.58816  0.71986  0.76255  1.0000
  H   H2216     1.0  0.65249  0.70685  0.72332  1.0000
  H   H2217     1.0  0.61006  0.68087  0.79385  1.0000
  C   C1850     1.0  0.61318  0.73102  0.78035  1.0000
  S   S497      1.0  0.34393  0.76058  0.75485  1.0000
  C   C1851     1.0  0.59883  0.70754  0.76863  1.0000
  H   H2218     1.0  0.35661  0.84064  0.80522  1.0000
  N   N125      1.0  0.36468  0.82622  0.82836  1.0000
  H   H2219     1.0  0.61345  0.70532  0.76028  1.0000
  C   C1852     1.0  0.35236  0.80974  0.82856  1.0000
  S   S498      1.0  0.32612  0.51951  0.95521  1.0000
  C   C1853     1.0  0.38247  0.81792  0.83695  1.0000
  C   C1854     1.0  0.37942  0.80900  0.85326  1.0000
  C   C1855     1.0  0.40308  0.81837  0.82959  1.0000
  C   C1856     1.0  0.39593  0.80092  0.86163  1.0000
  C   C1857     1.0  0.41946  0.81031  0.83811  1.0000
  C   C1858     1.0  0.41590  0.80158  0.85407  1.0000
  C   C1859     1.0  0.38979  0.69784  0.83733  1.0000
  H   H2220     1.0  0.51640  0.61909  0.94744  1.0000
  C   C1860     1.0  0.57079  0.70004  0.80009  1.0000
  H   H2221     1.0  0.39328  0.79372  0.87396  1.0000
  C   C1861     1.0  0.57813  0.66323  0.90978  1.0000
  H   H2222     1.0  0.57606  0.68495  0.79675  1.0000
  H   H2223     1.0  0.36186  0.79661  0.82317  1.0000
  H   H2224     1.0  0.33932  0.81522  0.82164  1.0000
  H   H2225     1.0  0.34442  0.83723  0.84861  1.0000
  C   C1862     1.0  0.58243  0.71633  0.79453  1.0000
  H   H2226     1.0  0.40703  0.82448  0.81719  1.0000
  C   C1863     1.0  0.42045  0.69532  0.85079  1.0000
  H   H2227     1.0  0.43511  0.81010  0.83221  1.0000
  H   H2228     1.0  0.42873  0.79476  0.86041  1.0000
  N   N126      1.0  0.38418  0.91191  0.94555  1.0000
  C   C1864     1.0  0.39178  0.93141  0.93817  1.0000
  H   H2229     1.0  0.58776  0.84126  0.95666  1.0000
  C   C1865     1.0  0.53615  0.66297  0.91248  1.0000
  C   C1866     1.0  0.43691  0.88030  0.94943  1.0000
  H   H2230     1.0  0.40702  0.84358  0.96450  1.0000
  H   H2231     1.0  0.55578  0.86736  0.92687  1.0000
  C   C1867     1.0  0.63064  0.90004  0.93824  1.0000
  H   H2232     1.0  0.58296  0.83643  0.92379  1.0000
  C   C1868     1.0  0.40069  0.89474  0.94907  1.0000
  H   H2233     1.0  0.40197  0.92970  0.92666  1.0000
  H   H2234     1.0  0.53819  0.68026  0.88882  1.0000
  C   C1869     1.0  0.56749  0.67292  0.89723  1.0000
  H   H2235     1.0  0.52267  0.79296  0.96255  1.0000
  H   H2236     1.0  0.35856  0.92926  0.95863  1.0000
  H   H2237     1.0  0.40020  0.93700  0.94637  1.0000
  H   H2238     1.0  0.60166  0.86760  0.96225  1.0000
  H   H2239     1.0  0.51994  0.66320  0.91282  1.0000
  H   H2240     1.0  0.55489  0.64634  0.95692  1.0000
  C   C1870     1.0  0.51680  0.77845  0.96215  1.0000
  C   C1871     1.0  0.34319  0.76620  0.72244  1.0000
  H   H2241     1.0  0.55926  0.62179  0.94950  1.0000
  H   H2242     1.0  0.38013  0.87223  0.95869  1.0000
  Fe  Fe254     1.0  0.33305  0.77188  0.77886  1.0000
  H   H2243     1.0  0.60050  0.85251  0.91243  1.0000
  H   H2244     1.0  0.41378  0.66107  0.84175  1.0000
  C   C1872     1.0  0.48619  0.96022  0.97172  1.0000
  H   H2245     1.0  0.56893  0.86391  0.95852  1.0000
  H   H2246     1.0  0.38377  0.71337  0.84061  1.0000
  H   H2247     1.0  0.41308  0.67072  0.82086  1.0000
  H   H2248     1.0  0.61857  0.69887  0.80359  1.0000
  H   H2249     1.0  0.38250  0.68635  0.84640  1.0000
  H   H2250     1.0  0.36078  0.85492  0.83752  1.0000
  C   C1873     1.0  0.44980  0.69398  0.86498  1.0000
  C   C1874     1.0  0.42067  0.70860  0.82255  1.0000
  C   C1875     1.0  0.57400  0.73570  0.79941  1.0000
  C   C1876     1.0  0.61605  0.69569  0.79178  1.0000
  H   H2251     1.0  0.54953  0.75301  0.81358  1.0000
  C   C1877     1.0  0.55535  0.73832  0.80947  1.0000
  H   H2252     1.0  0.58168  0.74902  0.79601  1.0000
  C   C1878     1.0  0.52517  0.62687  0.93658  1.0000
  C   C1879     1.0  0.54654  0.67273  0.89857  1.0000
  H   H2253     1.0  0.62827  0.72781  0.77281  1.0000
  C   C1880     1.0  0.41566  0.69942  0.87927  1.0000
  H   H2254     1.0  0.64105  0.91041  0.93920  1.0000
  C   C1881     1.0  0.62240  0.88814  0.95192  1.0000
  S   S499      1.0  0.36858  0.97495  0.95867  1.0000
  H   H2255     1.0  0.42709  0.91142  0.94136  1.0000
  S   S500      1.0  0.36415  0.49039  0.93798  1.0000
  H   H2256     1.0  0.60438  0.74427  0.77353  1.0000
  S   S501      1.0  0.47097  0.91325  0.95839  1.0000
  H   H2257     1.0  0.59224  0.69305  0.77028  1.0000
  H   H2258     1.0  0.51425  0.63250  0.92782  1.0000
  H   H2259     1.0  0.61639  0.73570  0.79150  1.0000
  C   C1882     1.0  0.59644  0.93069  0.96536  1.0000
  H   H2260     1.0  0.41742  0.72432  0.82581  1.0000
  S   S502      1.0  0.61353  0.94730  0.95452  1.0000
  C   C1883     1.0  0.37191  0.90655  0.93431  1.0000
  C   C1884     1.0  0.44186  0.69306  0.85105  1.0000
  C   C1885     1.0  0.43161  0.86114  0.95600  1.0000
  Fe  Fe255     1.0  0.49133  0.88442  0.96709  1.0000
  H   H2261     1.0  0.43749  0.70514  0.81920  1.0000
  H   H2262     1.0  0.55834  0.90629  0.95858  1.0000
  S   S503      1.0  0.45904  0.66048  0.96679  1.0000
  H   H2263     1.0  0.50884  0.65238  0.95794  1.0000
  C   C1886     1.0  0.50678  0.96252  0.96959  1.0000
  C   C1887     1.0  0.37060  0.91578  0.96061  1.0000
  H   H2264     1.0  0.47174  0.70514  0.97005  1.0000
  H   H2265     1.0  0.53798  0.62786  0.96420  1.0000
  C   C1888     1.0  0.47738  0.71909  0.97106  1.0000
  C   C1889     1.0  0.32772  0.79529  0.73590  1.0000
  H   H2266     1.0  0.62653  0.88936  0.96343  1.0000
  C   C1890     1.0  0.39583  0.87500  0.95584  1.0000
  H   H2267     1.0  0.49536  0.50910  0.95824  1.0000
  H   H2268     1.0  0.38180  0.90252  0.92315  1.0000
  S   S504      1.0  0.32732  0.74745  0.80000  1.0000
  H   H2269     1.0  0.40697  0.95898  0.97013  1.0000
  H   H2270     1.0  0.52835  0.98384  0.96573  1.0000
  C   C1891     1.0  0.41110  0.85849  0.95924  1.0000
  H   H2271     1.0  0.48420  0.53430  0.96190  1.0000
  C   C1892     1.0  0.51229  0.98205  0.96743  1.0000
  H   H2272     1.0  0.52968  0.76562  0.96322  1.0000
  H   H2273     1.0  0.44343  0.84837  0.95871  1.0000
  H   H2274     1.0  0.47730  0.79419  0.96093  1.0000
  H   H2275     1.0  0.37950  0.91889  0.96960  1.0000
  H   H2276     1.0  0.42503  0.58037  0.96684  1.0000
  C   C1893     1.0  0.47098  0.97741  0.97170  1.0000
  Fe  Fe256     1.0  0.77662  0.45317  0.11021  1.0000
  H   H2277     1.0  0.77374  0.03829  0.13965  1.0000
  S   S505      1.0  0.77496  0.42328  0.12716  1.0000
  S   S506      1.0  0.78367  0.46050  0.08339  1.0000
  Fe  Fe257     1.0  0.80923  0.29137  0.16918  1.0000
  S   S507      1.0  0.82782  0.29781  0.14501  1.0000
  S   S508      1.0  0.81510  0.30511  0.19015  1.0000
  Fe  Fe258     1.0  0.78221  0.26631  0.15714  1.0000
  S   S509      1.0  0.79867  0.27074  0.13199  1.0000
  S   S510      1.0  0.75924  0.24445  0.16776  1.0000
  Fe  Fe259     1.0  0.82767  0.26476  0.14314  1.0000
  S   S511      1.0  0.85457  0.24075  0.13606  1.0000
  Fe  Fe260     1.0  0.79753  0.30368  0.13578  1.0000
  S   S512      1.0  0.79185  0.32989  0.11562  1.0000
  S   S513      1.0  0.81134  0.25795  0.16811  1.0000
  S   S514      1.0  0.77874  0.29962  0.16017  1.0000
  Fe  Fe261     1.0  0.73680  0.00851  0.06511  1.0000
  S   S515      1.0  0.73038  0.00926  0.03955  1.0000
  Fe  Fe262     1.0  0.72023  0.02838  0.09479  1.0000
  S   S516      1.0  0.74760  0.01534  0.10705  1.0000
  S   S517      1.0  0.69274  0.04934  0.10493  1.0000
  Fe  Fe263     1.0  0.76617  0.02400  0.08319  1.0000
  S   S518      1.0  0.79332  0.03859  0.08634  1.0000
  S   S519      1.0  0.65954  0.45196  0.98340  1.0000
  S   S520      1.0  0.73862  0.03938  0.07170  1.0000
  S   S521      1.0  0.71681  0.99819  0.08781  1.0000
  Fe  Fe264     1.0  0.94116  0.07135  0.01677  1.0000
  S   S522      1.0  0.92912  0.04232  0.02798  1.0000
  S   S523      1.0  0.95793  0.07543  0.99151  1.0000
  Fe  Fe265     1.0  0.92931  0.09130  0.04724  1.0000
  S   S524      1.0  0.91565  0.06370  0.06099  1.0000
  S   S525      1.0  0.92758  0.12091  0.05803  1.0000
  Fe  Fe266     1.0  0.94365  0.04517  0.04909  1.0000
  Fe  Fe267     1.0  0.90191  0.06273  0.03886  1.0000
  S   S526      1.0  0.87134  0.05511  0.03503  1.0000
  S   S527      1.0  0.95822  0.07270  0.03707  1.0000
  S   S528      1.0  0.91308  0.09182  0.02596  1.0000
  Fe  Fe268     1.0  0.97077  0.23872  0.09610  1.0000
  H   H2278     1.0  0.75642  0.00131  0.97944  1.0000
  S   S529      1.0  0.94279  0.26122  0.10398  1.0000
  H   H2279     1.0  0.70142  0.45763  0.08876  1.0000
  C   C1894     1.0  0.87505  0.29117  0.21356  1.0000
  Fe  Fe269     1.0  0.68287  0.15685  0.12925  1.0000
  H   H2280     1.0  0.78637  0.17672  0.09786  1.0000
  S   S530      1.0  0.70939  0.13511  0.11857  1.0000
  Fe  Fe270     1.0  0.67364  0.20096  0.13655  1.0000
  S   S531      1.0  0.68858  0.22980  0.13135  1.0000
  S   S532      1.0  0.68712  0.17149  0.15004  1.0000
  H   H2281     1.0  0.96842  0.11866  0.99692  1.0000
  C   C1895     1.0  0.87164  0.47088  0.09992  1.0000
  S   S533      1.0  0.68781  0.45487  0.01958  1.0000
  H   H2282     1.0  0.71604  0.01615  0.00916  1.0000
  C   C1896     1.0  0.73287  0.39982  0.10486  1.0000
  C   C1897     1.0  0.71941  0.06149  0.14221  1.0000
  C   C1898     1.0  0.92969  0.14659  0.01845  1.0000
  H   H2283     1.0  0.96935  0.01265  0.02934  1.0000
  C   C1899     1.0  0.94665  0.13557  0.06010  1.0000
  C   C1900     1.0  0.96722  0.13083  0.05368  1.0000
  H   H2284     1.0  0.70493  0.05184  0.04885  1.0000
  C   C1901     1.0  0.69021  0.11471  0.16253  1.0000
  C   C1902     1.0  0.95517  0.16532  0.06972  1.0000
  C   C1903     1.0  0.94077  0.15290  0.06809  1.0000
  C   C1904     1.0  0.93947  0.13214  0.97635  1.0000
  H   H2285     1.0  0.93321  0.46778  0.11547  1.0000
  H   H2286     1.0  0.92491  0.15675  0.07308  1.0000
  C   C1905     1.0  0.69737  0.07358  0.10784  1.0000
  C   C1906     1.0  0.68115  0.08743  0.11425  1.0000
  C   C1907     1.0  0.68458  0.10657  0.11715  1.0000
  C   C1908     1.0  0.70431  0.11189  0.11386  1.0000
  C   C1909     1.0  0.72047  0.09814  0.10723  1.0000
  C   C1910     1.0  0.71701  0.07910  0.10413  1.0000
  C   C1911     1.0  0.78065  0.21559  0.12778  1.0000
  H   H2287     1.0  0.73881  0.44807  0.08681  1.0000
  H   H2288     1.0  0.73577  0.10214  0.10460  1.0000
  H   H2289     1.0  0.72962  0.06855  0.09916  1.0000
  C   C1912     1.0  0.81513  0.04244  0.07200  1.0000
  C   C1913     1.0  0.81639  0.03880  0.05622  1.0000
  C   C1914     1.0  0.83380  0.04262  0.04511  1.0000
  C   C1915     1.0  0.85021  0.04983  0.04969  1.0000
  C   C1916     1.0  0.84911  0.05308  0.06556  1.0000
  C   C1917     1.0  0.83158  0.04951  0.07663  1.0000
  H   H2290     1.0  0.80382  0.03341  0.05250  1.0000
  H   H2291     1.0  0.83451  0.04012  0.03285  1.0000
  H   H2292     1.0  0.86158  0.05871  0.06921  1.0000
  H   H2293     1.0  0.83070  0.05248  0.08879  1.0000
  H   H2294     1.0  0.71739  0.03090  0.13856  1.0000
  C   C1918     1.0  0.67882  0.09120  0.18520  1.0000
  C   C1919     1.0  0.69947  0.46574  0.03297  1.0000
  C   C1920     1.0  0.87886  0.24670  0.12672  1.0000
  C   C1921     1.0  0.89501  0.23067  0.12409  1.0000
  C   C1922     1.0  0.91466  0.23481  0.11698  1.0000
  C   C1923     1.0  0.91830  0.25507  0.11251  1.0000
  C   C1924     1.0  0.90213  0.27111  0.11512  1.0000
  C   C1925     1.0  0.88247  0.26697  0.12214  1.0000
  H   H2295     1.0  0.89231  0.21495  0.12756  1.0000
  H   H2296     1.0  0.92698  0.22234  0.11503  1.0000
  H   H2297     1.0  0.90479  0.28683  0.11160  1.0000
  H   H2298     1.0  0.87009  0.27944  0.12390  1.0000
  C   C1926     1.0  0.73940  0.24087  0.15765  1.0000
  C   C1927     1.0  0.72827  0.22457  0.16371  1.0000
  C   C1928     1.0  0.71252  0.22107  0.15588  1.0000
  C   C1929     1.0  0.70765  0.23402  0.14199  1.0000
  C   C1930     1.0  0.71862  0.25045  0.13605  1.0000
  C   C1931     1.0  0.73453  0.25380  0.14377  1.0000
  H   H2299     1.0  0.73193  0.21452  0.17444  1.0000
  H   H2300     1.0  0.70411  0.20845  0.16062  1.0000
  H   H2301     1.0  0.71494  0.26055  0.12533  1.0000
  H   H2302     1.0  0.74296  0.26643  0.13902  1.0000
  C   C1932     1.0  0.79985  0.20785  0.12037  1.0000
  C   C1933     1.0  0.70603  0.40839  0.08099  1.0000
  C   C1934     1.0  0.71740  0.45488  0.03871  1.0000
  H   H2303     1.0  0.77936  0.22652  0.13611  1.0000
  H   H2304     1.0  0.72385  0.44023  0.03488  1.0000
  H   H2305     1.0  0.74053  0.45388  0.05397  1.0000
  C   C1935     1.0  0.78152  0.39750  0.12349  1.0000
  C   C1936     1.0  0.78651  0.39223  0.10801  1.0000
  C   C1937     1.0  0.78976  0.37144  0.10575  1.0000
  C   C1938     1.0  0.78856  0.35578  0.11892  1.0000
  C   C1939     1.0  0.78409  0.36108  0.13437  1.0000
  C   C1940     1.0  0.78040  0.38183  0.13662  1.0000
  H   H2306     1.0  0.78758  0.40410  0.09780  1.0000
  H   H2307     1.0  0.79330  0.36743  0.09376  1.0000
  H   H2308     1.0  0.78307  0.34919  0.14460  1.0000
  H   H2309     1.0  0.77652  0.38575  0.14863  1.0000
  C   C1941     1.0  0.82799  0.26897  0.20904  1.0000
  C   C1942     1.0  0.70968  0.42455  0.08858  1.0000
  H   H2310     1.0  0.74332  0.39814  0.11402  1.0000
  H   H2311     1.0  0.82807  0.26125  0.19890  1.0000
  C   C1943     1.0  0.70655  0.00612  0.01710  1.0000
  H   H2312     1.0  0.71422  0.39305  0.08298  1.0000
  H   H2313     1.0  0.74198  0.39190  0.09495  1.0000
  C   C1944     1.0  0.70996  0.00038  0.03311  1.0000
  H   H2314     1.0  0.74987  0.42434  0.07971  1.0000
  H   H2315     1.0  0.71491  0.18710  0.21937  1.0000
  H   H2316     1.0  0.81651  0.18788  0.10394  1.0000
  H   H2317     1.0  0.96688  0.29558  0.08833  1.0000
  H   H2318     1.0  0.93927  0.15001  0.02689  1.0000
  H   H2319     1.0  0.77993  0.28068  0.19984  1.0000
  H   H2320     1.0  0.98006  0.35801  0.09221  1.0000
  C   C1945     1.0  0.78395  0.18756  0.10627  1.0000
  H   H2321     1.0  0.66687  0.01942  0.07133  1.0000
  H   H2322     1.0  0.96470  0.15495  0.98561  1.0000
  C   C1946     1.0  0.68278  0.05947  0.16290  1.0000
  C   C1947     1.0  0.75179  0.26817  0.20689  1.0000
  H   H2323     1.0  0.67047  0.43409  0.05773  1.0000
  H   H2324     1.0  0.68756  0.07586  0.04884  1.0000
  H   H2325     1.0  0.68404  0.03110  0.07934  1.0000
  C   C1948     1.0  0.98289  0.35180  0.08099  1.0000
  H   H2326     1.0  0.81346  0.21280  0.12291  1.0000
  N   N127      1.0  0.96689  0.30922  0.06345  1.0000
  H   H2327     1.0  0.94243  0.17229  0.99207  1.0000
  C   C1949     1.0  0.70989  0.07857  0.14950  1.0000
  C   C1950     1.0  0.97205  0.29184  0.07599  1.0000
  C   C1951     1.0  0.69139  0.48467  0.03809  1.0000
  C   C1952     1.0  0.82954  0.99792  0.10907  1.0000
  H   H2328     1.0  0.66864  0.05791  0.17081  1.0000
  H   H2329     1.0  0.76350  0.47884  0.16277  1.0000
  H   H2330     1.0  0.88110  0.13135  0.98705  1.0000
  H   H2331     1.0  0.81686  0.31631  0.22061  1.0000
  H   H2332     1.0  0.89980  0.13894  0.00674  1.0000
  C   C1953     1.0  0.79633  0.99318  0.12589  1.0000
  H   H2333     1.0  0.69109  0.11961  0.14940  1.0000
  C   C1954     1.0  0.66724  0.04516  0.04300  1.0000
  H   H2334     1.0  0.84285  0.99056  0.10133  1.0000
  C   C1955     1.0  0.69101  0.99893  0.01125  1.0000
  H   H2335     1.0  0.79343  0.47592  0.17689  1.0000
  C   C1956     1.0  0.90840  0.13633  0.99525  1.0000
  H   H2336     1.0  0.94098  0.03340  0.97450  1.0000
  H   H2337     1.0  0.86573  0.46151  0.09305  1.0000
  H   H2338     1.0  0.73337  0.06238  0.13382  1.0000
  Fe  Fe271     1.0  0.80005  0.48505  0.08876  1.0000
  H   H2339     1.0  0.66294  0.19025  0.18383  1.0000
  C   C1957     1.0  0.97716  0.32664  0.06487  1.0000
  H   H2340     1.0  0.97203  0.11756  0.04755  1.0000
  H   H2341     1.0  0.73143  0.47258  0.99876  1.0000
  H   H2342     1.0  0.65937  0.10387  0.15005  1.0000
  Fe  Fe272     1.0  0.66023  0.46621  0.00562  1.0000
  C   C1958     1.0  0.74316  0.43137  0.09068  1.0000
  H   H2343     1.0  0.73822  0.18713  0.20576  1.0000
  N   N128      1.0  0.72545  0.42172  0.09935  1.0000
  C   C1959     1.0  0.73789  0.26092  0.21967  1.0000
  C   C1960     1.0  0.76544  0.98882  0.14534  1.0000
  H   H2344     1.0  0.71928  0.00830  0.98011  1.0000
  C   C1961     1.0  0.97324  0.33549  0.07927  1.0000
  C   C1962     1.0  0.97252  0.99682  0.05304  1.0000
  H   H2345     1.0  0.69257  0.01964  0.06142  1.0000
  C   C1963     1.0  0.67656  0.05311  0.02757  1.0000
  H   H2346     1.0  0.74986  0.01555  0.15547  1.0000
  H   H2347     1.0  0.92177  0.13374  0.02507  1.0000
  C   C1964     1.0  0.71740  0.43161  0.11391  1.0000
  S   S534      1.0  0.98144  0.20516  0.10367  1.0000
  C   C1965     1.0  0.67010  0.04958  0.01364  1.0000
  H   H2348     1.0  0.75545  0.42969  0.09832  1.0000
  H   H2349     1.0  0.96510  0.28823  0.04720  1.0000
  S   S535      1.0  0.98016  0.23695  0.06972  1.0000
  S   S536      1.0  0.79525  0.47569  0.11547  1.0000
  H   H2350     1.0  0.94957  0.10923  0.01218  1.0000
  Fe  Fe273     1.0  0.75535  0.48422  0.08495  1.0000
  C   C1966     1.0  0.89737  0.13201  0.98399  1.0000
  C   C1967     1.0  0.80150  0.19385  0.10967  1.0000
  C   C1968     1.0  0.67940  0.02886  0.06792  1.0000
  C   C1969     1.0  0.97286  0.30151  0.04777  1.0000
  C   C1970     1.0  0.95730  0.12285  0.00744  1.0000
  H   H2351     1.0  0.85617  0.30651  0.16887  1.0000
  C   C1971     1.0  0.94437  0.31545  0.06566  1.0000
  C   C1972     1.0  0.66814  0.19091  0.20799  1.0000
  H   H2352     1.0  0.72872  0.42859  0.12257  1.0000
  C   C1973     1.0  0.69185  0.41184  0.07014  1.0000
  H   H2353     1.0  0.87169  0.30220  0.15043  1.0000
  C   C1974     1.0  0.69113  0.06022  0.05547  1.0000
  H   H2354     1.0  0.71998  0.39137  0.11047  1.0000
  H   H2355     1.0  0.96188  0.16288  0.00482  1.0000
  C   C1975     1.0  0.87211  0.30102  0.16353  1.0000
  H   H2356     1.0  0.88233  0.31179  0.16508  1.0000
  H   H2357     1.0  0.66047  0.06390  0.07857  1.0000
  C   C1976     1.0  0.71859  0.48132  0.05499  1.0000
  C   C1977     1.0  0.95326  0.15855  0.99611  1.0000
  H   H2358     1.0  0.90058  0.46857  0.08569  1.0000
  C   C1978     1.0  0.69228  0.04262  0.15533  1.0000
  H   H2359     1.0  0.70311  0.42591  0.12017  1.0000
  C   C1979     1.0  0.82196  0.29017  0.20797  1.0000
  C   C1980     1.0  0.73231  0.20773  0.10283  1.0000
  S   S537      1.0  0.67186  0.18662  0.11498  1.0000
  C   C1981     1.0  0.76152  0.48333  0.17463  1.0000
  H   H2360     1.0  0.71775  0.20396  0.10016  1.0000
  C   C1982     1.0  0.72692  0.46258  0.04960  1.0000
  H   H2361     1.0  0.75658  0.17946  0.08716  1.0000
  C   C1983     1.0  0.74871  0.17372  0.09914  1.0000
  N   N129      1.0  0.67346  0.04873  0.05804  1.0000
  H   H2362     1.0  0.96872  0.31353  0.03771  1.0000
  H   H2363     1.0  0.95032  0.17855  0.07591  1.0000
  H   H2364     1.0  0.75783  0.15925  0.10417  1.0000
  H   H2365     1.0  0.66591  0.08332  0.11703  1.0000
  C   C1984     1.0  0.77625  0.02212  0.13851  1.0000
  H   H2366     1.0  0.71417  0.44857  0.11124  1.0000
  H   H2367     1.0  0.86952  0.25006  0.17208  1.0000
  H   H2368     1.0  0.84925  0.27111  0.17470  1.0000
  C   C1985     1.0  0.94703  0.00988  0.99375  1.0000
  H   H2369     1.0  0.67197  0.11718  0.12193  1.0000
  C   C1986     1.0  0.69854  0.44426  0.08440  1.0000
  H   H2370     1.0  0.86692  0.30887  0.19210  1.0000
  C   C1987     1.0  0.76410  0.19525  0.11361  1.0000
  H   H2371     1.0  0.90492  0.25637  0.16466  1.0000
  N   N130      1.0  0.87927  0.27969  0.17066  1.0000
  C   C1988     1.0  0.86469  0.26661  0.16812  1.0000
  N   N131      1.0  0.68013  0.09609  0.16754  1.0000
  C   C1989     1.0  0.88822  0.25827  0.19631  1.0000
  H   H2372     1.0  0.89942  0.27574  0.14855  1.0000
  C   C1990     1.0  0.89964  0.27305  0.16172  1.0000
  C   C1991     1.0  0.88057  0.27751  0.18798  1.0000
  C   C1992     1.0  0.87381  0.29391  0.19716  1.0000
  H   H2373     1.0  0.89465  0.24075  0.21895  1.0000
  H   H2374     1.0  0.73407  0.16937  0.09711  1.0000
  H   H2375     1.0  0.91445  0.07643  0.99100  1.0000
  C   C1993     1.0  0.97492  0.99841  0.03634  1.0000
  C   C1994     1.0  0.76307  0.20942  0.12446  1.0000
  C   C1995     1.0  0.68420  0.44743  0.07375  1.0000
  C   C1996     1.0  0.68097  0.43131  0.06653  1.0000
  C   C1997     1.0  0.76475  0.21405  0.20910  1.0000
  C   C1998     1.0  0.94171  0.01711  0.97849  1.0000
  H   H2376     1.0  0.93423  0.46903  0.08627  1.0000
  H   H2377     1.0  0.67621  0.46271  0.07050  1.0000
  H   H2378     1.0  0.71729  0.09210  0.14627  1.0000
  C   C1999     1.0  0.69750  0.98748  0.04331  1.0000
  H   H2379     1.0  0.91143  0.28150  0.16425  1.0000
  H   H2380     1.0  0.86307  0.26799  0.15526  1.0000
  H   H2381     1.0  0.68955  0.39944  0.06423  1.0000
  C   C2000     1.0  0.94345  0.07667  0.97581  1.0000
  H   H2382     1.0  0.74063  0.21487  0.09151  1.0000
  H   H2383     1.0  0.96621  0.12513  0.01673  1.0000
  H   H2384     1.0  0.95050  0.02049  0.00090  1.0000
  H   H2385     1.0  0.72310  0.21095  0.21077  1.0000
  S   S538      1.0  0.96104  0.01784  0.06304  1.0000
  H   H2386     1.0  0.74267  0.16762  0.13174  1.0000
  N   N132      1.0  0.74509  0.18935  0.11018  1.0000
  C   C2001     1.0  0.66234  0.18214  0.19591  1.0000
  H   H2387     1.0  0.89308  0.24497  0.19023  1.0000
  H   H2388     1.0  0.83535  0.00214  0.11935  1.0000
  H   H2389     1.0  0.78663  0.23071  0.19326  1.0000
  H   H2390     1.0  0.74857  0.21595  0.13043  1.0000
  H   H2391     1.0  0.68911  0.06179  0.02590  1.0000
  H   H2392     1.0  0.74922  0.26839  0.19465  1.0000
  C   C2002     1.0  0.73327  0.18075  0.12528  1.0000
  H   H2393     1.0  0.68532  0.02875  0.15728  1.0000
  C   C2003     1.0  0.88923  0.25568  0.21274  1.0000
  H   H2394     1.0  0.96459  0.27851  0.07518  1.0000
  C   C2004     1.0  0.92987  0.13666  0.99170  1.0000
  H   H2395     1.0  0.96287  0.32966  0.08939  1.0000
  H   H2396     1.0  0.72748  0.19229  0.13354  1.0000
  N   N133      1.0  0.94215  0.14111  0.00330  1.0000
  H   H2397     1.0  0.80216  0.02514  0.12096  1.0000
  H   H2398     1.0  0.69434  0.08683  0.18889  1.0000
  C   C2005     1.0  0.70758  0.47225  0.97714  1.0000
  C   C2006     1.0  0.78260  0.22307  0.20531  1.0000
  S   S539      1.0  0.74739  0.47536  0.11153  1.0000
  H   H2399     1.0  0.71950  0.17510  0.12295  1.0000
  H   H2400     1.0  0.70588  0.11228  0.16588  1.0000
  C   C2007     1.0  0.76910  0.27505  0.20982  1.0000
  H   H2401     1.0  0.69558  0.06230  0.06705  1.0000
  H   H2402     1.0  0.72771  0.21972  0.11086  1.0000
  H   H2403     1.0  0.75581  0.21531  0.19946  1.0000
  H   H2404     1.0  0.67320  0.20578  0.20510  1.0000
  H   H2405     1.0  0.93983  0.32908  0.05690  1.0000
  H   H2406     1.0  0.76136  0.47913  0.98256  1.0000
  C   C2008     1.0  0.71046  0.04370  0.14489  1.0000
  C   C2009     1.0  0.79515  0.22242  0.21689  1.0000
  C   C2010     1.0  0.97569  0.16066  0.06323  1.0000
  H   H2407     1.0  0.68846  0.00349  0.99896  1.0000
  H   H2408     1.0  0.93618  0.30286  0.06415  1.0000
  C   C2011     1.0  0.65907  0.10134  0.16328  1.0000
  H   H2409     1.0  0.67003  0.07836  0.19012  1.0000
  H   H2410     1.0  0.91806  0.16037  0.01629  1.0000
  C   C2012     1.0  0.69107  0.07814  0.15998  1.0000
  H   H2411     1.0  0.84304  0.47629  0.11523  1.0000
  H   H2412     1.0  0.98879  0.28664  0.07482  1.0000
  H   H2413     1.0  0.69368  0.47361  0.98620  1.0000
  C   C2013     1.0  0.92226  0.07697  0.97885  1.0000
  H   H2414     1.0  0.71628  0.45670  0.98010  1.0000
  H   H2415     1.0  0.68157  0.12795  0.16832  1.0000
  H   H2416     1.0  0.67098  0.10462  0.19120  1.0000
  C   C2014     1.0  0.89167  0.47527  0.09573  1.0000
  H   H2417     1.0  0.80895  0.22948  0.21382  1.0000
  C   C2015     1.0  0.79275  0.01426  0.12785  1.0000
  C   C2016     1.0  0.93248  0.48475  0.11304  1.0000
  H   H2418     1.0  0.93837  0.31930  0.07788  1.0000
  C   C2017     1.0  0.77836  0.48176  0.18259  1.0000
  C   C2018     1.0  0.72876  0.19486  0.21564  1.0000
  H   H2419     1.0  0.67761  0.05547  0.00198  1.0000
  H   H2420     1.0  0.82379  0.01222  0.10148  1.0000
  C   C2019     1.0  0.82160  0.29992  0.22136  1.0000
  C   C2020     1.0  0.76272  0.00939  0.14733  1.0000
  S   S540      1.0  0.76621  0.99394  0.07468  1.0000
  H   H2421     1.0  0.95583  0.13121  0.97301  1.0000
  H   H2422     1.0  0.79756  0.99562  0.09441  1.0000
  C   C2021     1.0  0.94731  0.98927  1.00000  1.0000
  H   H2423     1.0  0.86930  0.30372  0.22042  1.0000
  C   C2022     1.0  0.98160  0.14334  0.05521  1.0000
  C   C2023     1.0  0.85875  0.47927  0.11243  1.0000
  H   H2424     1.0  0.72448  0.25558  0.21722  1.0000
  H   H2425     1.0  0.98961  0.29589  0.04564  1.0000
  C   C2024     1.0  0.93161  0.48607  0.08497  1.0000
  C   C2025     1.0  0.88272  0.27212  0.22132  1.0000
  H   H2426     1.0  0.70632  0.99205  0.97184  1.0000
  S   S541      1.0  0.70769  0.99561  0.36897  1.0000
  S   S542      1.0  0.96669  0.24554  0.38649  1.0000
  S   S543      1.0  0.80325  0.99891  0.42807  1.0000
  H   H2427     1.0  0.92739  0.07830  0.43900  1.0000
  Fe  Fe274     1.0  0.97045  0.24563  0.35978  1.0000
  S   S544      1.0  0.94979  0.26369  0.34182  1.0000
  Fe  Fe275     1.0  0.82009  0.30020  0.29758  1.0000
  S   S545      1.0  0.81291  0.27829  0.31986  1.0000
  S   S546      1.0  0.81619  0.33472  0.29626  1.0000
  Fe  Fe276     1.0  0.83464  0.26595  0.27715  1.0000
  S   S547      1.0  0.82942  0.24154  0.29816  1.0000
  S   S548      1.0  0.84379  0.25337  0.25367  1.0000
  Fe  Fe277     1.0  0.79976  0.26155  0.30411  1.0000
  S   S549      1.0  0.76935  0.24969  0.31158  1.0000
  Fe  Fe278     1.0  0.84342  0.26025  0.31190  1.0000
  S   S550      1.0  0.86266  0.24496  0.33154  1.0000
  S   S551      1.0  0.80423  0.28516  0.28249  1.0000
  S   S552      1.0  0.85141  0.28299  0.29024  1.0000
  S   S553      1.0  0.82109  0.44572  0.43550  1.0000
  C   C2026     1.0  0.90978  0.37146  0.43833  1.0000
  Fe  Fe279     1.0  0.71609  0.44604  0.35424  1.0000
  S   S554      1.0  0.73807  0.42965  0.37101  1.0000
  S   S555      1.0  0.68163  0.45211  0.36229  1.0000
  Fe  Fe280     1.0  0.75066  0.45713  0.32728  1.0000
  S   S556      1.0  0.77509  0.44078  0.34210  1.0000
  Fe  Fe281     1.0  0.75507  0.41609  0.34919  1.0000
  S   S557      1.0  0.76602  0.38181  0.35249  1.0000
  Fe  Fe282     1.0  0.75640  0.45563  0.36255  1.0000
  H   H2428     1.0  0.78606  0.28047  0.22718  1.0000
  S   S558      1.0  0.73198  0.43106  0.33286  1.0000
  S   S559      1.0  0.73296  0.47334  0.34733  1.0000
  C   C2027     1.0  0.77786  0.99767  0.40599  1.0000
  S   S560      1.0  0.73046  0.03083  0.33241  1.0000
  Fe  Fe283     1.0  0.71090  0.17139  0.28530  1.0000
  S   S561      1.0  0.70539  0.15162  0.26797  1.0000
  S   S562      1.0  0.74356  0.17825  0.28206  1.0000
  Fe  Fe284     1.0  0.68402  0.13785  0.28845  1.0000
  C   C2028     1.0  0.97456  0.12469  0.40346  1.0000
  C   C2029     1.0  0.67715  0.41200  0.40446  1.0000
  N   N134      1.0  0.88078  0.40153  0.44045  1.0000
  S   S563      1.0  0.69156  0.15557  0.30636  1.0000
  S   S564      1.0  0.68538  0.19624  0.27924  1.0000
  S   S565      1.0  0.98008  0.32461  0.44816  1.0000
  H   H2429     1.0  0.69226  0.03379  0.31919  1.0000
  C   C2030     1.0  0.68641  0.06504  0.30744  1.0000
  H   H2430     1.0  0.94566  0.40081  0.45422  1.0000
  H   H2431     1.0  0.87721  0.41683  0.46126  1.0000
  H   H2432     1.0  0.66598  0.02250  0.36380  1.0000
  C   C2031     1.0  0.71585  0.05100  0.32115  1.0000
  C   C2032     1.0  0.69765  0.04848  0.31623  1.0000
  H   H2433     1.0  0.75237  0.47330  0.23390  1.0000
  C   C2033     1.0  0.69322  0.08424  0.30355  1.0000
  C   C2034     1.0  0.71137  0.08679  0.30853  1.0000
  C   C2035     1.0  0.72265  0.07021  0.31725  1.0000
  C   C2036     1.0  0.91552  0.40179  0.44800  1.0000
  H   H2434     1.0  0.92401  0.14264  0.41104  1.0000
  H   H2435     1.0  0.71677  0.10148  0.30561  1.0000
  H   H2436     1.0  0.73675  0.07225  0.32098  1.0000
  C   C2037     1.0  0.94272  0.37310  0.44588  1.0000
  C   C2038     1.0  0.92988  0.36249  0.44022  1.0000
  H   H2437     1.0  0.69412  0.04333  0.35576  1.0000
  H   H2438     1.0  0.68859  0.40817  0.35991  1.0000
  C   C2039     1.0  0.80625  0.45436  0.41950  1.0000
  C   C2040     1.0  0.80123  0.43978  0.41124  1.0000
  C   C2041     1.0  0.78987  0.44583  0.39828  1.0000
  C   C2042     1.0  0.78354  0.46663  0.39330  1.0000
  C   C2043     1.0  0.89608  0.05981  0.46783  1.0000
  C   C2044     1.0  0.67424  0.07143  0.34936  1.0000
  H   H2439     1.0  0.80613  0.42366  0.41489  1.0000
  H   H2440     1.0  0.78615  0.43442  0.39207  1.0000
  C   C2045     1.0  0.76236  0.23012  0.30291  1.0000
  C   C2046     1.0  0.74222  0.22573  0.30668  1.0000
  C   C2047     1.0  0.73613  0.21010  0.30017  1.0000
  C   C2048     1.0  0.75026  0.19857  0.28998  1.0000
  C   C2049     1.0  0.77038  0.20305  0.28612  1.0000
  C   C2050     1.0  0.77641  0.21881  0.29250  1.0000
  H   H2441     1.0  0.73126  0.23440  0.31474  1.0000
  H   H2442     1.0  0.72060  0.20676  0.30327  1.0000
  H   H2443     1.0  0.78144  0.19410  0.27832  1.0000
  H   H2444     1.0  0.79202  0.22192  0.28960  1.0000
  C   C2051     1.0  0.83443  0.26762  0.23647  1.0000
  C   C2052     1.0  0.89142  0.03975  0.46953  1.0000
  C   C2053     1.0  0.82754  0.28865  0.23566  1.0000
  H   H2445     1.0  0.67786  0.10746  0.32744  1.0000
  H   H2446     1.0  0.82751  0.29636  0.24582  1.0000
  C   C2054     1.0  0.80099  0.34757  0.31161  1.0000
  C   C2055     1.0  0.79323  0.33681  0.32616  1.0000
  C   C2056     1.0  0.78219  0.34752  0.33846  1.0000
  C   C2057     1.0  0.77850  0.36904  0.33624  1.0000
  C   C2058     1.0  0.78582  0.37981  0.32155  1.0000
  C   C2059     1.0  0.79717  0.36910  0.30934  1.0000
  H   H2447     1.0  0.79587  0.32028  0.32805  1.0000
  H   H2448     1.0  0.77658  0.33911  0.34979  1.0000
  H   H2449     1.0  0.78313  0.39639  0.31974  1.0000
  H   H2450     1.0  0.80309  0.37754  0.29812  1.0000
  H   H2451     1.0  0.95823  0.36605  0.44738  1.0000
  C   C2060     1.0  0.92594  0.25765  0.33885  1.0000
  C   C2061     1.0  0.91665  0.26811  0.32560  1.0000
  C   C2062     1.0  0.89750  0.26417  0.32300  1.0000
  C   C2063     1.0  0.88727  0.24987  0.33377  1.0000
  C   C2064     1.0  0.89658  0.23937  0.34699  1.0000
  C   C2065     1.0  0.91584  0.24314  0.34949  1.0000
  H   H2452     1.0  0.92435  0.27931  0.31726  1.0000
  H   H2453     1.0  0.89070  0.27219  0.31266  1.0000
  H   H2454     1.0  0.88887  0.22825  0.35540  1.0000
  H   H2455     1.0  0.92275  0.23499  0.35975  1.0000
  H   H2456     1.0  0.78458  0.25547  0.27093  1.0000
  C   C2066     1.0  0.78136  0.25528  0.25861  1.0000
  H   H2457     1.0  0.76872  0.19613  0.24849  1.0000
  H   H2458     1.0  0.68737  0.07936  0.34563  1.0000
  H   H2459     1.0  0.96456  0.13902  0.45380  1.0000
  Fe  Fe285     1.0  0.72099  0.99979  0.34292  1.0000
  C   C2067     1.0  0.97568  0.10718  0.41496  1.0000
  H   H2460     1.0  0.94675  0.16829  0.43701  1.0000
  H   H2461     1.0  0.75205  0.16975  0.24711  1.0000
  C   C2068     1.0  0.97897  0.07073  0.43773  1.0000
  Fe  Fe286     1.0  0.85808  0.00549  0.46096  1.0000
  C   C2069     1.0  0.67564  0.43276  0.40550  1.0000
  C   C2070     1.0  0.74552  0.26238  0.26794  1.0000
  H   H2462     1.0  0.78049  0.23915  0.25749  1.0000
  H   H2463     1.0  0.77838  0.29521  0.24974  1.0000
  H   H2464     1.0  0.75857  0.99729  0.38806  1.0000
  H   H2465     1.0  0.94590  0.06562  0.42475  1.0000
  H   H2466     1.0  0.97571  0.21581  0.42504  1.0000
  C   C2071     1.0  0.97306  0.17180  0.41912  1.0000
  C   C2072     1.0  0.78859  0.48122  0.40155  1.0000
  Fe  Fe287     1.0  0.82951  0.46340  0.45364  1.0000
  C   C2073     1.0  0.67290  0.41238  0.36515  1.0000
  Fe  Fe288     1.0  0.82516  0.98870  0.44697  1.0000
  C   C2074     1.0  0.66694  0.11407  0.33716  1.0000
  Fe  Fe289     1.0  0.67867  0.17569  0.26314  1.0000
  H   H2467     1.0  0.92521  0.11207  0.43112  1.0000
  H   H2468     1.0  0.74861  0.26369  0.28013  1.0000
  H   H2469     1.0  0.95410  0.07835  0.46388  1.0000
  C   C2075     1.0  0.76420  0.29020  0.25691  1.0000
  H   H2470     1.0  0.75096  0.30125  0.25295  1.0000
  S   S566      1.0  0.76981  0.47521  0.37666  1.0000
  C   C2076     1.0  0.77211  0.20360  0.23632  1.0000
  C   C2077     1.0  0.95365  0.09124  0.45380  1.0000
  H   H2471     1.0  0.91067  0.41690  0.45144  1.0000
  C   C2078     1.0  0.75848  0.26801  0.23885  1.0000
  C   C2079     1.0  0.90197  0.39149  0.44219  1.0000
  H   H2472     1.0  0.96847  0.23683  0.43634  1.0000
  N   N135      1.0  0.81842  0.20304  0.34277  1.0000
  C   C2080     1.0  0.83387  0.19881  0.32872  1.0000
  C   C2081     1.0  0.80924  0.22497  0.34046  1.0000
  C   C2082     1.0  0.82940  0.19972  0.35695  1.0000
  C   C2083     1.0  0.80229  0.18993  0.34428  1.0000
  C   C2084     1.0  0.78985  0.19219  0.33198  1.0000
  C   C2085     1.0  0.79864  0.17450  0.35757  1.0000
  C   C2086     1.0  0.77463  0.17994  0.33293  1.0000
  C   C2087     1.0  0.78338  0.16227  0.35839  1.0000
  C   C2088     1.0  0.77141  0.16500  0.34611  1.0000
  H   H2473     1.0  0.84620  0.20858  0.32699  1.0000
  H   H2474     1.0  0.84123  0.18251  0.33008  1.0000
  H   H2475     1.0  0.82707  0.20178  0.31741  1.0000
  H   H2476     1.0  0.82074  0.23531  0.34010  1.0000
  H   H2477     1.0  0.79660  0.22846  0.35027  1.0000
  H   H2478     1.0  0.80274  0.22955  0.32906  1.0000
  H   H2479     1.0  0.83772  0.18384  0.35895  1.0000
  H   H2480     1.0  0.84122  0.21010  0.35536  1.0000
  H   H2481     1.0  0.81872  0.20294  0.36796  1.0000
  H   H2482     1.0  0.79181  0.20349  0.32148  1.0000
  H   H2483     1.0  0.80735  0.17154  0.36746  1.0000
  H   H2484     1.0  0.76531  0.18208  0.32336  1.0000
  H   H2485     1.0  0.78082  0.15056  0.36861  1.0000
  H   H2486     1.0  0.75962  0.15550  0.34677  1.0000
  H   H2487     1.0  0.88890  0.43209  0.43361  1.0000
  C   C2089     1.0  0.79978  0.47515  0.41462  1.0000
  C   C2090     1.0  0.72640  0.20392  0.24190  1.0000
  S   S567      1.0  0.76409  0.47213  0.30264  1.0000
  H   H2488     1.0  0.94431  0.05648  0.44587  1.0000
  C   C2091     1.0  0.83449  0.25779  0.22319  1.0000
  H   H2489     1.0  0.87547  0.38534  0.42207  1.0000
  C   C2092     1.0  0.94343  0.07055  0.43681  1.0000
  H   H2490     1.0  0.73362  0.20325  0.25281  1.0000
  C   C2093     1.0  0.66583  0.43266  0.36771  1.0000
  H   H2491     1.0  0.97881  0.05720  0.44729  1.0000
  H   H2492     1.0  0.93568  0.34715  0.43735  1.0000
  H   H2493     1.0  0.67237  0.06295  0.30366  1.0000
  C   C2094     1.0  0.93922  0.11489  0.42342  1.0000
  H   H2494     1.0  0.72971  0.25503  0.24480  1.0000
  C   C2095     1.0  0.86850  0.38892  0.43420  1.0000
  H   H2495     1.0  0.69024  0.40467  0.39712  1.0000
  H   H2496     1.0  0.79493  0.25987  0.25033  1.0000
  C   C2096     1.0  0.65956  0.39755  0.36927  1.0000
  H   H2497     1.0  0.68750  0.44139  0.39900  1.0000
  S   S568      1.0  0.82446  0.00373  0.46899  1.0000
  C   C2097     1.0  0.86985  0.40617  0.45626  1.0000
  C   C2098     1.0  0.66154  0.40090  0.41220  1.0000
  C   C2099     1.0  0.74111  0.26073  0.23547  1.0000
  N   N136      1.0  0.85597  0.31668  0.33833  1.0000
  C   C2100     1.0  0.87815  0.31792  0.33646  1.0000
  C   C2101     1.0  0.85168  0.29958  0.35131  1.0000
  C   C2102     1.0  0.85117  0.31125  0.32339  1.0000
  C   C2103     1.0  0.84404  0.33678  0.34141  1.0000
  C   C2104     1.0  0.84606  0.35447  0.32986  1.0000
  C   C2105     1.0  0.83023  0.33948  0.35569  1.0000
  C   C2106     1.0  0.83495  0.37360  0.33242  1.0000
  C   C2107     1.0  0.81920  0.35872  0.35810  1.0000
  C   C2108     1.0  0.82158  0.37572  0.34652  1.0000
  H   H2498     1.0  0.88220  0.32286  0.34720  1.0000
  H   H2499     1.0  0.88765  0.30285  0.33481  1.0000
  H   H2500     1.0  0.88305  0.32895  0.32588  1.0000
  H   H2501     1.0  0.86079  0.28468  0.34852  1.0000
  H   H2502     1.0  0.83530  0.29742  0.35297  1.0000
  H   H2503     1.0  0.85572  0.30215  0.36285  1.0000
  H   H2504     1.0  0.85604  0.32194  0.31257  1.0000
  H   H2505     1.0  0.85875  0.29562  0.32121  1.0000
  H   H2506     1.0  0.83441  0.31170  0.32396  1.0000
  H   H2507     1.0  0.85588  0.35355  0.31857  1.0000
  H   H2508     1.0  0.82728  0.32697  0.36504  1.0000
  H   H2509     1.0  0.83616  0.38674  0.32320  1.0000
  H   H2510     1.0  0.80806  0.36043  0.36873  1.0000
  H   H2511     1.0  0.81234  0.39040  0.34822  1.0000
  H   H2512     1.0  0.83292  0.98893  0.38557  1.0000
  S   S569      1.0  0.86320  0.46007  0.45497  1.0000
  H   H2513     1.0  0.67515  0.11354  0.34755  1.0000
  H   H2514     1.0  0.72118  0.22028  0.23758  1.0000
  H   H2515     1.0  0.74397  0.24600  0.26822  1.0000
  H   H2516     1.0  0.86961  0.39206  0.46522  1.0000
  S   S570      1.0  0.67805  0.10485  0.29316  1.0000
  S   S571      1.0  0.67406  0.19264  0.23854  1.0000
  H   H2517     1.0  0.96888  0.22682  0.46386  1.0000
  H   H2518     1.0  0.66015  0.15334  0.23941  1.0000
  H   H2519     1.0  0.88291  0.26991  0.23415  1.0000
  H   H2520     1.0  0.78027  0.01337  0.40185  1.0000
  C   C2109     1.0  0.66262  0.03877  0.35961  1.0000
  H   H2521     1.0  0.66515  0.38195  0.36715  1.0000
  H   H2522     1.0  0.66350  0.38506  0.41040  1.0000
  H   H2523     1.0  0.76500  0.29195  0.26951  1.0000
  H   H2524     1.0  0.96126  0.30234  0.43024  1.0000
  Fe  Fe290     1.0  0.66530  0.17907  0.29863  1.0000
  C   C2110     1.0  0.78997  0.21264  0.23236  1.0000
  C   C2111     1.0  0.95793  0.10167  0.42527  1.0000
  C   C2112     1.0  0.97272  0.14600  0.44287  1.0000
  N   N137      1.0  0.95862  0.08379  0.43807  1.0000
  H   H2525     1.0  0.88704  0.07216  0.46104  1.0000
  C   C2113     1.0  0.96268  0.16264  0.43339  1.0000
  C   C2114     1.0  0.88128  0.42100  0.42926  1.0000
  H   H2526     1.0  0.86555  0.42896  0.42761  1.0000
  H   H2527     1.0  0.96479  0.10127  0.45503  1.0000
  S   S572      1.0  0.87032  0.03547  0.46096  1.0000
  H   H2528     1.0  0.88963  0.41821  0.41728  1.0000
  H   H2529     1.0  0.73059  0.27214  0.26634  1.0000
  H   H2530     1.0  0.71257  0.19630  0.24588  1.0000
  H   H2531     1.0  0.85271  0.39715  0.43304  1.0000
  N   N138      1.0  0.76215  0.26888  0.25533  1.0000
  H   H2532     1.0  0.79996  0.21192  0.24127  1.0000
  H   H2533     1.0  0.97513  0.27911  0.40989  1.0000
  H   H2534     1.0  0.86670  0.37437  0.44240  1.0000
  C   C2115     1.0  0.93833  0.13244  0.41197  1.0000
  H   H2535     1.0  0.98630  0.23923  0.41844  1.0000
  H   H2536     1.0  0.85372  0.41359  0.45557  1.0000
  C   C2116     1.0  0.77247  0.27490  0.22553  1.0000
  H   H2537     1.0  0.98387  0.06480  0.42608  1.0000
  H   H2538     1.0  0.95535  0.15130  0.39349  1.0000
  H   H2539     1.0  0.98580  0.22862  0.31557  1.0000
  H   H2540     1.0  0.97565  0.26569  0.31004  1.0000
  H   H2541     1.0  0.79830  0.48513  0.32989  1.0000
  H   H2542     1.0  0.98885  0.24973  0.28777  1.0000
  H   H2543     1.0  0.93815  0.10037  0.45546  1.0000
  C   C2117     1.0  0.97762  0.29900  0.42680  1.0000
  S   S573      1.0  0.95959  0.19160  0.40695  1.0000
  S   S574      1.0  0.97873  0.21155  0.36114  1.0000
  C   C2118     1.0  0.93558  0.39271  0.44972  1.0000
  H   H2544     1.0  0.90069  0.36235  0.43391  1.0000
  C   C2119     1.0  0.67841  0.05055  0.35515  1.0000
  C   C2120     1.0  0.95596  0.13732  0.40201  1.0000
  C   C2121     1.0  0.97633  0.21110  0.46446  1.0000
  H   H2545     1.0  0.83986  0.24152  0.22379  1.0000
  S   S575      1.0  0.85791  0.99311  0.43807  1.0000
  C   C2122     1.0  0.66075  0.16143  0.22733  1.0000
  Fe  Fe291     1.0  0.97727  0.21160  0.38756  1.0000
  C   C2123     1.0  0.98157  0.22832  0.42922  1.0000
  H   H2546     1.0  0.95028  0.48422  0.46714  1.0000
  N   N139      1.0  0.74038  0.19390  0.22921  1.0000
  C   C2124     1.0  0.98544  0.28582  0.41527  1.0000
  H   H2547     1.0  0.73274  0.16347  0.23762  1.0000
  C   C2125     1.0  0.74611  0.17193  0.23544  1.0000
  H   H2548     1.0  0.98833  0.12894  0.39600  1.0000
  H   H2549     1.0  0.75805  0.16423  0.22683  1.0000
  C   C2126     1.0  0.76549  0.98858  0.39813  1.0000
  C   C2127     1.0  0.75898  0.20392  0.22478  1.0000
  C   C2128     1.0  0.66736  0.18061  0.22371  1.0000
  H   H2550     1.0  0.77776  0.47988  0.23014  1.0000
  C   C2129     1.0  0.78731  0.98662  0.41900  1.0000
  H   H2551     1.0  0.80686  0.99520  0.36811  1.0000
  C   C2130     1.0  0.65857  0.44253  0.41441  1.0000
  H   H2552     1.0  0.66264  0.13056  0.33248  1.0000
  C   C2131     1.0  0.76133  0.48611  0.23302  1.0000
  H   H2553     1.0  0.99026  0.26750  0.32497  1.0000
  H   H2554     1.0  0.65738  0.45878  0.41495  1.0000
  C   C2132     1.0  0.86646  0.04065  0.50860  1.0000
  H   H2555     1.0  0.74266  0.01009  0.60566  1.0000
  S   S576      1.0  0.96761  0.18792  0.63718  1.0000
  H   H2556     1.0  0.89933  0.16707  0.65941  1.0000
  H   H2557     1.0  0.78092  0.02102  0.68409  1.0000
  H   H2558     1.0  0.75593  0.00191  0.63071  1.0000
  H   H2559     1.0  0.89980  0.00845  0.47976  1.0000
  H   H2560     1.0  0.88213  0.18311  0.64694  1.0000
  S   S577      1.0  0.96084  0.11139  0.48684  1.0000
  C   C2133     1.0  0.83523  0.44457  0.52674  1.0000
  S   S578      1.0  0.97939  0.21008  0.58980  1.0000
  Fe  Fe292     1.0  0.96292  0.07705  0.49396  1.0000
  H   H2561     1.0  0.83179  0.02411  0.50543  1.0000
  C   C2134     1.0  0.98551  0.48421  0.48021  1.0000
  C   C2135     1.0  0.86046  0.16223  0.67181  1.0000
  H   H2562     1.0  0.68821  0.43990  0.53531  1.0000
  S   S579      1.0  0.71210  0.99845  0.63392  1.0000
  S   S580      1.0  0.84961  0.21799  0.71316  1.0000
  H   H2563     1.0  0.86800  0.17660  0.69803  1.0000
  Fe  Fe293     1.0  0.88296  0.22204  0.70792  1.0000
  S   S581      1.0  0.89598  0.23417  0.68255  1.0000
  C   C2136     1.0  0.69513  0.15568  0.66420  1.0000
  N   N140      1.0  0.87093  0.17988  0.67228  1.0000
  H   H2564     1.0  0.69522  0.44955  0.55165  1.0000
  H   H2565     1.0  0.73515  0.99715  0.68394  1.0000
  H   H2566     1.0  0.79033  0.40293  0.56735  1.0000
  S   S582      1.0  0.87089  0.42066  0.49382  1.0000
  H   H2567     1.0  0.98349  0.31961  0.52695  1.0000
  H   H2568     1.0  0.96775  0.25166  0.54863  1.0000
  H   H2569     1.0  0.97799  0.16919  0.56899  1.0000
  Fe  Fe294     1.0  0.75368  0.07185  0.68523  1.0000
  C   C2137     1.0  0.90821  0.43384  0.48391  1.0000
  S   S583      1.0  0.76104  0.05364  0.66394  1.0000
  Fe  Fe295     1.0  0.76973  0.10509  0.69940  1.0000
  C   C2138     1.0  0.90303  0.02397  0.47849  1.0000
  S   S584      1.0  0.78659  0.13281  0.69235  1.0000
  C   C2139     1.0  0.68398  0.18393  0.71120  1.0000
  Fe  Fe296     1.0  0.72589  0.09812  0.70883  1.0000
  S   S585      1.0  0.69376  0.11387  0.71587  1.0000
  S   S586      1.0  0.78092  0.07177  0.69761  1.0000
  S   S587      1.0  0.74430  0.10595  0.68488  1.0000
  S   S588      1.0  0.71496  0.42388  0.71246  1.0000
  C   C2140     1.0  0.83549  0.42456  0.53452  1.0000
  H   H2570     1.0  0.83529  0.99796  0.50252  1.0000
  C   C2141     1.0  0.85637  0.19933  0.67094  1.0000
  S   S589      1.0  0.73300  0.06414  0.70807  1.0000
  S   S590      1.0  0.73793  0.45421  0.55851  1.0000
  Fe  Fe297     1.0  0.71723  0.45405  0.61815  1.0000
  H   H2571     1.0  0.74520  0.31650  0.69304  1.0000
  S   S591      1.0  0.73485  0.43228  0.63629  1.0000
  C   C2142     1.0  0.82317  0.42048  0.54920  1.0000
  C   C2143     1.0  0.81096  0.12634  0.71648  1.0000
  S   S592      1.0  0.70498  0.44293  0.59869  1.0000
  C   C2144     1.0  0.88191  0.01760  0.52975  1.0000
  C   C2145     1.0  0.82264  0.46059  0.53356  1.0000
  H   H2572     1.0  0.68435  0.13190  0.68207  1.0000
  H   H2573     1.0  0.71312  0.44735  0.53379  1.0000
  H   H2574     1.0  0.70425  0.07144  0.63065  1.0000
  C   C2146     1.0  0.71982  0.42487  0.69132  1.0000
  C   C2147     1.0  0.73678  0.41298  0.68382  1.0000
  C   C2148     1.0  0.74101  0.41530  0.66697  1.0000
  C   C2149     1.0  0.72826  0.42934  0.65744  1.0000
  C   C2150     1.0  0.71109  0.44097  0.66493  1.0000
  C   C2151     1.0  0.70698  0.43883  0.68178  1.0000
  H   H2575     1.0  0.74685  0.40229  0.69100  1.0000
  H   H2576     1.0  0.75432  0.40622  0.66130  1.0000
  H   H2577     1.0  0.70103  0.45165  0.65776  1.0000
  H   H2578     1.0  0.69388  0.44814  0.68749  1.0000
  C   C2152     1.0  0.74735  0.03703  0.65698  1.0000
  C   C2153     1.0  0.72625  0.03729  0.66129  1.0000
  C   C2154     1.0  0.71579  0.02525  0.65422  1.0000
  C   C2155     1.0  0.72628  0.01260  0.64294  1.0000
  C   C2156     1.0  0.74750  0.01184  0.63906  1.0000
  C   C2157     1.0  0.75790  0.02409  0.64594  1.0000
  H   H2579     1.0  0.71786  0.04723  0.66967  1.0000
  H   H2580     1.0  0.69940  0.02592  0.65738  1.0000
  H   H2581     1.0  0.77422  0.02371  0.64255  1.0000
  H   H2582     1.0  0.75383  0.33233  0.70488  1.0000
  H   H2583     1.0  0.83046  0.32077  0.71456  1.0000
  C   C2158     1.0  0.77248  0.29580  0.71296  1.0000
  C   C2159     1.0  0.76490  0.45685  0.53071  1.0000
  C   C2160     1.0  0.77774  0.46671  0.51817  1.0000
  H   H2584     1.0  0.76347  0.44097  0.53076  1.0000
  H   H2585     1.0  0.78611  0.45841  0.50871  1.0000
  H   H2586     1.0  0.78094  0.30868  0.71324  1.0000
  C   C2161     1.0  0.74133  0.47367  0.67364  1.0000
  Fe  Fe298     1.0  0.98631  0.20331  0.61522  1.0000
  S   S593      1.0  0.97632  0.07799  0.51628  1.0000
  C   C2162     1.0  0.70463  0.27437  0.71668  1.0000
  H   H2587     1.0  0.77393  0.02336  0.59046  1.0000
  H   H2588     1.0  0.68804  0.27790  0.71801  1.0000
  H   H2589     1.0  0.70980  0.14656  0.66101  1.0000
  H   H2590     1.0  0.82887  0.14705  0.64957  1.0000
  H   H2591     1.0  0.84271  0.19844  0.68024  1.0000
  H   H2592     1.0  0.73462  0.00346  0.70974  1.0000
  H   H2593     1.0  0.79530  0.46076  0.58048  1.0000
  H   H2594     1.0  0.76874  0.07268  0.62347  1.0000
  H   H2595     1.0  0.88201  0.98904  0.50288  1.0000
  C   C2163     1.0  0.80350  0.13974  0.70370  1.0000
  C   C2164     1.0  0.80973  0.15921  0.69963  1.0000
  C   C2165     1.0  0.82344  0.16519  0.70818  1.0000
  H   H2596     1.0  0.85102  0.20337  0.65906  1.0000
  H   H2597     1.0  0.88633  0.19244  0.68779  1.0000
  H   H2598     1.0  0.80400  0.16966  0.68974  1.0000
  H   H2599     1.0  0.82802  0.18022  0.70505  1.0000
  H   H2600     1.0  0.75225  0.45000  0.69194  1.0000
  H   H2601     1.0  0.87728  0.06987  0.50225  1.0000
  S   S594      1.0  0.97971  0.26735  0.57465  1.0000
  Fe  Fe299     1.0  0.67932  0.46895  0.60140  1.0000
  H   H2602     1.0  0.72805  0.32777  0.70880  1.0000
  H   H2603     1.0  0.70813  0.30420  0.72018  1.0000
  H   H2604     1.0  0.77379  0.42524  0.56008  1.0000
  C   C2166     1.0  0.71416  0.25487  0.71385  1.0000
  C   C2167     1.0  0.87982  0.17840  0.68730  1.0000
  C   C2168     1.0  0.81024  0.43646  0.55659  1.0000
  Fe  Fe300     1.0  0.85502  0.44984  0.48114  1.0000
  C   C2169     1.0  0.90893  0.39766  0.49361  1.0000
  S   S595      1.0  0.98138  0.34534  0.48651  1.0000
  H   H2605     1.0  0.90091  0.38474  0.49834  1.0000
  H   H2606     1.0  0.93896  0.37964  0.49388  1.0000
  C   C2170     1.0  0.78259  0.41826  0.57010  1.0000
  H   H2607     1.0  0.77081  0.00449  0.52977  1.0000
  C   C2171     1.0  0.94858  0.20150  0.65001  1.0000
  C   C2172     1.0  0.93979  0.22161  0.64519  1.0000
  C   C2173     1.0  0.92396  0.23154  0.65545  1.0000
  C   C2174     1.0  0.91713  0.22167  0.67073  1.0000
  C   C2175     1.0  0.92654  0.20184  0.67580  1.0000
  C   C2176     1.0  0.94192  0.19168  0.66536  1.0000
  H   H2608     1.0  0.94480  0.22933  0.63341  1.0000
  H   H2609     1.0  0.91682  0.24690  0.65144  1.0000
  H   H2610     1.0  0.92173  0.19418  0.68763  1.0000
  H   H2611     1.0  0.94862  0.17610  0.66917  1.0000
  C   C2177     1.0  0.92969  0.43101  0.48173  1.0000
  Fe  Fe301     1.0  0.72133  0.46603  0.58138  1.0000
  H   H2612     1.0  0.66927  0.44380  0.57597  1.0000
  C   C2178     1.0  0.89211  0.05114  0.52114  1.0000
  C   C2179     1.0  0.91185  0.06416  0.47526  1.0000
  C   C2180     1.0  0.78520  0.45008  0.57851  1.0000
  N   N141      1.0  0.75000  0.30176  0.71677  1.0000
  H   H2613     1.0  0.98510  0.22030  0.67199  1.0000
  H   H2614     1.0  0.82373  0.40467  0.55464  1.0000
  C   C2181     1.0  0.81024  0.45672  0.54824  1.0000
  H   H2615     1.0  0.83143  0.01419  0.53462  1.0000
  H   H2616     1.0  0.84009  0.28309  0.72133  1.0000
  H   H2617     1.0  0.95705  0.15350  0.55421  1.0000
  H   H2618     1.0  0.85328  0.01394  0.49177  1.0000
  H   H2619     1.0  0.97027  0.45800  0.47938  1.0000
  H   H2620     1.0  0.70780  0.05158  0.60864  1.0000
  C   C2182     1.0  0.83819  0.14631  0.65893  1.0000
  N   N142      1.0  0.74285  0.03809  0.58930  1.0000
  C   C2183     1.0  0.76427  0.03269  0.58167  1.0000
  C   C2184     1.0  0.75401  0.46735  0.54314  1.0000
  C   C2185     1.0  0.73086  0.04942  0.57664  1.0000
  C   C2186     1.0  0.74090  0.05054  0.60243  1.0000
  C   C2187     1.0  0.75797  0.05703  0.60704  1.0000
  C   C2188     1.0  0.72142  0.05634  0.61118  1.0000
  C   C2189     1.0  0.75551  0.06851  0.61967  1.0000
  C   C2190     1.0  0.71917  0.06782  0.62378  1.0000
  C   C2191     1.0  0.73618  0.07390  0.62800  1.0000
  C   C2192     1.0  0.83912  0.12934  0.67080  1.0000
  H   H2621     1.0  0.73687  0.00848  0.58620  1.0000
  H   H2622     1.0  0.77122  0.04659  0.57608  1.0000
  H   H2623     1.0  0.89586  0.19445  0.65852  1.0000
  H   H2624     1.0  0.71812  0.02091  0.60012  1.0000
  H   H2625     1.0  0.96565  0.30056  0.55124  1.0000
  H   H2626     1.0  0.73605  0.06448  0.57188  1.0000
  H   H2627     1.0  0.73239  0.04058  0.56642  1.0000
  H   H2628     1.0  0.71423  0.05238  0.58108  1.0000
  H   H2629     1.0  0.77343  0.05309  0.60135  1.0000
  H   H2630     1.0  0.90485  0.02909  0.53941  1.0000
  H   H2631     1.0  0.66095  0.40605  0.59837  1.0000
  C   C2193     1.0  0.91862  0.02835  0.48609  1.0000
  H   H2632     1.0  0.73453  0.08212  0.63816  1.0000
  Fe  Fe302     1.0  0.97719  0.11155  0.50796  1.0000
  H   H2633     1.0  0.84525  0.41220  0.52896  1.0000
  C   C2194     1.0  0.93045  0.39474  0.49109  1.0000
  H   H2634     1.0  0.86352  0.21266  0.67249  1.0000
  H   H2635     1.0  0.87002  0.14263  0.69346  1.0000
  C   C2195     1.0  0.85100  0.12825  0.68291  1.0000
  C   C2196     1.0  0.84887  0.16244  0.65928  1.0000
  H   H2636     1.0  0.77569  0.44597  0.59021  1.0000
  C   C2197     1.0  0.66900  0.17284  0.72011  1.0000
  C   C2198     1.0  0.73206  0.47445  0.70213  1.0000
  C   C2199     1.0  0.67208  0.15131  0.72147  1.0000
  C   C2200     1.0  0.70509  0.15196  0.70510  1.0000
  H   H2637     1.0  0.65833  0.42494  0.55690  1.0000
  H   H2638     1.0  0.85138  0.11516  0.69228  1.0000
  Fe  Fe303     1.0  0.81881  0.48368  0.48445  1.0000
  H   H2639     1.0  0.84781  0.17517  0.64973  1.0000
  H   H2640     1.0  0.95460  0.24209  0.53516  1.0000
  C   C2201     1.0  0.74306  0.46487  0.68946  1.0000
  C   C2202     1.0  0.86161  0.14435  0.68346  1.0000
  S   S596      1.0  0.85180  0.48134  0.48793  1.0000
  H   H2641     1.0  0.70751  0.47294  0.50871  1.0000
  H   H2642     1.0  0.95761  0.20221  0.48678  1.0000
  C   C2203     1.0  0.67187  0.18756  0.66096  1.0000
  C   C2204     1.0  0.88775  0.18116  0.65870  1.0000
  H   H2643     1.0  0.93767  0.44398  0.47720  1.0000
  H   H2644     1.0  0.96894  0.27134  0.52395  1.0000
  H   H2645     1.0  0.79759  0.99345  0.50787  1.0000
  H   H2646     1.0  0.82217  0.47610  0.52723  1.0000
  S   S597      1.0  0.96622  0.13475  0.52549  1.0000
  C   C2205     1.0  0.70186  0.17346  0.70351  1.0000
  H   H2647     1.0  0.76513  0.02317  0.57195  1.0000
  S   S598      1.0  0.89378  0.19155  0.72148  1.0000
  C   C2206     1.0  0.74757  0.01226  0.70525  1.0000
  C   C2207     1.0  0.98462  0.21216  0.52726  1.0000
  S   S599      1.0  0.82166  0.45122  0.47977  1.0000
  C   C2208     1.0  0.86810  0.02115  0.51830  1.0000
  C   C2209     1.0  0.84366  0.01058  0.50354  1.0000
  C   C2210     1.0  0.69023  0.14081  0.71412  1.0000
  H   H2648     1.0  0.74962  0.46487  0.66448  1.0000
  C   C2211     1.0  0.74398  0.32031  0.70537  1.0000
  C   C2212     1.0  0.92311  0.04845  0.48457  1.0000
  H   H2649     1.0  0.97339  0.16578  0.48909  1.0000
  C   C2213     1.0  0.89386  0.03234  0.53099  1.0000
  N   N143      1.0  0.68846  0.47260  0.53177  1.0000
  H   H2650     1.0  0.79886  0.00267  0.69438  1.0000
  H   H2651     1.0  0.90189  0.06229  0.52174  1.0000
  C   C2214     1.0  0.66655  0.47699  0.53841  1.0000
  H   H2652     1.0  0.97455  0.21613  0.51774  1.0000
  H   H2653     1.0  0.71328  0.18200  0.69631  1.0000
  H   H2654     1.0  0.92712  0.01610  0.49336  1.0000
  H   H2655     1.0  0.66906  0.20290  0.65461  1.0000
  S   S600      1.0  0.73574  0.47495  0.60052  1.0000
  C   C2215     1.0  0.73802  0.28541  0.71584  1.0000
  C   C2216     1.0  0.74728  0.26522  0.71323  1.0000
  C   C2217     1.0  0.73542  0.25028  0.71218  1.0000
  C   C2218     1.0  0.81015  0.42076  0.58432  1.0000
  H   H2656     1.0  0.98255  0.29560  0.50227  1.0000
  H   H2657     1.0  0.71888  0.14400  0.69907  1.0000
  H   H2658     1.0  0.89256  0.16542  0.68844  1.0000
  N   N144      1.0  0.79723  0.43166  0.57210  1.0000
  C   C2219     1.0  0.98198  0.29661  0.54799  1.0000
  H   H2659     1.0  0.89972  0.44896  0.48114  1.0000
  H   H2660     1.0  0.80052  0.46985  0.55257  1.0000
  H   H2661     1.0  0.77429  0.45854  0.57037  1.0000
  H   H2662     1.0  0.84470  0.44759  0.51532  1.0000
  C   C2220     1.0  0.97295  0.15440  0.54956  1.0000
  H   H2663     1.0  0.82200  0.42999  0.58559  1.0000
  C   C2221     1.0  0.73475  0.01863  0.59558  1.0000
  H   H2664     1.0  0.74449  0.18387  0.70857  1.0000
  C   C2222     1.0  0.87827  0.05537  0.51012  1.0000
  H   H2665     1.0  0.83027  0.11718  0.67083  1.0000
  H   H2666     1.0  0.77125  0.41569  0.58105  1.0000
  H   H2667     1.0  0.77677  0.29131  0.70077  1.0000
  C   C2223     1.0  0.98163  0.14626  0.53541  1.0000
  C   C2224     1.0  0.83143  0.15152  0.72063  1.0000
  S   S601      1.0  0.68142  0.21077  0.70992  1.0000
  N   N145      1.0  0.85632  0.00491  0.51676  1.0000
  H   H2668     1.0  0.73280  0.46700  0.71433  1.0000
  C   C2225     1.0  0.89779  0.41722  0.49012  1.0000
  H   H2669     1.0  0.80087  0.41765  0.59629  1.0000
  C   C2226     1.0  0.69659  0.45141  0.53834  1.0000
  H   H2670     1.0  0.83317  0.98821  0.53100  1.0000
  H   H2671     1.0  0.81822  0.40564  0.58133  1.0000
  S   S602      1.0  0.94145  0.05325  0.49583  1.0000
  H   H2672     1.0  0.74276  0.23506  0.70999  1.0000
  H   H2673     1.0  0.70499  0.24331  0.71294  1.0000
  C   C2227     1.0  0.84237  0.00032  0.53183  1.0000
  H   H2674     1.0  0.74383  0.02349  0.69458  1.0000
  H   H2675     1.0  0.76365  0.26058  0.71192  1.0000
  H   H2676     1.0  0.80628  0.11132  0.71973  1.0000
  C   C2228     1.0  0.69069  0.17570  0.65663  1.0000
  H   H2677     1.0  0.68498  0.46208  0.50981  1.0000
  C   C2229     1.0  0.94086  0.41149  0.48538  1.0000
  C   C2230     1.0  0.96976  0.19715  0.47762  1.0000
  C   C2231     1.0  0.96688  0.23806  0.54294  1.0000
  H   H2678     1.0  0.78351  0.02253  0.70441  1.0000
  Fe  Fe304     1.0  0.75974  0.06531  0.72057  1.0000
  H   H2679     1.0  0.96187  0.22622  0.55293  1.0000
  H   H2680     1.0  0.71723  0.48411  0.52973  1.0000
  H   H2681     1.0  0.66189  0.34131  0.72094  1.0000
  H   H2682     1.0  0.94768  0.47945  0.49624  1.0000
  H   H2683     1.0  0.74406  0.15659  0.71170  1.0000
  S   S603      1.0  0.69023  0.47848  0.62240  1.0000
  H   H2684     1.0  0.73243  0.47456  0.64247  1.0000
  H   H2685     1.0  0.70193  0.18207  0.64741  1.0000
  H   H2686     1.0  0.91460  0.07977  0.47442  1.0000
  C   C2232     1.0  0.75080  0.16901  0.71521  1.0000
  C   C2233     1.0  0.66201  0.15924  0.68064  1.0000
  H   H2687     1.0  0.70246  0.48426  0.54877  1.0000
  C   C2234     1.0  0.78332  0.01168  0.69585  1.0000
  H   H2688     1.0  0.98435  0.18505  0.68355  1.0000
  H   H2689     1.0  0.85669  0.04476  0.49934  1.0000
  H   H2690     1.0  0.88385  0.00325  0.53764  1.0000
  C   C2235     1.0  0.98334  0.26610  0.51709  1.0000
  N   N146      1.0  0.76709  0.99854  0.70153  1.0000
  C   C2236     1.0  0.71631  0.28939  0.71776  1.0000
  C   C2237     1.0  0.98477  0.16335  0.55795  1.0000
  C   C2238     1.0  0.69106  0.47437  0.51402  1.0000
  S   S604      1.0  0.96774  0.40883  0.48297  1.0000
  H   H2691     1.0  0.85076  0.99464  0.54224  1.0000
  H   H2692     1.0  0.98715  0.17593  0.66491  1.0000
  Fe  Fe305     1.0  0.98722  0.37810  0.48012  1.0000
  H   H2693     1.0  0.97782  0.20071  0.53671  1.0000
  C   C2239     1.0  0.97858  0.17662  0.47893  1.0000
  H   H2694     1.0  0.74842  0.02139  0.71484  1.0000
  C   C2240     1.0  0.78000  0.98956  0.53148  1.0000
  H   H2695     1.0  0.98671  0.21402  0.65235  1.0000
  H   H2696     1.0  0.76741  0.16623  0.71079  1.0000
  N   N147      1.0  0.98693  0.23070  0.53384  1.0000
  C   C2241     1.0  0.68074  0.14742  0.67604  1.0000
  C   C2242     1.0  0.98458  0.46328  0.47965  1.0000
  S   S605      1.0  0.91495  0.19752  0.75880  1.0000
  S   S606      1.0  0.85773  0.20337  0.75051  1.0000
  C   C2243     1.0  0.95335  0.07746  0.95997  1.0000
  H   H2697     1.0  0.71629  0.16135  0.73509  1.0000
  S   S607      1.0  0.96529  0.24572  0.84271  1.0000
  C   C2244     1.0  0.68483  0.30497  0.75576  1.0000
  Fe  Fe306     1.0  0.84914  0.23319  0.73484  1.0000
  S   S608      1.0  0.94249  0.25258  0.80288  1.0000
  S   S609      1.0  0.76988  0.03653  0.73731  1.0000
  Fe  Fe307     1.0  0.89029  0.20857  0.74259  1.0000
  C   C2245     1.0  0.66579  0.05697  0.85413  1.0000
  H   H2698     1.0  0.67877  0.07254  0.81448  1.0000
  C   C2246     1.0  0.82951  0.35212  0.76166  1.0000
  Fe  Fe308     1.0  0.94897  0.07814  0.87932  1.0000
  S   S610      1.0  0.91538  0.08757  0.88652  1.0000
  H   H2699     1.0  0.98570  0.13045  0.83922  1.0000
  Fe  Fe309     1.0  0.94790  0.03421  0.89680  1.0000
  S   S611      1.0  0.91410  0.04090  0.90486  1.0000
  H   H2700     1.0  0.98795  0.47953  0.95397  1.0000
  Fe  Fe310     1.0  0.91161  0.05722  0.88010  1.0000
  S   S612      1.0  0.89001  0.05483  0.86275  1.0000
  Fe  Fe311     1.0  0.92129  0.07019  0.91069  1.0000
  S   S613      1.0  0.90634  0.07942  0.93471  1.0000
  S   S614      1.0  0.94497  0.04863  0.87149  1.0000
  S   S615      1.0  0.95527  0.06272  0.90398  1.0000
  H   H2701     1.0  0.75185  0.23285  0.74728  1.0000
  C   C2247     1.0  0.82137  0.31237  0.72426  1.0000
  C   C2248     1.0  0.77977  0.18063  0.73564  1.0000
  C   C2249     1.0  0.93435  0.00607  0.84878  1.0000
  C   C2250     1.0  0.82686  0.29102  0.72805  1.0000
  C   C2251     1.0  0.75960  0.21821  0.74402  1.0000
  C   C2252     1.0  0.74832  0.20391  0.74081  1.0000
  H   H2702     1.0  0.96179  0.26001  0.77013  1.0000
  S   S616      1.0  0.77429  0.03154  0.81181  1.0000
  H   H2703     1.0  0.75277  0.43331  0.85490  1.0000
  C   C2253     1.0  0.68466  0.04620  0.85776  1.0000
  S   S617      1.0  0.78187  0.00176  0.85343  1.0000
  S   S618      1.0  0.98675  0.21129  0.81979  1.0000
  S   S619      1.0  0.71408  0.39351  0.75555  1.0000
  H   H2704     1.0  0.71655  0.00612  0.84132  1.0000
  S   S620      1.0  0.75278  0.35852  0.76251  1.0000
  S   S621      1.0  0.77830  0.47940  0.85776  1.0000
  Fe  Fe312     1.0  0.72333  0.36015  0.75276  1.0000
  S   S622      1.0  0.70644  0.33304  0.76260  1.0000
  Fe  Fe313     1.0  0.74499  0.39258  0.76319  1.0000
  S   S623      1.0  0.75302  0.40157  0.78609  1.0000
  C   C2254     1.0  0.70956  0.46384  0.92304  1.0000
  C   C2255     1.0  0.79247  0.31180  0.74528  1.0000
  C   C2256     1.0  0.75434  0.46107  0.80697  1.0000
  C   C2257     1.0  0.76172  0.44177  0.81476  1.0000
  C   C2258     1.0  0.76129  0.42385  0.80813  1.0000
  C   C2259     1.0  0.75374  0.42489  0.79352  1.0000
  C   C2260     1.0  0.74678  0.44420  0.78556  1.0000
  C   C2261     1.0  0.74704  0.46211  0.79226  1.0000
  H   H2705     1.0  0.76769  0.44061  0.82591  1.0000
  H   H2706     1.0  0.76668  0.40903  0.81446  1.0000
  H   H2707     1.0  0.74096  0.44534  0.77432  1.0000
  S   S624      1.0  0.96717  0.09915  0.86088  1.0000
  C   C2262     1.0  0.69937  0.05448  0.83007  1.0000
  C   C2263     1.0  0.74574  0.30727  0.73319  1.0000
  H   H2708     1.0  0.90554  0.03325  0.94359  1.0000
  C   C2264     1.0  0.98126  0.29981  0.90144  1.0000
  H   H2709     1.0  0.92269  0.00293  0.93190  1.0000
  H   H2710     1.0  0.89757  0.99667  0.85898  1.0000
  H   H2711     1.0  0.74393  0.13707  0.73963  1.0000
  N   N148      1.0  0.72041  0.43994  0.86257  1.0000
  H   H2712     1.0  0.75319  0.03964  0.84769  1.0000
  H   H2713     1.0  0.94742  0.01348  0.85026  1.0000
  C   C2265     1.0  0.77097  0.03561  0.75800  1.0000
  C   C2266     1.0  0.76487  0.05294  0.76577  1.0000
  C   C2267     1.0  0.76597  0.05149  0.78225  1.0000
  C   C2268     1.0  0.77321  0.03274  0.79109  1.0000
  C   C2269     1.0  0.77925  0.01541  0.78333  1.0000
  C   C2270     1.0  0.77811  0.01685  0.76687  1.0000
  H   H2714     1.0  0.75934  0.06745  0.75909  1.0000
  H   H2715     1.0  0.76130  0.06497  0.78816  1.0000
  H   H2716     1.0  0.78291  0.00337  0.76098  1.0000
  H   H2717     1.0  0.78490  0.00090  0.78998  1.0000
  H   H2718     1.0  0.68931  0.45403  0.86862  1.0000
  H   H2719     1.0  0.70799  0.46502  0.87602  1.0000
  H   H2720     1.0  0.91312  0.01210  0.87724  1.0000
  H   H2721     1.0  0.74562  0.45282  0.86764  1.0000
  H   H2722     1.0  0.81526  0.39177  0.75121  1.0000
  H   H2723     1.0  0.80997  0.41400  0.80601  1.0000
  C   C2271     1.0  0.70874  0.41320  0.82295  1.0000
  C   C2272     1.0  0.92094  0.07881  0.95026  1.0000
  C   C2273     1.0  0.94215  0.07849  0.94724  1.0000
  C   C2274     1.0  0.71050  0.40100  0.83766  1.0000
  H   H2724     1.0  0.71891  0.03583  0.87431  1.0000
  H   H2725     1.0  0.94992  0.07918  0.93509  1.0000
  H   H2726     1.0  0.79133  0.39237  0.76427  1.0000
  C   C2275     1.0  0.67116  0.29827  0.74758  1.0000
  C   C2276     1.0  0.87369  0.03590  0.86530  1.0000
  C   C2277     1.0  0.87110  0.02218  0.87947  1.0000
  C   C2278     1.0  0.85901  0.00655  0.88062  1.0000
  C   C2279     1.0  0.84903  0.00474  0.86780  1.0000
  C   C2280     1.0  0.85122  0.01876  0.85378  1.0000
  C   C2281     1.0  0.86356  0.03421  0.85253  1.0000
  H   H2727     1.0  0.87843  0.02355  0.88952  1.0000
  C   C2282     1.0  0.75737  0.98951  0.97146  1.0000
  H   H2728     1.0  0.84364  0.01752  0.84382  1.0000
  H   H2729     1.0  0.86536  0.04480  0.84156  1.0000
  H   H2730     1.0  0.69095  0.29494  0.76567  1.0000
  C   C2283     1.0  0.81501  0.27996  0.74038  1.0000
  H   H2731     1.0  0.73196  0.20844  0.74163  1.0000
  H   H2732     1.0  0.94752  0.19035  0.77781  1.0000
  C   C2284     1.0  0.77464  0.47865  0.94278  1.0000
  H   H2733     1.0  0.95865  0.21136  0.79519  1.0000
  H   H2734     1.0  0.79784  0.37449  0.75041  1.0000
  C   C2285     1.0  0.72120  0.99765  0.97110  1.0000
  H   H2735     1.0  0.98809  0.27649  0.88596  1.0000
  H   H2736     1.0  0.71200  0.01253  0.86981  1.0000
  C   C2286     1.0  0.69031  0.32472  0.75137  1.0000
  H   H2737     1.0  0.74292  0.00706  0.84189  1.0000
  Fe  Fe314     1.0  0.96965  0.24306  0.81661  1.0000
  H   H2738     1.0  0.76077  0.99743  0.95901  1.0000
  H   H2739     1.0  0.68714  0.45972  0.94422  1.0000
  N   N149      1.0  0.93037  0.01205  0.95297  1.0000
  C   C2287     1.0  0.97153  0.16601  0.86478  1.0000
  Fe  Fe315     1.0  0.86041  0.18873  0.72835  1.0000
  C   C2288     1.0  0.75382  0.14836  0.74086  1.0000
  C   C2289     1.0  0.96868  0.12479  0.86279  1.0000
  C   C2290     1.0  0.95997  0.13332  0.87665  1.0000
  C   C2291     1.0  0.96150  0.15381  0.87767  1.0000
  C   C2292     1.0  0.68243  0.33756  0.73851  1.0000
  H   H2740     1.0  0.96831  0.27312  0.75062  1.0000
  H   H2741     1.0  0.95222  0.12408  0.88664  1.0000
  H   H2742     1.0  0.95479  0.16026  0.88846  1.0000
  H   H2743     1.0  0.98625  0.27445  0.77930  1.0000
  H   H2744     1.0  0.71193  0.05385  0.82034  1.0000
  C   C2293     1.0  0.72270  0.02404  0.86608  1.0000
  C   C2294     1.0  0.71778  0.47780  0.91049  1.0000
  C   C2295     1.0  0.69335  0.47059  0.93461  1.0000
  C   C2296     1.0  0.92238  0.21309  0.77095  1.0000
  C   C2297     1.0  0.91179  0.23265  0.77275  1.0000
  C   C2298     1.0  0.91802  0.24446  0.78273  1.0000
  C   C2299     1.0  0.93490  0.23687  0.79091  1.0000
  C   C2300     1.0  0.94551  0.21731  0.78909  1.0000
  C   C2301     1.0  0.93919  0.20544  0.77921  1.0000
  H   H2745     1.0  0.89880  0.23867  0.76646  1.0000
  H   H2746     1.0  0.90978  0.25962  0.78402  1.0000
  C   C2302     1.0  0.75811  0.18450  0.73669  1.0000
  H   H2747     1.0  0.94160  0.02995  0.93092  1.0000
  H   H2748     1.0  0.71525  0.39910  0.86172  1.0000
  H   H2749     1.0  0.83713  0.33955  0.76988  1.0000
  S   S625      1.0  0.82038  0.25299  0.74501  1.0000
  C   C2303     1.0  0.78084  0.21375  0.74307  1.0000
  C   C2304     1.0  0.68044  0.06520  0.82658  1.0000
  H   H2750     1.0  0.68515  0.03917  0.87004  1.0000
  Fe  Fe316     1.0  0.76634  0.36613  0.73706  1.0000
  S   S626      1.0  0.75336  0.48431  0.81506  1.0000
  H   H2751     1.0  0.73811  0.01562  0.86813  1.0000
  H   H2752     1.0  0.74141  0.47687  0.78600  1.0000
  S   S627      1.0  0.73855  0.46888  0.89645  1.0000
  H   H2753     1.0  0.91557  0.15412  0.76936  1.0000
  C   C2305     1.0  0.93686  0.00377  0.96881  1.0000
  H   H2754     1.0  0.75375  0.14840  0.75387  1.0000
  C   C2306     1.0  0.94608  0.02358  0.94291  1.0000
  H   H2755     1.0  0.74017  0.05350  0.83199  1.0000
  H   H2756     1.0  0.77929  0.31966  0.75207  1.0000
  H   H2757     1.0  0.65823  0.31137  0.79974  1.0000
  H   H2758     1.0  0.72928  0.31272  0.73669  1.0000
  H   H2759     1.0  0.73321  0.41247  0.87689  1.0000
  N   N150      1.0  0.90472  0.14581  0.79446  1.0000
  C   C2307     1.0  0.92081  0.14458  0.78032  1.0000
  C   C2308     1.0  0.88564  0.14148  0.78978  1.0000
  C   C2309     1.0  0.90079  0.16709  0.79828  1.0000
  C   C2310     1.0  0.91171  0.13151  0.80835  1.0000
  C   C2311     1.0  0.93007  0.13333  0.81392  1.0000
  C   C2312     1.0  0.90077  0.11555  0.81670  1.0000
  C   C2313     1.0  0.93722  0.11982  0.82680  1.0000
  C   C2314     1.0  0.90803  0.10220  0.82965  1.0000
  C   C2315     1.0  0.92625  0.10428  0.83463  1.0000
  H   H2760     1.0  0.92527  0.12852  0.77773  1.0000
  H   H2761     1.0  0.74135  0.45851  0.84723  1.0000
  H   H2762     1.0  0.93486  0.15032  0.78191  1.0000
  H   H2763     1.0  0.88767  0.12584  0.78632  1.0000
  H   H2764     1.0  0.88096  0.15239  0.77920  1.0000
  H   H2765     1.0  0.87255  0.14303  0.79957  1.0000
  H   H2766     1.0  0.91491  0.17242  0.80020  1.0000
  H   H2767     1.0  0.89468  0.17820  0.78834  1.0000
  H   H2768     1.0  0.88945  0.16844  0.80925  1.0000
  H   H2769     1.0  0.93914  0.14516  0.80830  1.0000
  H   H2770     1.0  0.88663  0.11290  0.81346  1.0000
  H   H2771     1.0  0.95136  0.12134  0.83084  1.0000
  H   H2772     1.0  0.89956  0.09004  0.83589  1.0000
  H   H2773     1.0  0.93187  0.09386  0.84465  1.0000
  H   H2774     1.0  0.73089  0.02229  0.82610  1.0000
  C   C2316     1.0  0.92575  0.99895  0.87741  1.0000
  H   H2775     1.0  0.78956  0.22483  0.74559  1.0000
  H   H2776     1.0  0.66051  0.14273  0.72843  1.0000
  N   N151      1.0  0.81454  0.36675  0.77060  1.0000
  C   C2317     1.0  0.79905  0.35503  0.78075  1.0000
  C   C2318     1.0  0.80434  0.38202  0.75866  1.0000
  C   C2319     1.0  0.97205  0.25851  0.75862  1.0000
  C   C2320     1.0  0.82385  0.37746  0.78076  1.0000
  C   C2321     1.0  0.81148  0.39219  0.78978  1.0000
  C   C2322     1.0  0.84510  0.37370  0.78210  1.0000
  C   C2323     1.0  0.81980  0.40268  0.79937  1.0000
  C   C2324     1.0  0.85328  0.38423  0.79181  1.0000
  C   C2325     1.0  0.84067  0.39871  0.80039  1.0000
  H   H2777     1.0  0.78572  0.36521  0.78622  1.0000
  H   H2778     1.0  0.72389  0.00671  0.95899  1.0000
  H   H2779     1.0  0.80576  0.34446  0.79065  1.0000
  H   H2780     1.0  0.82195  0.34456  0.75401  1.0000
  C   C2326     1.0  0.71551  0.43065  0.84937  1.0000
  H   H2781     1.0  0.78819  0.47615  0.93406  1.0000
  H   H2782     1.0  0.68654  0.35280  0.73503  1.0000
  H   H2783     1.0  0.79520  0.39576  0.78944  1.0000
  H   H2784     1.0  0.85574  0.36273  0.77578  1.0000
  H   H2785     1.0  0.86952  0.38117  0.79267  1.0000
  H   H2786     1.0  0.84708  0.40688  0.80785  1.0000
  C   C2327     1.0  0.72086  0.42580  0.87792  1.0000
  H   H2787     1.0  0.70589  0.42024  0.88215  1.0000
  H   H2788     1.0  0.71733  0.18794  0.73041  1.0000
  H   H2789     1.0  0.72407  0.43355  0.88765  1.0000
  C   C2328     1.0  0.70504  0.45815  0.86573  1.0000
  C   C2329     1.0  0.71379  0.40949  0.85075  1.0000
  N   N152      1.0  0.72231  0.03336  0.84908  1.0000
  Fe  Fe317     1.0  0.78625  0.00183  0.82672  1.0000
  H   H2790     1.0  0.70900  0.44336  0.80974  1.0000
  H   H2791     1.0  0.78868  0.28203  0.75861  1.0000
  H   H2792     1.0  0.71526  0.45866  0.83207  1.0000
  H   H2793     1.0  0.91214  0.03903  0.96145  1.0000
  C   C2330     1.0  0.72831  0.01655  0.83914  1.0000
  C   C2331     1.0  0.97875  0.13698  0.84993  1.0000
  S   S628      1.0  0.70204  0.99048  0.93809  1.0000
  H   H2794     1.0  0.84130  0.36001  0.75338  1.0000
  H   H2795     1.0  0.94849  0.03692  0.94813  1.0000
  H   H2796     1.0  0.89847  0.01808  0.96256  1.0000
  H   H2797     1.0  0.71582  0.44774  0.92390  1.0000
  C   C2332     1.0  0.79786  0.29047  0.74900  1.0000
  C   C2333     1.0  0.98012  0.15752  0.85088  1.0000
  S   S629      1.0  0.95891  0.00130  0.90677  1.0000
  C   C2334     1.0  0.98623  0.47574  0.88290  1.0000
  H   H2798     1.0  0.74057  0.99342  0.91836  1.0000
  C   C2335     1.0  0.79090  0.19500  0.73885  1.0000
  H   H2799     1.0  0.75399  0.48382  0.92526  1.0000
  S   S630      1.0  0.66153  0.00938  0.97151  1.0000
  Fe  Fe318     1.0  0.73041  0.39915  0.73015  1.0000
  C   C2336     1.0  0.72428  0.17365  0.73743  1.0000
  S   S631      1.0  0.97189  0.19205  0.86622  1.0000
  H   H2800     1.0  0.98569  0.32592  0.86291  1.0000
  Fe  Fe319     1.0  0.98442  0.21471  0.84563  1.0000
  C   C2337     1.0  0.82502  0.13216  0.72480  1.0000
  H   H2801     1.0  0.79274  0.34561  0.77370  1.0000
  S   S632      1.0  0.76074  0.40021  0.73799  1.0000
  C   C2338     1.0  0.70997  0.43401  0.82130  1.0000
  C   C2339     1.0  0.71344  0.44264  0.83423  1.0000
  C   C2340     1.0  0.66844  0.33103  0.73057  1.0000
  H   H2802     1.0  0.72034  0.17492  0.75042  1.0000
  H   H2803     1.0  0.66239  0.34356  0.78151  1.0000
  N   N153      1.0  0.91673  0.20247  0.84149  1.0000
  C   C2341     1.0  0.91900  0.20883  0.85684  1.0000
  C   C2342     1.0  0.93720  0.19956  0.83174  1.0000
  C   C2343     1.0  0.90399  0.21963  0.83263  1.0000
  C   C2344     1.0  0.90809  0.18299  0.84484  1.0000
  C   C2345     1.0  0.91937  0.16487  0.85204  1.0000
  C   C2346     1.0  0.88829  0.18143  0.84158  1.0000
  C   C2347     1.0  0.91146  0.14638  0.85580  1.0000
  C   C2348     1.0  0.88051  0.16278  0.84535  1.0000
  C   C2349     1.0  0.89207  0.14531  0.85244  1.0000
  H   H2804     1.0  0.92918  0.19711  0.86388  1.0000
  H   H2805     1.0  0.92597  0.22319  0.85489  1.0000
  H   H2806     1.0  0.90399  0.21139  0.86456  1.0000
  H   H2807     1.0  0.94888  0.18957  0.83850  1.0000
  H   H2808     1.0  0.94320  0.21437  0.82780  1.0000
  H   H2809     1.0  0.93666  0.19276  0.82083  1.0000
  H   H2810     1.0  0.88878  0.22380  0.83969  1.0000
  H   H2811     1.0  0.91129  0.23386  0.83000  1.0000
  H   H2812     1.0  0.90192  0.21591  0.82084  1.0000
  H   H2813     1.0  0.93436  0.16492  0.85506  1.0000
  H   H2814     1.0  0.87845  0.19441  0.83632  1.0000
  H   H2815     1.0  0.92045  0.13281  0.86142  1.0000
  H   H2816     1.0  0.86529  0.16190  0.84299  1.0000
  H   H2817     1.0  0.88598  0.13092  0.85549  1.0000
  H   H2818     1.0  0.98800  0.16668  0.84093  1.0000
  C   C2350     1.0  0.80403  0.32280  0.73272  1.0000
  H   H2819     1.0  0.98559  0.25761  0.72920  1.0000
  C   C2351     1.0  0.92823  0.12806  0.96514  1.0000
  H   H2820     1.0  0.75404  0.31990  0.73431  1.0000
  H   H2821     1.0  0.96516  0.30278  0.90011  1.0000
  H   H2822     1.0  0.70680  0.40646  0.81270  1.0000
  H   H2823     1.0  0.89462  0.07860  0.96855  1.0000
  H   H2824     1.0  0.70962  0.38477  0.83883  1.0000
  C   C2352     1.0  0.98297  0.98770  0.90029  1.0000
  H   H2825     1.0  0.98092  0.47434  0.87191  1.0000
  H   H2826     1.0  0.76946  0.14191  0.73565  1.0000
  H   H2827     1.0  0.96770  0.24564  0.75379  1.0000
  C   C2353     1.0  0.70209  0.04467  0.84578  1.0000
  N   N154      1.0  0.74680  0.16923  0.73272  1.0000
  H   H2828     1.0  0.96973  0.07732  0.95754  1.0000
  C   C2354     1.0  0.91104  0.07827  0.96609  1.0000
  C   C2355     1.0  0.66260  0.31146  0.73515  1.0000
  H   H2829     1.0  0.73349  0.06078  0.85171  1.0000
  H   H2830     1.0  0.93594  0.12419  0.95361  1.0000
  C   C2356     1.0  0.91081  0.02614  0.95523  1.0000
  H   H2831     1.0  0.85729  0.99585  0.89155  1.0000
  C   C2357     1.0  0.74088  0.44644  0.85786  1.0000
  H   H2832     1.0  0.70515  0.47064  0.85543  1.0000
  H   H2833     1.0  0.80746  0.19155  0.73805  1.0000
  H   H2834     1.0  0.75029  0.29394  0.74220  1.0000
  C   C2358     1.0  0.75539  0.48303  0.93784  1.0000
  C   C2359     1.0  0.73785  0.04747  0.84497  1.0000
  H   H2835     1.0  0.96107  0.01355  0.94093  1.0000
  H   H2836     1.0  0.70215  0.47296  0.96545  1.0000
  S   S633      1.0  0.88171  0.23962  0.72854  1.0000
  H   H2837     1.0  0.78836  0.16647  0.73220  1.0000
  H   H2838     1.0  0.92123  0.01875  0.84763  1.0000
  C   C2360     1.0  0.66368  0.06645  0.83859  1.0000
  H   H2839     1.0  0.83109  0.12152  0.73446  1.0000
  H   H2840     1.0  0.77164  0.99510  0.72632  1.0000
  C   C2361     1.0  0.98913  0.31127  0.91065  1.0000
  S   S634      1.0  0.75074  0.09872  0.72342  1.0000
  H   H2841     1.0  0.98644  0.23581  0.78349  1.0000
  H   H2842     1.0  0.66694  0.28312  0.75115  1.0000
  H   H2843     1.0  0.89871  0.12425  0.96035  1.0000
  S   S635      1.0  0.73744  0.36581  0.72707  1.0000
  C   C2362     1.0  0.75892  0.48053  0.97024  1.0000
  S   S636      1.0  0.84981  0.15772  0.73099  1.0000
  H   H2844     1.0  0.91453  0.98758  0.95013  1.0000
  C   C2363     1.0  0.77640  0.47739  0.95894  1.0000
  H   H2845     1.0  0.93819  0.99969  0.83726  1.0000
  C   C2364     1.0  0.73130  0.98705  0.91178  1.0000
  H   H2846     1.0  0.79143  0.47386  0.96273  1.0000
  S   S637      1.0  0.79700  0.34942  0.72703  1.0000
  C   C2365     1.0  0.92712  0.99608  0.94386  1.0000
  H   H2847     1.0  0.96956  0.99221  0.86457  1.0000
  H   H2848     1.0  0.93938  0.00496  0.87949  1.0000
  H   H2849     1.0  0.97832  0.32276  0.91625  1.0000
  N   N155      1.0  0.92946  0.98988  0.86235  1.0000
  Fe  Fe320     1.0  0.67061  0.98805  0.95286  1.0000
  C   C2366     1.0  0.73904  0.48522  0.96555  1.0000
  C   C2367     1.0  0.90723  0.12803  0.96894  1.0000
  H   H2850     1.0  0.92187  0.98744  0.88798  1.0000
  C   C2368     1.0  0.73786  0.48629  0.94901  1.0000
  H   H2851     1.0  0.77852  0.28302  0.72187  1.0000
  H   H2852     1.0  0.95627  0.76256  0.10578  1.0000
  H   H2853     1.0  0.97952  0.60387  0.09066  1.0000
  S   S638      1.0  0.93970  0.73902  0.13496  1.0000
  H   H2854     1.0  0.73761  0.63335  0.15236  1.0000
  H   H2855     1.0  0.95510  0.77837  0.12839  1.0000
  C   C2369     1.0  0.74771  0.77661  0.21826  1.0000
  Fe  Fe321     1.0  0.74613  0.98607  0.09810  1.0000
  S   S639      1.0  0.79376  0.55053  0.18625  1.0000
  H   H2856     1.0  0.73326  0.49982  0.99473  1.0000
  C   C2370     1.0  0.71150  0.94729  0.00885  1.0000
  H   H2857     1.0  0.78408  0.51393  0.21732  1.0000
  S   S640      1.0  0.77225  0.50936  0.08859  1.0000
  H   H2858     1.0  0.91010  0.55030  0.02373  1.0000
  Fe  Fe322     1.0  0.76646  0.49838  0.11514  1.0000
  S   S641      1.0  0.75265  0.51862  0.13449  1.0000
  C   C2371     1.0  0.69652  0.84141  0.17053  1.0000
  C   C2372     1.0  0.94935  0.55704  0.98180  1.0000
  H   H2859     1.0  0.76726  0.58580  0.16946  1.0000
  C   C2373     1.0  0.98514  0.98173  0.02867  1.0000
  S   S642      1.0  0.75558  0.95513  0.11270  1.0000
  H   H2860     1.0  0.92681  0.69371  0.12606  1.0000
  H   H2861     1.0  0.69678  0.66315  0.17823  1.0000
  Fe  Fe323     1.0  0.72439  0.89933  0.20189  1.0000
  H   H2862     1.0  0.67259  0.97007  0.04533  1.0000
  S   S643      1.0  0.71206  0.92349  0.18229  1.0000
  H   H2863     1.0  0.70658  0.79764  0.19439  1.0000
  S   S644      1.0  0.65974  0.97554  0.01422  1.0000
  H   H2864     1.0  0.82650  0.52240  0.04350  1.0000
  H   H2865     1.0  0.81364  0.63388  0.20951  1.0000
  S   S645      1.0  0.73009  0.86499  0.20285  1.0000
  Fe  Fe324     1.0  0.94862  0.58935  0.06403  1.0000
  S   S646      1.0  0.93787  0.56534  0.08389  1.0000
  S   S647      1.0  0.95400  0.62214  0.06535  1.0000
  Fe  Fe325     1.0  0.94664  0.56285  0.03819  1.0000
  S   S648      1.0  0.93579  0.53697  0.05604  1.0000
  S   S649      1.0  0.95589  0.55718  0.01242  1.0000
  Fe  Fe326     1.0  0.91514  0.56147  0.06830  1.0000
  S   S650      1.0  0.88207  0.55974  0.07922  1.0000
  Fe  Fe327     1.0  0.95929  0.54237  0.07011  1.0000
  H   H2866     1.0  0.90113  0.65571  0.15772  1.0000
  S   S651      1.0  0.92405  0.58718  0.04926  1.0000
  S   S652      1.0  0.97182  0.56653  0.05146  1.0000
  C   C2374     1.0  0.94311  0.56654  0.99561  1.0000
  C   C2375     1.0  0.92737  0.58323  0.99553  1.0000
  H   H2867     1.0  0.92251  0.59073  0.00607  1.0000
  H   H2868     1.0  0.71739  0.59709  0.15276  1.0000
  C   C2376     1.0  0.94274  0.97571  0.99083  1.0000
  H   H2869     1.0  0.73241  0.57817  0.16511  1.0000
  C   C2377     1.0  0.69251  0.86252  0.17243  1.0000
  H   H2870     1.0  0.78034  0.55223  0.10622  1.0000
  C   C2378     1.0  0.72515  0.93259  0.16338  1.0000
  C   C2379     1.0  0.74379  0.92223  0.15686  1.0000
  C   C2380     1.0  0.75297  0.92937  0.14134  1.0000
  C   C2381     1.0  0.74375  0.94705  0.13232  1.0000
  C   C2382     1.0  0.72534  0.95765  0.13899  1.0000
  C   C2383     1.0  0.71602  0.95033  0.15439  1.0000
  H   H2871     1.0  0.75096  0.90855  0.16364  1.0000
  H   H2872     1.0  0.76721  0.92108  0.13626  1.0000
  C   C2384     1.0  0.96156  0.81360  0.09481  1.0000
  H   H2873     1.0  0.70157  0.95841  0.15933  1.0000
  C   C2385     1.0  0.84576  0.50805  0.07690  1.0000
  C   C2386     1.0  0.83758  0.52338  0.08643  1.0000
  C   C2387     1.0  0.84902  0.53893  0.08721  1.0000
  C   C2388     1.0  0.86875  0.53923  0.07857  1.0000
  C   C2389     1.0  0.87710  0.52365  0.06930  1.0000
  C   C2390     1.0  0.86562  0.50818  0.06844  1.0000
  H   H2874     1.0  0.82234  0.52340  0.09302  1.0000
  H   H2875     1.0  0.84246  0.55090  0.09442  1.0000
  H   H2876     1.0  0.89218  0.52378  0.06252  1.0000
  H   H2877     1.0  0.81765  0.97468  0.09127  1.0000
  H   H2878     1.0  0.74539  0.83815  0.15121  1.0000
  H   H2879     1.0  0.97899  0.79873  0.07458  1.0000
  C   C2391     1.0  0.83189  0.65624  0.21287  1.0000
  C   C2392     1.0  0.97689  0.60684  0.99028  1.0000
  C   C2393     1.0  0.86594  0.49177  0.12107  1.0000
  H   H2880     1.0  0.75721  0.97769  0.00139  1.0000
  C   C2394     1.0  0.72445  0.68537  0.21241  1.0000
  Fe  Fe328     1.0  0.77631  0.57087  0.20456  1.0000
  H   H2881     1.0  0.78161  0.70509  0.21063  1.0000
  C   C2395     1.0  0.78219  0.54054  0.17248  1.0000
  C   C2396     1.0  0.79454  0.52956  0.16083  1.0000
  C   C2397     1.0  0.78582  0.52230  0.14929  1.0000
  C   C2398     1.0  0.76462  0.52622  0.14918  1.0000
  C   C2399     1.0  0.75230  0.53684  0.16102  1.0000
  C   C2400     1.0  0.76098  0.54373  0.17271  1.0000
  H   H2882     1.0  0.81096  0.52686  0.16061  1.0000
  H   H2883     1.0  0.79549  0.51407  0.14030  1.0000
  H   H2884     1.0  0.73589  0.53967  0.16117  1.0000
  H   H2885     1.0  0.75126  0.55168  0.18180  1.0000
  H   H2886     1.0  0.93785  0.64817  0.12214  1.0000
  H   H2887     1.0  0.82279  0.55335  0.05648  1.0000
  C   C2401     1.0  0.69112  0.66083  0.19089  1.0000
  C   C2402     1.0  0.91964  0.51623  0.09738  1.0000
  C   C2403     1.0  0.97808  0.62436  0.99725  1.0000
  H   H2888     1.0  0.71081  0.82547  0.20896  1.0000
  C   C2404     1.0  0.66369  0.88974  0.16992  1.0000
  H   H2889     1.0  0.88335  0.66687  0.18266  1.0000
  H   H2890     1.0  0.68482  0.86716  0.20307  1.0000
  C   C2405     1.0  0.96205  0.77601  0.09799  1.0000
  C   C2406     1.0  0.69688  0.81870  0.21167  1.0000
  H   H2891     1.0  0.94111  0.63012  0.01396  1.0000
  C   C2407     1.0  0.72989  0.59469  0.16022  1.0000
  S   S653      1.0  0.77667  0.60497  0.20151  1.0000
  H   H2892     1.0  0.74522  0.65949  0.20441  1.0000
  N   N156      1.0  0.72012  0.48849  0.97708  1.0000
  C   C2408     1.0  0.95902  0.65499  0.14394  1.0000
  C   C2409     1.0  0.70086  0.49233  0.04901  1.0000
  C   C2410     1.0  0.90561  0.68533  0.18490  1.0000
  H   H2893     1.0  0.81775  0.74293  0.20417  1.0000
  C   C2411     1.0  0.96658  0.63265  0.07834  1.0000
  C   C2412     1.0  0.96521  0.65412  0.07707  1.0000
  C   C2413     1.0  0.72726  0.86562  0.15857  1.0000
  N   N157      1.0  0.79683  0.72547  0.22031  1.0000
  H   H2894     1.0  0.95628  0.66383  0.06851  1.0000
  C   C2414     1.0  0.98856  0.62946  0.09900  1.0000
  S   S654      1.0  0.91907  0.75295  0.20768  1.0000
  H   H2895     1.0  0.72378  0.60329  0.17050  1.0000
  H   H2896     1.0  0.67895  0.73157  0.20831  1.0000
  H   H2897     1.0  0.94866  0.69215  0.15915  1.0000
  C   C2415     1.0  0.93401  0.74209  0.15534  1.0000
  C   C2416     1.0  0.91380  0.74277  0.16309  1.0000
  C   C2417     1.0  0.90909  0.74546  0.17933  1.0000
  C   C2418     1.0  0.92452  0.74805  0.18771  1.0000
  C   C2419     1.0  0.94470  0.74741  0.17991  1.0000
  C   C2420     1.0  0.94949  0.74413  0.16384  1.0000
  H   H2898     1.0  0.90178  0.74108  0.15658  1.0000
  H   H2899     1.0  0.89349  0.74600  0.18525  1.0000
  H   H2900     1.0  0.95669  0.74939  0.18633  1.0000
  H   H2901     1.0  0.96513  0.74352  0.15801  1.0000
  C   C2421     1.0  0.67875  0.98581  0.02134  1.0000
  C   C2422     1.0  0.92862  0.65258  0.13349  1.0000
  C   C2423     1.0  0.69445  0.80291  0.20344  1.0000
  C   C2424     1.0  0.83806  0.53251  0.04020  1.0000
  C   C2425     1.0  0.67688  0.87975  0.19509  1.0000
  H   H2902     1.0  0.70659  0.95799  0.98483  1.0000
  H   H2903     1.0  0.97310  0.59288  0.99763  1.0000
  H   H2904     1.0  0.70370  0.72295  0.19832  1.0000
  H   H2905     1.0  0.92585  0.49093  0.12436  1.0000
  H   H2906     1.0  0.96805  0.64902  0.13309  1.0000
  H   H2907     1.0  0.72743  0.52600  0.21897  1.0000
  H   H2908     1.0  0.97607  0.79244  0.12066  1.0000
  H   H2909     1.0  0.68540  0.83111  0.17490  1.0000
  H   H2910     1.0  0.71813  0.81666  0.16172  1.0000
  H   H2911     1.0  0.75454  0.97902  0.15179  1.0000
  C   C2426     1.0  0.74465  0.96910  0.00271  1.0000
  C   C2427     1.0  0.85105  0.56258  0.04394  1.0000
  H   H2912     1.0  0.78270  0.96501  0.13314  1.0000
  C   C2428     1.0  0.67332  0.67318  0.19693  1.0000
  S   S655      1.0  0.75102  0.90004  0.21445  1.0000
  H   H2913     1.0  0.81387  0.95221  0.12411  1.0000
  Fe  Fe329     1.0  0.97330  0.72991  0.12703  1.0000
  H   H2914     1.0  0.90337  0.54821  0.99046  1.0000
  C   C2429     1.0  0.70847  0.87434  0.16614  1.0000
  C   C2430     1.0  0.72389  0.48796  0.99381  1.0000
  H   H2915     1.0  0.80471  0.72811  0.19453  1.0000
  C   C2431     1.0  0.81829  0.64177  0.21807  1.0000
  H   H2916     1.0  0.69426  0.51215  0.98111  1.0000
  C   C2432     1.0  0.87125  0.53993  0.02536  1.0000
  C   C2433     1.0  0.85542  0.52746  0.02925  1.0000
  C   C2434     1.0  0.69187  0.71868  0.20852  1.0000
  H   H2917     1.0  0.71837  0.94009  0.03300  1.0000
  Fe  Fe330     1.0  0.75497  0.86560  0.21753  1.0000
  H   H2918     1.0  0.89162  0.50228  0.01842  1.0000
  C   C2435     1.0  0.83592  0.54996  0.04757  1.0000
  H   H2919     1.0  0.94709  0.49086  0.08181  1.0000
  C   C2436     1.0  0.74220  0.49135  0.18164  1.0000
  H   H2920     1.0  0.95087  0.60343  0.01875  1.0000
  C   C2437     1.0  0.95656  0.83303  0.10025  1.0000
  H   H2921     1.0  0.71810  0.97125  0.13217  1.0000
  H   H2922     1.0  0.94852  0.48822  0.11008  1.0000
  H   H2923     1.0  0.79389  0.97024  0.10349  1.0000
  H   H2924     1.0  0.74177  0.76573  0.19750  1.0000
  C   C2438     1.0  0.71655  0.95791  0.99359  1.0000
  C   C2439     1.0  0.97415  0.81275  0.07974  1.0000
  H   H2925     1.0  0.96858  0.66482  0.14774  1.0000
  C   C2440     1.0  0.92403  0.69223  0.17822  1.0000
  H   H2926     1.0  0.98374  0.86200  0.07052  1.0000
  H   H2927     1.0  0.68555  0.70533  0.20624  1.0000
  C   C2441     1.0  0.97710  0.84878  0.07702  1.0000
  H   H2928     1.0  0.66173  0.88490  0.15850  1.0000
  C   C2442     1.0  0.97489  0.64357  0.02029  1.0000
  H   H2929     1.0  0.82806  0.96594  0.13382  1.0000
  C   C2443     1.0  0.94172  0.68447  0.12853  1.0000
  H   H2930     1.0  0.98054  0.94336  0.98515  1.0000
  H   H2931     1.0  0.66532  0.68492  0.18893  1.0000
  H   H2932     1.0  0.85614  0.51351  0.02428  1.0000
  H   H2933     1.0  0.89085  0.50583  0.12421  1.0000
  H   H2934     1.0  0.73560  0.78963  0.21754  1.0000
  H   H2935     1.0  0.91352  0.52328  0.10838  1.0000
  H   H2936     1.0  0.74759  0.95951  0.02767  1.0000
  S   S656      1.0  0.67407  0.77440  0.19591  1.0000
  H   H2937     1.0  0.92370  0.81163  0.11171  1.0000
  C   C2444     1.0  0.98018  0.97839  0.06198  1.0000
  H   H2938     1.0  0.85579  0.49835  0.13075  1.0000
  N   N158      1.0  0.92039  0.49364  0.09985  1.0000
  H   H2939     1.0  0.70665  0.89044  0.16721  1.0000
  H   H2940     1.0  0.83756  0.65945  0.20027  1.0000
  H   H2941     1.0  0.92678  0.63800  0.14163  1.0000
  C   C2445     1.0  0.74425  0.62280  0.14338  1.0000
  C   C2446     1.0  0.71540  0.83282  0.16294  1.0000
  H   H2942     1.0  0.67321  0.90233  0.16687  1.0000
  N   N159      1.0  0.93870  0.66626  0.14070  1.0000
  H   H2943     1.0  0.95744  0.64170  0.15355  1.0000
  H   H2944     1.0  0.90592  0.51167  0.99984  1.0000
  C   C2447     1.0  0.67635  0.79409  0.20669  1.0000
  C   C2448     1.0  0.92696  0.67280  0.15572  1.0000
  C   C2449     1.0  0.95934  0.79283  0.12105  1.0000
  C   C2450     1.0  0.93454  0.68617  0.16385  1.0000
  C   C2451     1.0  0.90813  0.66594  0.16291  1.0000
  C   C2452     1.0  0.73342  0.96899  0.98998  1.0000
  H   H2945     1.0  0.94798  0.62007  0.03345  1.0000
  C   C2453     1.0  0.98171  0.83015  0.07105  1.0000
  H   H2946     1.0  0.96162  0.54420  0.98175  1.0000
  C   C2454     1.0  0.76299  0.60147  0.16308  1.0000
  H   H2947     1.0  0.97907  0.77297  0.09681  1.0000
  C   C2455     1.0  0.81161  0.72818  0.20545  1.0000
  S   S657      1.0  0.72908  0.49150  0.06946  1.0000
  S   S658      1.0  0.74226  0.57321  0.21070  1.0000
  N   N160      1.0  0.74910  0.60142  0.15122  1.0000
  H   H2948     1.0  0.73290  0.62423  0.13497  1.0000
  H   H2949     1.0  0.90572  0.60313  0.98163  1.0000
  H   H2950     1.0  0.95054  0.69491  0.13239  1.0000
  C   C2456     1.0  0.66587  0.67022  0.21326  1.0000
  H   H2951     1.0  0.98494  0.65592  0.99072  1.0000
  S   S659      1.0  0.97847  0.51499  0.08250  1.0000
  H   H2952     1.0  0.75570  0.61123  0.17240  1.0000
  H   H2953     1.0  0.95137  0.80531  0.12789  1.0000
  N   N161      1.0  0.81352  0.98441  0.11458  1.0000
  H   H2954     1.0  0.77720  0.60778  0.15744  1.0000
  N   N162      1.0  0.67294  0.87214  0.18074  1.0000
  C   C2457     1.0  0.90848  0.53495  0.02117  1.0000
  H   H2955     1.0  0.96094  0.86483  0.09611  1.0000
  H   H2956     1.0  0.93011  0.70253  0.18416  1.0000
  H   H2957     1.0  0.75823  0.62846  0.13641  1.0000
  H   H2958     1.0  0.87586  0.55181  0.99361  1.0000
  C   C2458     1.0  0.88600  0.49611  0.11711  1.0000
  C   C2459     1.0  0.75806  0.58806  0.13887  1.0000
  H   H2959     1.0  0.78919  0.57984  0.14540  1.0000
  H   H2960     1.0  0.73018  0.59151  0.12791  1.0000
  C   C2460     1.0  0.99018  0.96163  0.05432  1.0000
  C   C2461     1.0  0.91793  0.59025  0.98167  1.0000
  H   H2961     1.0  0.84962  0.57581  0.05008  1.0000
  C   C2462     1.0  0.77988  0.74291  0.21998  1.0000
  C   C2463     1.0  0.77884  0.57850  0.13733  1.0000
  C   C2464     1.0  0.74601  0.58462  0.12765  1.0000
  S   S660      1.0  0.78723  0.84908  0.21203  1.0000
  H   H2962     1.0  0.87201  0.49638  0.06104  1.0000
  H   H2963     1.0  0.92485  0.78451  0.11303  1.0000
  C   C2465     1.0  0.73075  0.84488  0.15700  1.0000
  C   C2466     1.0  0.89153  0.51499  0.00820  1.0000
  H   H2964     1.0  0.94270  0.95974  0.99588  1.0000
  H   H2965     1.0  0.72424  0.50420  0.20125  1.0000
  C   C2467     1.0  0.93118  0.79811  0.10582  1.0000
  C   C2468     1.0  0.93771  0.98271  0.97541  1.0000
  S   S661      1.0  0.83160  0.48880  0.07481  1.0000
  H   H2966     1.0  0.71712  0.68726  0.20181  1.0000
  C   C2469     1.0  0.97542  0.66320  0.08667  1.0000
  C   C2470     1.0  0.73935  0.95855  0.01797  1.0000
  H   H2967     1.0  0.69424  0.50684  0.05303  1.0000
  C   C2471     1.0  0.70160  0.64550  0.20113  1.0000
  S   S662      1.0  0.86056  0.73913  0.21936  1.0000
  H   H2968     1.0  0.97129  0.64261  0.03359  1.0000
  H   H2969     1.0  0.98162  0.51326  0.04852  1.0000
  S   S663      1.0  0.98980  0.70103  0.13885  1.0000
  H   H2970     1.0  0.87880  0.51448  0.00145  1.0000
  N   N163      1.0  0.75447  0.50348  0.22096  1.0000
  C   C2472     1.0  0.78186  0.98083  0.13471  1.0000
  H   H2971     1.0  0.87966  0.56810  0.03055  1.0000
  C   C2473     1.0  0.75403  0.57188  0.11601  1.0000
  H   H2972     1.0  0.74433  0.56871  0.10802  1.0000
  C   C2474     1.0  0.78679  0.56610  0.12544  1.0000
  H   H2973     1.0  0.69805  0.93963  0.01145  1.0000
  C   C2475     1.0  0.95249  0.61918  0.02043  1.0000
  N   N164      1.0  0.95378  0.79539  0.10464  1.0000
  H   H2974     1.0  0.92631  0.80029  0.09375  1.0000
  H   H2975     1.0  0.95044  0.68009  0.11703  1.0000
  C   C2476     1.0  0.77436  0.56260  0.11493  1.0000
  C   C2477     1.0  0.88962  0.55113  0.99953  1.0000
  H   H2976     1.0  0.91338  0.66025  0.13041  1.0000
  H   H2977     1.0  0.80249  0.55848  0.12476  1.0000
  H   H2978     1.0  0.88941  0.56665  0.00264  1.0000
  H   H2979     1.0  0.94675  0.83499  0.11141  1.0000
  H   H2980     1.0  0.92329  0.49230  0.07455  1.0000
  C   C2478     1.0  0.89940  0.48832  0.10410  1.0000
  C   C2479     1.0  0.72286  0.94763  0.02102  1.0000
  H   H2981     1.0  0.76936  0.73659  0.19870  1.0000
  C   C2480     1.0  0.69417  0.64254  0.21747  1.0000
  Fe  Fe331     1.0  0.74272  0.60698  0.20916  1.0000
  C   C2481     1.0  0.66075  0.80102  0.21839  1.0000
  S   S664      1.0  0.72399  0.63056  0.19305  1.0000
  H   H2982     1.0  0.89742  0.69016  0.19601  1.0000
  N   N165      1.0  0.88984  0.53517  0.01379  1.0000
  C   C2482     1.0  0.75123  0.76311  0.20701  1.0000
  C   C2483     1.0  0.89769  0.67220  0.17728  1.0000
  H   H2983     1.0  0.97834  0.97707  0.07490  1.0000
  C   C2484     1.0  0.80537  0.98100  0.10033  1.0000
  H   H2984     1.0  0.67765  0.49328  0.03385  1.0000
  H   H2985     1.0  0.70930  0.49095  0.00203  1.0000
  H   H2986     1.0  0.68667  0.89206  0.19200  1.0000
  H   H2987     1.0  0.73922  0.87504  0.15403  1.0000
  H   H2988     1.0  0.90841  0.52427  0.03263  1.0000
  C   C2485     1.0  0.81550  0.81499  0.21809  1.0000
  C   C2486     1.0  0.76703  0.74647  0.20783  1.0000
  H   H2989     1.0  0.90985  0.52362  0.08811  1.0000
  C   C2487     1.0  0.86839  0.55779  0.03292  1.0000
  H   H2990     1.0  0.82441  0.82109  0.20716  1.0000
  H   H2991     1.0  0.96373  0.65633  0.01527  1.0000
  H   H2992     1.0  0.93514  0.52070  0.09348  1.0000
  H   H2993     1.0  0.82494  0.71568  0.20544  1.0000
  C   C2488     1.0  0.68195  0.98028  0.03744  1.0000
  C   C2489     1.0  0.82371  0.96446  0.12210  1.0000
  H   H2994     1.0  0.92277  0.53013  0.01315  1.0000
  C   C2490     1.0  0.96441  0.85027  0.09152  1.0000
  C   C2491     1.0  0.65760  0.85789  0.18613  1.0000
  H   H2995     1.0  0.95736  0.77619  0.08607  1.0000
  H   H2996     1.0  0.83782  0.95854  0.11438  1.0000
  N   N166      1.0  0.97355  0.62393  0.01483  1.0000
  H   H2997     1.0  0.97435  0.67970  0.08536  1.0000
  H   H2998     1.0  0.66252  0.88618  0.20225  1.0000
  H   H2999     1.0  0.66320  0.84479  0.19497  1.0000
  S   S665      1.0  0.98405  0.72258  0.10208  1.0000
  C   C2492     1.0  0.97821  0.62038  0.08951  1.0000
  C   C2493     1.0  0.98350  0.64191  0.98657  1.0000
  H   H3000     1.0  0.71921  0.73825  0.21782  1.0000
  H   H3001     1.0  0.70009  0.98269  0.05561  1.0000
  S   S666      1.0  0.85566  0.68428  0.21668  1.0000
  H   H3002     1.0  0.98743  0.98325  0.01574  1.0000
  C   C2494     1.0  0.74068  0.66923  0.21374  1.0000
  H   H3003     1.0  0.98685  0.59217  0.02052  1.0000
  H   H3004     1.0  0.95693  0.75326  0.21919  1.0000
  C   C2495     1.0  0.76746  0.51968  0.21975  1.0000
  H   H3005     1.0  0.98550  0.60741  0.03603  1.0000
  C   C2496     1.0  0.98738  0.65091  0.09761  1.0000
  C   C2497     1.0  0.98817  0.60778  0.02276  1.0000
  C   C2498     1.0  0.98051  0.60691  0.97372  1.0000
  H   H3006     1.0  0.76396  0.53210  0.20981  1.0000
  C   C2499     1.0  0.73958  0.49784  0.19668  1.0000
  H   H3007     1.0  0.72929  0.49300  0.17512  1.0000
  C   C2500     1.0  0.75648  0.49642  0.20516  1.0000
  N   N167      1.0  0.73807  0.98057  0.97382  1.0000
  H   H3008     1.0  0.77065  0.97744  0.97367  1.0000
  H   H3009     1.0  0.78955  0.48695  0.20319  1.0000
  C   C2501     1.0  0.70808  0.50874  0.97224  1.0000
  H   H3010     1.0  0.95072  0.98389  0.01208  1.0000
  C   C2502     1.0  0.77595  0.48817  0.19763  1.0000
  C   C2503     1.0  0.78869  0.70594  0.22130  1.0000
  H   H3011     1.0  0.78360  0.49657  0.27569  1.0000
  S   S667      1.0  0.96329  0.75284  0.35847  1.0000
  C   C2504     1.0  0.81749  0.64748  0.24534  1.0000
  C   C2505     1.0  0.82035  0.94052  0.39058  1.0000
  S   S668      1.0  0.94272  0.75742  0.31800  1.0000
  C   C2506     1.0  0.81100  0.97982  0.37415  1.0000
  Fe  Fe332     1.0  0.88717  0.71686  0.25722  1.0000
  S   S669      1.0  0.88289  0.75035  0.24778  1.0000
  S   S670      1.0  0.90686  0.70375  0.27702  1.0000
  C   C2507     1.0  0.67678  0.93380  0.29052  1.0000
  C   C2508     1.0  0.79218  0.52400  0.33778  1.0000
  H   H3012     1.0  0.67507  0.91590  0.34340  1.0000
  C   C2509     1.0  0.69944  0.92876  0.40832  1.0000
  Fe  Fe333     1.0  0.85126  0.74616  0.24454  1.0000
  S   S671      1.0  0.82146  0.76569  0.25287  1.0000
  H   H3013     1.0  0.88395  0.58778  0.44071  1.0000
  S   S672      1.0  0.85457  0.71304  0.25594  1.0000
  H   H3014     1.0  0.95572  0.71526  0.31065  1.0000
  C   C2510     1.0  0.97123  0.73891  0.25642  1.0000
  H   H3015     1.0  0.67824  0.90400  0.26162  1.0000
  H   H3016     1.0  0.71551  0.93071  0.40320  1.0000
  Fe  Fe334     1.0  0.86553  0.70615  0.23083  1.0000
  H   H3017     1.0  0.74945  0.56133  0.28620  1.0000
  C   C2511     1.0  0.92509  0.91363  0.43877  1.0000
  H   H3018     1.0  0.84891  0.94044  0.42863  1.0000
  H   H3019     1.0  0.75191  0.67335  0.25015  1.0000
  S   S673      1.0  0.78218  0.56644  0.23033  1.0000
  C   C2512     1.0  0.77590  0.75706  0.23124  1.0000
  C   C2513     1.0  0.83738  0.94494  0.42021  1.0000
  Fe  Fe335     1.0  0.74801  0.57075  0.23627  1.0000
  S   S674      1.0  0.73014  0.55144  0.25651  1.0000
  S   S675      1.0  0.88692  0.93657  0.44039  1.0000
  H   H3020     1.0  0.69585  0.95972  0.43656  1.0000
  H   H3021     1.0  0.70426  0.96914  0.40167  1.0000
  S   S676      1.0  0.73512  0.86256  0.24148  1.0000
  S   S677      1.0  0.73071  0.92165  0.25282  1.0000
  H   H3022     1.0  0.94127  0.69480  0.29463  1.0000
  Fe  Fe336     1.0  0.72265  0.95476  0.33980  1.0000
  H   H3023     1.0  0.71800  0.94972  0.42396  1.0000
  S   S678      1.0  0.72835  0.92649  0.32699  1.0000
  Fe  Fe337     1.0  0.73121  0.96743  0.37128  1.0000
  C   C2514     1.0  0.83841  0.66634  0.22388  1.0000
  S   S679      1.0  0.74762  0.95559  0.39335  1.0000
  Fe  Fe338     1.0  0.68771  0.97596  0.36157  1.0000
  C   C2515     1.0  0.97778  0.67902  0.39297  1.0000
  S   S680      1.0  0.71002  0.94743  0.36582  1.0000
  H   H3024     1.0  0.67088  0.93978  0.44969  1.0000
  H   H3025     1.0  0.96640  0.50145  0.45505  1.0000
  H   H3026     1.0  0.91887  0.90375  0.43261  1.0000
  H   H3027     1.0  0.88640  0.71583  0.31770  1.0000
  H   H3028     1.0  0.68135  0.96494  0.39561  1.0000
  H   H3029     1.0  0.94170  0.71714  0.36545  1.0000
  H   H3030     1.0  0.77152  0.91071  0.26303  1.0000
  H   H3031     1.0  0.70428  0.93228  0.43794  1.0000
  S   S681      1.0  0.95580  0.61493  0.45705  1.0000
  H   H3032     1.0  0.91609  0.72246  0.36118  1.0000
  Fe  Fe339     1.0  0.72944  0.89711  0.23752  1.0000
  C   C2516     1.0  0.76243  0.96820  0.40316  1.0000
  C   C2517     1.0  0.77158  0.95723  0.41634  1.0000
  C   C2518     1.0  0.78384  0.96636  0.42426  1.0000
  H   H3033     1.0  0.90719  0.65142  0.32687  1.0000
  H   H3034     1.0  0.78503  0.75595  0.24074  1.0000
  N   N168      1.0  0.93248  0.69337  0.35518  1.0000
  C   C2519     1.0  0.80836  0.72346  0.23405  1.0000
  H   H3035     1.0  0.66672  0.93611  0.36590  1.0000
  H   H3036     1.0  0.90661  0.72248  0.33668  1.0000
  H   H3037     1.0  0.98025  0.73817  0.22387  1.0000
  H   H3038     1.0  0.92752  0.65691  0.34663  1.0000
  C   C2520     1.0  0.89358  0.52715  0.45827  1.0000
  C   C2521     1.0  0.72963  0.92244  0.27358  1.0000
  C   C2522     1.0  0.72989  0.90482  0.28495  1.0000
  C   C2523     1.0  0.72957  0.90634  0.30124  1.0000
  C   C2524     1.0  0.72873  0.92546  0.30635  1.0000
  C   C2525     1.0  0.72825  0.94308  0.29499  1.0000
  C   C2526     1.0  0.72886  0.94153  0.27869  1.0000
  H   H3039     1.0  0.73047  0.89004  0.28120  1.0000
  H   H3040     1.0  0.72998  0.89261  0.30994  1.0000
  H   H3041     1.0  0.72770  0.95787  0.29873  1.0000
  H   H3042     1.0  0.72873  0.95524  0.26997  1.0000
  C   C2527     1.0  0.74011  0.52987  0.26957  1.0000
  C   C2528     1.0  0.72685  0.52119  0.28243  1.0000
  C   C2529     1.0  0.73399  0.50379  0.29290  1.0000
  H   H3043     1.0  0.79653  0.93278  0.37944  1.0000
  C   C2530     1.0  0.76772  0.50342  0.27762  1.0000
  C   C2531     1.0  0.76068  0.52104  0.26734  1.0000
  H   H3044     1.0  0.71093  0.52793  0.28429  1.0000
  N   N169      1.0  0.78414  0.51665  0.32493  1.0000
  H   H3045     1.0  0.77119  0.52777  0.25776  1.0000
  H   H3046     1.0  0.75742  0.78434  0.23890  1.0000
  H   H3047     1.0  0.78244  0.53820  0.34133  1.0000
  H   H3048     1.0  0.66861  0.95094  0.33364  1.0000
  C   C2532     1.0  0.91839  0.55091  0.45555  1.0000
  C   C2533     1.0  0.90748  0.53919  0.44867  1.0000
  H   H3049     1.0  0.92860  0.56057  0.44799  1.0000
  H   H3050     1.0  0.90945  0.53987  0.43579  1.0000
  C   C2534     1.0  0.95391  0.92198  0.44904  1.0000
  C   C2535     1.0  0.94137  0.93931  0.45431  1.0000
  C   C2536     1.0  0.92074  0.94378  0.45189  1.0000
  C   C2537     1.0  0.92622  0.68247  0.37135  1.0000
  H   H3051     1.0  0.93729  0.72427  0.34512  1.0000
  H   H3052     1.0  0.95656  0.66821  0.35013  1.0000
  H   H3053     1.0  0.67989  0.97828  0.41236  1.0000
  H   H3054     1.0  0.79547  0.88800  0.22533  1.0000
  H   H3055     1.0  0.86987  0.93806  0.38601  1.0000
  C   C2538     1.0  0.89539  0.68325  0.32123  1.0000
  C   C2539     1.0  0.81213  0.78870  0.24124  1.0000
  C   C2540     1.0  0.79286  0.79932  0.24644  1.0000
  C   C2541     1.0  0.78481  0.81759  0.23742  1.0000
  H   H3056     1.0  0.87550  0.93108  0.40626  1.0000
  H   H3057     1.0  0.78409  0.79334  0.25749  1.0000
  H   H3058     1.0  0.76990  0.82554  0.24149  1.0000
  H   H3059     1.0  0.96655  0.64649  0.42743  1.0000
  H   H3060     1.0  0.79343  0.49329  0.30965  1.0000
  H   H3061     1.0  0.97132  0.82494  0.39238  1.0000
  C   C2542     1.0  0.71774  0.69797  0.22469  1.0000
  C   C2543     1.0  0.72820  0.69325  0.23831  1.0000
  S   S682      1.0  0.89844  0.70669  0.23308  1.0000
  S   S683      1.0  0.83348  0.95695  0.45978  1.0000
  Fe  Fe340     1.0  0.86611  0.96209  0.45195  1.0000
  H   H3062     1.0  0.75007  0.53487  0.30922  1.0000
  H   H3063     1.0  0.98955  0.83721  0.41121  1.0000
  H   H3064     1.0  0.80355  0.48656  0.42079  1.0000
  H   H3065     1.0  0.66967  0.89645  0.33350  1.0000
  H   H3066     1.0  0.79047  0.95776  0.43449  1.0000
  C   C2544     1.0  0.66823  0.92130  0.30424  1.0000
  C   C2545     1.0  0.76416  0.51000  0.33201  1.0000
  C   C2546     1.0  0.93178  0.71528  0.35673  1.0000
  C   C2547     1.0  0.91919  0.69019  0.34384  1.0000
  H   H3067     1.0  0.75945  0.49078  0.24517  1.0000
  C   C2548     1.0  0.81124  0.63710  0.23438  1.0000
  C   C2549     1.0  0.95404  0.68513  0.34969  1.0000
  H   H3068     1.0  0.90993  0.68784  0.37577  1.0000
  C   C2550     1.0  0.93367  0.74223  0.30625  1.0000
  C   C2551     1.0  0.91679  0.75084  0.29827  1.0000
  C   C2552     1.0  0.90877  0.73941  0.28899  1.0000
  C   C2553     1.0  0.91748  0.71913  0.28764  1.0000
  C   C2554     1.0  0.93448  0.71052  0.29552  1.0000
  C   C2555     1.0  0.94261  0.72203  0.30473  1.0000
  H   H3069     1.0  0.90975  0.76645  0.29938  1.0000
  H   H3070     1.0  0.89555  0.74618  0.28317  1.0000
  H   H3071     1.0  0.77703  0.70373  0.23206  1.0000
  C   C2556     1.0  0.73322  0.51214  0.22705  1.0000
  H   H3072     1.0  0.78147  0.90607  0.23758  1.0000
  H   H3073     1.0  0.92824  0.75975  0.23856  1.0000
  H   H3074     1.0  0.82080  0.71005  0.23408  1.0000
  C   C2557     1.0  0.66330  0.81662  0.22679  1.0000
  Fe  Fe341     1.0  0.85730  0.49189  0.46151  1.0000
  H   H3075     1.0  0.97396  0.76388  0.22866  1.0000
  H   H3076     1.0  0.94768  0.94945  0.46017  1.0000
  H   H3077     1.0  0.94258  0.77268  0.24850  1.0000
  S   S684      1.0  0.70239  0.89840  0.22480  1.0000
  H   H3078     1.0  0.96110  0.71512  0.46535  1.0000
  H   H3079     1.0  0.81376  0.85692  0.23539  1.0000
  C   C2558     1.0  0.84640  0.56771  0.46820  1.0000
  C   C2559     1.0  0.85766  0.96894  0.40409  1.0000
  H   H3080     1.0  0.92909  0.75220  0.25940  1.0000
  H   H3081     1.0  0.69231  0.90813  0.32646  1.0000
  H   H3082     1.0  0.83583  0.66971  0.24874  1.0000
  C   C2560     1.0  0.67626  0.65480  0.22349  1.0000
  H   H3083     1.0  0.66289  0.88171  0.28493  1.0000
  H   H3084     1.0  0.80890  0.90389  0.23373  1.0000
  H   H3085     1.0  0.75769  0.50305  0.32337  1.0000
  C   C2561     1.0  0.97015  0.71345  0.45379  1.0000
  H   H3086     1.0  0.77292  0.92558  0.28686  1.0000
  H   H3087     1.0  0.78085  0.57540  0.27327  1.0000
  N   N170      1.0  0.84705  0.95130  0.40367  1.0000
  H   H3088     1.0  0.94245  0.71612  0.25560  1.0000
  H   H3089     1.0  0.69156  0.92783  0.39805  1.0000
  C   C2562     1.0  0.89514  0.70304  0.32438  1.0000
  C   C2563     1.0  0.79617  0.82555  0.22324  1.0000
  C   C2564     1.0  0.90698  0.66679  0.32944  1.0000
  C   C2565     1.0  0.98435  0.72889  0.42703  1.0000
  N   N171      1.0  0.79776  0.87919  0.25053  1.0000
  C   C2566     1.0  0.77917  0.86912  0.25409  1.0000
  C   C2567     1.0  0.79585  0.89500  0.23623  1.0000
  C   C2568     1.0  0.81544  0.86341  0.24624  1.0000
  C   C2569     1.0  0.79955  0.88880  0.26454  1.0000
  C   C2570     1.0  0.78433  0.90490  0.26952  1.0000
  C   C2571     1.0  0.81562  0.88200  0.27404  1.0000
  C   C2572     1.0  0.78499  0.91354  0.28318  1.0000
  C   C2573     1.0  0.81620  0.89086  0.28766  1.0000
  C   C2574     1.0  0.80088  0.90652  0.29225  1.0000
  H   H3090     1.0  0.76495  0.88030  0.25607  1.0000
  H   H3091     1.0  0.77762  0.86113  0.24404  1.0000
  H   H3092     1.0  0.77962  0.85750  0.26502  1.0000
  C   C2575     1.0  0.98116  0.74550  0.28131  1.0000
  Fe  Fe342     1.0  0.98523  0.72378  0.36236  1.0000
  S   S685      1.0  0.98350  0.79621  0.36994  1.0000
  H   H3093     1.0  0.79250  0.51231  0.34874  1.0000
  C   C2576     1.0  0.66816  0.94212  0.42416  1.0000
  H   H3094     1.0  0.76290  0.65221  0.22835  1.0000
  H   H3095     1.0  0.93848  0.72463  0.23515  1.0000
  H   H3096     1.0  0.82781  0.86975  0.27132  1.0000
  H   H3097     1.0  0.73224  0.51714  0.23899  1.0000
  H   H3098     1.0  0.82850  0.88539  0.29482  1.0000
  H   H3099     1.0  0.80120  0.91318  0.30292  1.0000
  H   H3100     1.0  0.97772  0.75319  0.29187  1.0000
  C   C2577     1.0  0.98725  0.81890  0.39309  1.0000
  N   N172      1.0  0.68927  0.94571  0.41736  1.0000
  C   C2578     1.0  0.82508  0.55121  0.45443  1.0000
  H   H3101     1.0  0.72358  0.49719  0.30267  1.0000
  C   C2579     1.0  0.74438  0.67702  0.23951  1.0000
  H   H3102     1.0  0.96762  0.76886  0.39977  1.0000
  C   C2580     1.0  0.98371  0.63698  0.40569  1.0000
  C   C2581     1.0  0.66662  0.89632  0.28654  1.0000
  C   C2582     1.0  0.80523  0.94464  0.38052  1.0000
  H   H3103     1.0  0.69318  0.74720  0.22524  1.0000
  H   H3104     1.0  0.82146  0.56543  0.44597  1.0000
  C   C2583     1.0  0.98993  0.72531  0.25441  1.0000
  C   C2584     1.0  0.68862  0.96532  0.40630  1.0000
  C   C2585     1.0  0.83092  0.66210  0.24013  1.0000
  H   H3105     1.0  0.78380  0.49734  0.39782  1.0000
  H   H3106     1.0  0.82620  0.95773  0.42469  1.0000
  H   H3107     1.0  0.81185  0.54264  0.45608  1.0000
  C   C2586     1.0  0.94988  0.72259  0.24364  1.0000
  Fe  Fe343     1.0  0.98154  0.60076  0.44007  1.0000
  H   H3108     1.0  0.72357  0.70172  0.24833  1.0000
  C   C2587     1.0  0.67515  0.90887  0.27337  1.0000
  H   H3109     1.0  0.81216  0.64394  0.25798  1.0000
  H   H3110     1.0  0.76569  0.49805  0.34269  1.0000
  C   C2588     1.0  0.68325  0.70902  0.23676  1.0000
  C   C2589     1.0  0.94568  0.90901  0.44139  1.0000
  H   H3111     1.0  0.86560  0.97439  0.39207  1.0000
  Fe  Fe344     1.0  0.77896  0.60101  0.22777  1.0000
  C   C2590     1.0  0.80062  0.96422  0.37228  1.0000
  H   H3112     1.0  0.95531  0.89574  0.43713  1.0000
  H   H3113     1.0  0.68755  0.70741  0.24895  1.0000
  S   S686      1.0  0.79500  0.61823  0.24175  1.0000
  C   C2591     1.0  0.70228  0.94687  0.42959  1.0000
  H   H3114     1.0  0.67055  0.65241  0.23614  1.0000
  Fe  Fe345     1.0  0.95416  0.58237  0.46906  1.0000
  C   C2592     1.0  0.67138  0.94703  0.32121  1.0000
  S   S687      1.0  0.69896  0.98255  0.33524  1.0000
  H   H3115     1.0  0.81423  0.50131  0.31652  1.0000
  H   H3116     1.0  0.88688  0.68077  0.31213  1.0000
  S   S688      1.0  0.98981  0.71969  0.33629  1.0000
  C   C2593     1.0  0.93848  0.75741  0.24795  1.0000
  S   S689      1.0  0.97281  0.70545  0.38571  1.0000
  C   C2594     1.0  0.78280  0.53292  0.31092  1.0000
  C   C2595     1.0  0.80056  0.54129  0.30310  1.0000
  C   C2596     1.0  0.76427  0.54062  0.30444  1.0000
  C   C2597     1.0  0.79978  0.55648  0.28973  1.0000
  C   C2598     1.0  0.66118  0.93934  0.44089  1.0000
  Fe  Fe346     1.0  0.96966  0.75002  0.33233  1.0000
  C   C2599     1.0  0.96964  0.67228  0.40879  1.0000
  S   S690      1.0  0.68373  0.84542  0.23404  1.0000
  S   S691      1.0  0.87867  0.51445  0.44888  1.0000
  H   H3117     1.0  0.81523  0.53596  0.30716  1.0000
  H   H3118     1.0  0.81354  0.56259  0.28385  1.0000
  H   H3119     1.0  0.85671  0.91967  0.39985  1.0000
  H   H3120     1.0  0.75282  0.52291  0.33613  1.0000
  C   C2600     1.0  0.78138  0.56375  0.28374  1.0000
  N   N173      1.0  0.95695  0.74220  0.24440  1.0000
  H   H3121     1.0  0.86951  0.96478  0.41231  1.0000
  H   H3122     1.0  0.95892  0.69194  0.33714  1.0000
  C   C2601     1.0  0.76368  0.55587  0.29110  1.0000
  H   H3123     1.0  0.69983  0.91369  0.41614  1.0000
  H   H3124     1.0  0.96467  0.68848  0.35734  1.0000
  H   H3125     1.0  0.68697  0.93719  0.26507  1.0000
  H   H3126     1.0  0.91127  0.95725  0.45590  1.0000
  C   C2602     1.0  0.90692  0.70662  0.33541  1.0000
  H   H3127     1.0  0.76924  0.94151  0.42043  1.0000
  S   S692      1.0  0.74486  0.60503  0.23525  1.0000
  H   H3128     1.0  0.95330  0.75925  0.27309  1.0000
  C   C2603     1.0  0.97282  0.65142  0.41520  1.0000
  S   S693      1.0  0.82401  0.49634  0.45812  1.0000
  C   C2604     1.0  0.96660  0.75511  0.40910  1.0000
  C   C2605     1.0  0.85851  0.57303  0.45326  1.0000
  H   H3129     1.0  0.83830  0.78850  0.22289  1.0000
  H   H3130     1.0  0.83003  0.86994  0.24347  1.0000
  H   H3131     1.0  0.81681  0.85009  0.25591  1.0000
  C   C2606     1.0  0.66306  0.90244  0.30174  1.0000
  C   C2607     1.0  0.82603  0.97594  0.38430  1.0000
  H   H3132     1.0  0.93572  0.68501  0.38021  1.0000
  C   C2608     1.0  0.83128  0.95604  0.39277  1.0000
  H   H3133     1.0  0.92804  0.66561  0.37157  1.0000
  H   H3134     1.0  0.82309  0.92517  0.39691  1.0000
  C   C2609     1.0  0.79818  0.49837  0.32006  1.0000
  Fe  Fe347     1.0  0.99035  0.76946  0.35529  1.0000
  C   C2610     1.0  0.86291  0.93430  0.39868  1.0000
  C   C2611     1.0  0.68133  0.82556  0.22345  1.0000
  H   H3135     1.0  0.80808  0.52736  0.33414  1.0000
  S   S694      1.0  0.74580  0.97234  0.34557  1.0000
  H   H3136     1.0  0.96087  0.68326  0.41619  1.0000
  C   C2612     1.0  0.91260  0.93106  0.44397  1.0000
  H   H3137     1.0  0.82912  0.93166  0.42116  1.0000
  C   C2613     1.0  0.91862  0.67013  0.34067  1.0000
  H   H3138     1.0  0.70984  0.73354  0.23884  1.0000
  H   H3139     1.0  0.96258  0.71077  0.23960  1.0000
  H   H3140     1.0  0.85630  0.56820  0.44232  1.0000
  C   C2614     1.0  0.68000  0.92764  0.27534  1.0000
  H   H3141     1.0  0.83840  0.54128  0.44862  1.0000
  Fe  Fe348     1.0  0.89258  0.74003  0.22358  1.0000
  C   C2615     1.0  0.67581  0.91122  0.33142  1.0000
  H   H3142     1.0  0.68155  0.94823  0.29117  1.0000
  H   H3143     1.0  0.96148  0.74322  0.40358  1.0000
  S   S695      1.0  0.97986  0.91758  0.45184  1.0000
  C   C2616     1.0  0.96721  0.74890  0.27030  1.0000
  H   H3144     1.0  0.68813  0.94647  0.31722  1.0000
  C   C2617     1.0  0.70590  0.73415  0.22666  1.0000
  N   N174      1.0  0.82916  0.55591  0.46989  1.0000
  H   H3145     1.0  0.66927  0.72069  0.23631  1.0000
  S   S696      1.0  0.97796  0.56814  0.45088  1.0000
  C   C2618     1.0  0.82341  0.79653  0.22698  1.0000
  H   H3146     1.0  0.95437  0.75959  0.41887  1.0000
  H   H3147     1.0  0.78845  0.96748  0.36487  1.0000
  C   C2619     1.0  0.96753  0.74968  0.22838  1.0000
  H   H3148     1.0  0.84674  0.98195  0.40862  1.0000
  C   C2620     1.0  0.75061  0.66504  0.22724  1.0000
  S   S697      1.0  0.98702  0.61050  0.41322  1.0000
  Fe  Fe349     1.0  0.70990  0.86412  0.22660  1.0000
  H   H3149     1.0  0.79832  0.72130  0.24574  1.0000
  C   C2621     1.0  0.97949  0.69404  0.45055  1.0000
  H   H3150     1.0  0.76505  0.52672  0.23094  1.0000
  H   H3151     1.0  0.98073  0.76998  0.43132  1.0000
  C   C2622     1.0  0.75443  0.49467  0.29043  1.0000
  H   H3152     1.0  0.66303  0.95998  0.31378  1.0000
  H   H3153     1.0  0.97765  0.68073  0.45951  1.0000
  C   C2623     1.0  0.98891  0.66466  0.38346  1.0000
  H   H3154     1.0  0.96444  0.74526  0.44517  1.0000
  C   C2624     1.0  0.97235  0.73062  0.44220  1.0000
  C   C2625     1.0  0.75999  0.77358  0.23033  1.0000
  H   H3155     1.0  0.72259  0.50063  0.22867  1.0000
  N   N175      1.0  0.98650  0.74733  0.41497  1.0000
  N   N176      1.0  0.66458  0.92721  0.32052  1.0000
  H   H3156     1.0  0.94240  0.51104  0.46597  1.0000
  H   H3157     1.0  0.81599  0.73711  0.23356  1.0000
  H   H3158     1.0  0.67882  0.69414  0.23541  1.0000
  C   C2626     1.0  0.87456  0.58433  0.45213  1.0000
  N   N177      1.0  0.70005  0.71464  0.22404  1.0000
  C   C2627     1.0  0.87924  0.59038  0.46574  1.0000
  H   H3159     1.0  0.94882  0.87747  0.46822  1.0000
  H   H3160     1.0  0.70214  0.63076  0.22545  1.0000
  C   C2628     1.0  0.95608  0.49897  0.46654  1.0000
  H   H3161     1.0  0.98154  0.52539  0.46877  1.0000
  H   H3162     1.0  0.89222  0.59844  0.46489  1.0000
  H   H3163     1.0  0.80666  0.58299  0.47025  1.0000
  H   H3164     1.0  0.80101  0.69247  0.22216  1.0000
  H   H3165     1.0  0.91497  0.89106  0.47059  1.0000
  H   H3166     1.0  0.65808  0.94305  0.40101  1.0000
  H   H3167     1.0  0.92530  0.68145  0.58547  1.0000
  H   H3168     1.0  0.66720  0.75499  0.59756  1.0000
  C   C2629     1.0  0.69634  0.87282  0.62594  1.0000
  S   S698      1.0  0.95710  0.74452  0.59161  1.0000
  S   S699      1.0  0.82764  0.95608  0.50647  1.0000
  C   C2630     1.0  0.69131  0.75727  0.62955  1.0000
  H   H3169     1.0  0.69400  0.51575  0.65908  1.0000
  S   S700      1.0  0.79532  0.50039  0.50212  1.0000
  C   C2631     1.0  0.76605  0.95972  0.66604  1.0000
  Fe  Fe350     1.0  0.84137  0.74959  0.63226  1.0000
  S   S701      1.0  0.84760  0.77864  0.63896  1.0000
  S   S702      1.0  0.86590  0.72769  0.61912  1.0000
  Fe  Fe351     1.0  0.79629  0.75598  0.64817  1.0000
  S   S703      1.0  0.79957  0.78565  0.65614  1.0000
  S   S704      1.0  0.76421  0.74748  0.65596  1.0000
  Fe  Fe352     1.0  0.81696  0.79260  0.63160  1.0000
  S   S705      1.0  0.81414  0.82231  0.61446  1.0000
  Fe  Fe353     1.0  0.82973  0.76916  0.66292  1.0000
  S   S706      1.0  0.84434  0.76893  0.68508  1.0000
  S   S707      1.0  0.81173  0.76412  0.62305  1.0000
  S   S708      1.0  0.82531  0.73896  0.65683  1.0000
  H   H3170     1.0  0.95970  0.85477  0.47976  1.0000
  S   S709      1.0  0.75630  0.96511  0.60740  1.0000
  Fe  Fe354     1.0  0.70867  0.94296  0.59933  1.0000
  S   S710      1.0  0.74102  0.93181  0.58870  1.0000
  H   H3171     1.0  0.68762  0.88793  0.62162  1.0000
  Fe  Fe355     1.0  0.74938  0.93268  0.61303  1.0000
  S   S711      1.0  0.76580  0.90827  0.63016  1.0000
  Fe  Fe356     1.0  0.74492  0.96533  0.58395  1.0000
  C   C2632     1.0  0.77643  0.97649  0.54601  1.0000
  S   S712      1.0  0.71704  0.94206  0.62392  1.0000
  C   C2633     1.0  0.73375  0.81619  0.63909  1.0000
  Fe  Fe357     1.0  0.70794  0.49897  0.60363  1.0000
  S   S713      1.0  0.71624  0.52990  0.60591  1.0000
  Fe  Fe358     1.0  0.69847  0.66499  0.64559  1.0000
  S   S714      1.0  0.70031  0.63421  0.66103  1.0000
  S   S715      1.0  0.72701  0.67779  0.63259  1.0000
  Fe  Fe359     1.0  0.67680  0.65040  0.67843  1.0000
  Fe  Fe360     1.0  0.67375  0.62910  0.64994  1.0000
  C   C2634     1.0  0.67040  0.73806  0.60092  1.0000
  S   S716      1.0  0.67669  0.68143  0.66370  1.0000
  S   S717      1.0  0.67403  0.65840  0.63260  1.0000
  C   C2635     1.0  0.70153  0.54922  0.61663  1.0000
  C   C2636     1.0  0.71027  0.56655  0.61767  1.0000
  C   C2637     1.0  0.69941  0.58199  0.62649  1.0000
  C   C2638     1.0  0.67966  0.58019  0.63437  1.0000
  C   C2639     1.0  0.67091  0.56286  0.63333  1.0000
  C   C2640     1.0  0.68174  0.54746  0.62447  1.0000
  H   H3172     1.0  0.81301  0.93619  0.53748  1.0000
  H   H3173     1.0  0.88336  0.91471  0.47311  1.0000
  H   H3174     1.0  0.76865  0.66838  0.68372  1.0000
  H   H3175     1.0  0.67478  0.53428  0.62369  1.0000
  C   C2641     1.0  0.72933  0.74446  0.61246  1.0000
  H   H3176     1.0  0.76136  0.79548  0.63323  1.0000
  H   H3177     1.0  0.71635  0.70062  0.68404  1.0000
  C   C2642     1.0  0.80723  0.96409  0.52116  1.0000
  C   C2643     1.0  0.69264  0.74202  0.61948  1.0000
  C   C2644     1.0  0.78833  0.95717  0.54805  1.0000
  C   C2645     1.0  0.80375  0.95110  0.53573  1.0000
  H   H3178     1.0  0.78579  0.94700  0.55918  1.0000
  H   H3179     1.0  0.81101  0.74636  0.69880  1.0000
  C   C2646     1.0  0.75438  0.72794  0.64927  1.0000
  C   C2647     1.0  0.73396  0.72513  0.65480  1.0000
  C   C2648     1.0  0.72539  0.70990  0.64974  1.0000
  C   C2649     1.0  0.73723  0.69714  0.63923  1.0000
  C   C2650     1.0  0.75761  0.70004  0.63362  1.0000
  C   C2651     1.0  0.76619  0.71534  0.63863  1.0000
  H   H3180     1.0  0.72464  0.73498  0.66288  1.0000
  H   H3181     1.0  0.70955  0.70826  0.65381  1.0000
  H   H3182     1.0  0.76686  0.69036  0.62538  1.0000
  H   H3183     1.0  0.78191  0.71739  0.63424  1.0000
  C   C2652     1.0  0.83398  0.78221  0.70144  1.0000
  C   C2653     1.0  0.98156  0.65633  0.53231  1.0000
  H   H3184     1.0  0.95419  0.84902  0.50743  1.0000
  C   C2654     1.0  0.81562  0.79581  0.70161  1.0000
  H   H3185     1.0  0.76586  0.94998  0.65711  1.0000
  C   C2655     1.0  0.85171  0.57402  0.48184  1.0000
  H   H3186     1.0  0.80689  0.79788  0.69175  1.0000
  C   C2656     1.0  0.79877  0.84543  0.61885  1.0000
  C   C2657     1.0  0.79671  0.86198  0.60648  1.0000
  C   C2658     1.0  0.78576  0.88111  0.60964  1.0000
  C   C2659     1.0  0.77720  0.88389  0.62530  1.0000
  C   C2660     1.0  0.77879  0.86720  0.63761  1.0000
  C   C2661     1.0  0.78926  0.84792  0.63436  1.0000
  H   H3187     1.0  0.80396  0.86010  0.59443  1.0000
  H   H3188     1.0  0.78470  0.89390  0.60009  1.0000
  H   H3189     1.0  0.77215  0.86928  0.64974  1.0000
  H   H3190     1.0  0.79036  0.83518  0.64390  1.0000
  H   H3191     1.0  0.68329  0.48944  0.50872  1.0000
  H   H3192     1.0  0.96064  0.90030  0.48321  1.0000
  C   C2662     1.0  0.76862  0.49782  0.53024  1.0000
  C   C2663     1.0  0.84493  0.77937  0.71447  1.0000
  H   H3193     1.0  0.76995  0.51375  0.53006  1.0000
  N   N178      1.0  0.72567  0.50214  0.65355  1.0000
  C   C2664     1.0  0.93210  0.73925  0.59994  1.0000
  C   C2665     1.0  0.91743  0.75507  0.60559  1.0000
  C   C2666     1.0  0.89727  0.75166  0.61185  1.0000
  C   C2667     1.0  0.89154  0.73233  0.61254  1.0000
  C   C2668     1.0  0.90636  0.71639  0.60721  1.0000
  C   C2669     1.0  0.92656  0.71979  0.60103  1.0000
  H   H3194     1.0  0.92158  0.77016  0.60489  1.0000
  H   H3195     1.0  0.88606  0.76409  0.61584  1.0000
  H   H3196     1.0  0.90211  0.70138  0.60780  1.0000
  H   H3197     1.0  0.93785  0.70743  0.59711  1.0000
  C   C2670     1.0  0.79520  0.98334  0.51905  1.0000
  S   S718      1.0  0.68224  0.92524  0.59900  1.0000
  H   H3198     1.0  0.72269  0.53366  0.65777  1.0000
  N   N179      1.0  0.73668  0.67458  0.69347  1.0000
  H   H3199     1.0  0.89926  0.53832  0.49459  1.0000
  H   H3200     1.0  0.95830  0.89517  0.50463  1.0000
  H   H3201     1.0  0.92217  0.69944  0.53553  1.0000
  H   H3202     1.0  0.74268  0.88432  0.60774  1.0000
  S   S719      1.0  0.68288  0.64148  0.70413  1.0000
  N   N180      1.0  0.94172  0.87728  0.49380  1.0000
  H   H3203     1.0  0.72619  0.86935  0.59016  1.0000
  H   H3204     1.0  0.97008  0.62135  0.51136  1.0000
  H   H3205     1.0  0.70220  0.88437  0.59517  1.0000
  C   C2671     1.0  0.92265  0.89226  0.49442  1.0000
  C   C2672     1.0  0.75597  0.48787  0.54291  1.0000
  C   C2673     1.0  0.98765  0.73919  0.63494  1.0000
  H   H3206     1.0  0.88455  0.76507  0.57551  1.0000
  H   H3207     1.0  0.93811  0.67577  0.54158  1.0000
  H   H3208     1.0  0.75145  0.66930  0.66971  1.0000
  C   C2674     1.0  0.89233  0.91109  0.48295  1.0000
  C   C2675     1.0  0.94060  0.86124  0.50805  1.0000
  S   S720      1.0  0.71191  0.97639  0.59318  1.0000
  H   H3209     1.0  0.74847  0.52166  0.65225  1.0000
  C   C2676     1.0  0.67930  0.71005  0.62138  1.0000
  H   H3210     1.0  0.75351  0.85135  0.60108  1.0000
  H   H3211     1.0  0.92099  0.75910  0.56378  1.0000
  H   H3212     1.0  0.66060  0.68302  0.70298  1.0000
  H   H3213     1.0  0.70798  0.83895  0.64261  1.0000
  C   C2677     1.0  0.97577  0.63468  0.51356  1.0000
  C   C2678     1.0  0.90179  0.53840  0.48176  1.0000
  H   H3214     1.0  0.69135  0.70307  0.61248  1.0000
  H   H3215     1.0  0.96750  0.62890  0.53920  1.0000
  H   H3216     1.0  0.89707  0.67196  0.57440  1.0000
  H   H3217     1.0  0.76020  0.97504  0.72118  1.0000
  C   C2679     1.0  0.73863  0.68478  0.70715  1.0000
  H   H3218     1.0  0.92676  0.85369  0.50911  1.0000
  C   C2680     1.0  0.75637  0.69328  0.70819  1.0000
  C   C2681     1.0  0.75211  0.81002  0.62971  1.0000
  H   H3219     1.0  0.79447  0.81748  0.71466  1.0000
  H   H3220     1.0  0.72883  0.80631  0.64994  1.0000
  H   H3221     1.0  0.70408  0.85692  0.59785  1.0000
  C   C2682     1.0  0.93168  0.69129  0.54481  1.0000
  H   H3222     1.0  0.88096  0.51681  0.48250  1.0000
  H   H3223     1.0  0.85915  0.76888  0.71442  1.0000
  H   H3224     1.0  0.68481  0.70550  0.63320  1.0000
  Fe  Fe361     1.0  0.72339  0.97445  0.61687  1.0000
  C   C2683     1.0  0.75380  0.67635  0.68008  1.0000
  H   H3225     1.0  0.74097  0.76543  0.62393  1.0000
  H   H3226     1.0  0.68642  0.86107  0.62595  1.0000
  H   H3227     1.0  0.68344  0.73216  0.59224  1.0000
  C   C2684     1.0  0.88561  0.92030  0.49669  1.0000
  C   C2685     1.0  0.78378  0.97114  0.68466  1.0000
  H   H3228     1.0  0.79771  0.96973  0.68984  1.0000
  N   N181      1.0  0.91960  0.69021  0.56107  1.0000
  C   C2686     1.0  0.97425  0.63904  0.52930  1.0000
  C   C2687     1.0  0.97069  0.52089  0.47958  1.0000
  C   C2688     1.0  0.98448  0.64772  0.50071  1.0000
  C   C2689     1.0  0.90939  0.71088  0.56430  1.0000
  C   C2690     1.0  0.92074  0.72750  0.56165  1.0000
  C   C2691     1.0  0.88851  0.71483  0.57117  1.0000
  C   C2692     1.0  0.91175  0.74689  0.56536  1.0000
  C   C2693     1.0  0.87969  0.73429  0.57490  1.0000
  C   C2694     1.0  0.89126  0.75027  0.57200  1.0000
  H   H3229     1.0  0.87896  0.97909  0.52381  1.0000
  C   C2695     1.0  0.72822  0.88515  0.61624  1.0000
  C   C2696     1.0  0.70856  0.76573  0.63094  1.0000
  H   H3230     1.0  0.83590  0.53810  0.49250  1.0000
  Fe  Fe362     1.0  0.83537  0.97205  0.48104  1.0000
  H   H3231     1.0  0.94616  0.69116  0.57206  1.0000
  C   C2697     1.0  0.95264  0.49471  0.49533  1.0000
  H   H3232     1.0  0.96012  0.49456  0.50605  1.0000
  C   C2698     1.0  0.73233  0.52266  0.65020  1.0000
  H   H3233     1.0  0.93687  0.72549  0.55728  1.0000
  H   H3234     1.0  0.87879  0.70308  0.57428  1.0000
  H   H3235     1.0  0.98531  0.72722  0.64551  1.0000
  H   H3236     1.0  0.86401  0.73677  0.58080  1.0000
  H   H3237     1.0  0.94031  0.86735  0.51938  1.0000
  N   N182      1.0  0.84296  0.83510  0.66210  1.0000
  C   C2699     1.0  0.82811  0.82182  0.66050  1.0000
  C   C2700     1.0  0.86327  0.82727  0.65363  1.0000
  C   C2701     1.0  0.84498  0.83311  0.67937  1.0000
  C   C2702     1.0  0.83570  0.85628  0.65495  1.0000
  C   C2703     1.0  0.83545  0.86115  0.63817  1.0000
  C   C2704     1.0  0.82707  0.87210  0.66438  1.0000
  C   C2705     1.0  0.82737  0.88065  0.63127  1.0000
  C   C2706     1.0  0.81879  0.89149  0.65734  1.0000
  H   H3238     1.0  0.94109  0.66595  0.57157  1.0000
  H   H3239     1.0  0.82674  0.82157  0.64774  1.0000
  H   H3240     1.0  0.83275  0.80574  0.66582  1.0000
  H   H3241     1.0  0.81258  0.82715  0.66661  1.0000
  H   H3242     1.0  0.86265  0.82522  0.64110  1.0000
  H   H3243     1.0  0.86948  0.81178  0.65948  1.0000
  H   H3244     1.0  0.87456  0.83776  0.65341  1.0000
  H   H3245     1.0  0.82989  0.83623  0.68691  1.0000
  H   H3246     1.0  0.85152  0.81722  0.68414  1.0000
  H   H3247     1.0  0.85527  0.84351  0.68148  1.0000
  H   H3248     1.0  0.84058  0.84966  0.63028  1.0000
  H   H3249     1.0  0.82609  0.86974  0.67726  1.0000
  C   C2707     1.0  0.72832  0.84845  0.62070  1.0000
  H   H3250     1.0  0.91307  0.66041  0.55864  1.0000
  S   S721      1.0  0.86891  0.97461  0.47413  1.0000
  H   H3251     1.0  0.69774  0.48964  0.65528  1.0000
  H   H3252     1.0  0.74423  0.73905  0.60624  1.0000
  H   H3253     1.0  0.69841  0.87367  0.63845  1.0000
  H   H3254     1.0  0.73494  0.49753  0.62883  1.0000
  C   C2708     1.0  0.77822  0.75084  0.70096  1.0000
  S   S722      1.0  0.97967  0.66103  0.55227  1.0000
  H   H3255     1.0  0.81177  0.90317  0.66475  1.0000
  C   C2709     1.0  0.66555  0.94164  0.57093  1.0000
  H   H3256     1.0  0.72556  0.56805  0.61163  1.0000
  H   H3257     1.0  0.70630  0.59526  0.62718  1.0000
  H   H3258     1.0  0.97411  0.87721  0.49288  1.0000
  H   H3259     1.0  0.71941  0.90058  0.61305  1.0000
  C   C2710     1.0  0.66535  0.92689  0.58459  1.0000
  C   C2711     1.0  0.67548  0.65834  0.71853  1.0000
  H   H3260     1.0  0.89348  0.68137  0.55375  1.0000
  C   C2712     1.0  0.73735  0.48991  0.64112  1.0000
  H   H3261     1.0  0.66552  0.70262  0.62171  1.0000
  N   N183      1.0  0.71633  0.86860  0.61568  1.0000
  C   C2713     1.0  0.74880  0.97362  0.67025  1.0000
  Fe  Fe363     1.0  0.98120  0.72408  0.57687  1.0000
  H   H3262     1.0  0.73236  0.88451  0.62842  1.0000
  C   C2714     1.0  0.77960  0.48729  0.51783  1.0000
  H   H3263     1.0  0.77327  0.81806  0.60880  1.0000
  H   H3264     1.0  0.87133  0.93080  0.49759  1.0000
  H   H3265     1.0  0.81177  0.91052  0.63546  1.0000
  N   N184      1.0  0.96669  0.49953  0.48038  1.0000
  C   C2715     1.0  0.93361  0.68185  0.57306  1.0000
  C   C2716     1.0  0.72192  0.83508  0.63472  1.0000
  C   C2717     1.0  0.72259  0.68599  0.72020  1.0000
  S   S723      1.0  0.97643  0.58370  0.48579  1.0000
  C   C2718     1.0  0.78353  0.95851  0.67321  1.0000
  H   H3266     1.0  0.67640  0.95238  0.56877  1.0000
  H   H3267     1.0  0.98115  0.80580  0.52444  1.0000
  H   H3268     1.0  0.70808  0.51678  0.68152  1.0000
  H   H3269     1.0  0.74763  0.49615  0.55239  1.0000
  H   H3270     1.0  0.74552  0.75569  0.70656  1.0000
  C   C2719     1.0  0.77171  0.98559  0.71673  1.0000
  H   H3271     1.0  0.73131  0.52978  0.63756  1.0000
  H   H3272     1.0  0.87219  0.58926  0.49118  1.0000
  H   H3273     1.0  0.94530  0.69912  0.54379  1.0000
  C   C2720     1.0  0.91060  0.89735  0.48170  1.0000
  C   C2721     1.0  0.89731  0.91605  0.50921  1.0000
  H   H3274     1.0  0.71452  0.72423  0.60323  1.0000
  H   H3275     1.0  0.75525  0.69269  0.67545  1.0000
  C   C2722     1.0  0.73599  0.65247  0.69904  1.0000
  C   C2723     1.0  0.71746  0.68367  0.68689  1.0000
  H   H3276     1.0  0.75017  0.64490  0.70401  1.0000
  H   H3277     1.0  0.73530  0.97472  0.66447  1.0000
  H   H3278     1.0  0.67720  0.76274  0.63666  1.0000
  C   C2724     1.0  0.89125  0.52632  0.47491  1.0000
  H   H3279     1.0  0.93294  0.85855  0.47856  1.0000
  C   C2725     1.0  0.81888  0.89573  0.64083  1.0000
  C   C2726     1.0  0.71206  0.86976  0.59903  1.0000
  H   H3280     1.0  0.72287  0.64989  0.70859  1.0000
  H   H3281     1.0  0.73407  0.64429  0.68916  1.0000
  C   C2727     1.0  0.71969  0.49323  0.69907  1.0000
  H   H3282     1.0  0.70359  0.68018  0.69526  1.0000
  H   H3283     1.0  0.71640  0.67746  0.67581  1.0000
  S   S724      1.0  0.98083  0.72071  0.55112  1.0000
  C   C2728     1.0  0.70371  0.50454  0.65175  1.0000
  C   C2729     1.0  0.75991  0.75403  0.71123  1.0000
  C   C2730     1.0  0.74725  0.84177  0.61156  1.0000
  C   C2731     1.0  0.65957  0.48918  0.55092  1.0000
  C   C2732     1.0  0.90505  0.67544  0.56200  1.0000
  C   C2733     1.0  0.72751  0.75933  0.62242  1.0000
  S   S725      1.0  0.69485  0.49158  0.58294  1.0000
  C   C2734     1.0  0.75877  0.82275  0.61593  1.0000
  H   H3284     1.0  0.82681  0.88378  0.61848  1.0000
  H   H3285     1.0  0.70117  0.51022  0.63916  1.0000
  S   S726      1.0  0.98654  0.64322  0.48069  1.0000
  H   H3286     1.0  0.75410  0.48786  0.64147  1.0000
  H   H3287     1.0  0.84774  0.52687  0.47502  1.0000
  H   H3288     1.0  0.98654  0.71869  0.61098  1.0000
  C   C2735     1.0  0.95941  0.88797  0.49367  1.0000
  H   H3289     1.0  0.66979  0.49613  0.55613  1.0000
  C   C2736     1.0  0.71803  0.50232  0.68330  1.0000
  C   C2737     1.0  0.71220  0.73595  0.61093  1.0000
  C   C2738     1.0  0.66506  0.67809  0.71477  1.0000
  S   S727      1.0  0.92643  0.56741  0.48113  1.0000
  N   N185      1.0  0.67477  0.73268  0.61766  1.0000
  H   H3290     1.0  0.82100  0.52685  0.48189  1.0000
  H   H3291     1.0  0.79697  0.94777  0.66981  1.0000
  H   H3292     1.0  0.86223  0.97378  0.51145  1.0000
  H   H3293     1.0  0.70739  0.77700  0.63893  1.0000
  H   H3294     1.0  0.97701  0.52308  0.49034  1.0000
  H   H3295     1.0  0.78708  0.97618  0.71547  1.0000
  H   H3296     1.0  0.77805  0.75012  0.68839  1.0000
  C   C2739     1.0  0.83365  0.53614  0.48031  1.0000
  H   H3297     1.0  0.71105  0.50055  0.70899  1.0000
  H   H3298     1.0  0.81102  0.56984  0.48976  1.0000
  C   C2740     1.0  0.72856  0.49266  0.67009  1.0000
  C   C2741     1.0  0.91563  0.90237  0.50809  1.0000
  C   C2742     1.0  0.94583  0.86663  0.47943  1.0000
  C   C2743     1.0  0.79676  0.74870  0.70684  1.0000
  C   C2744     1.0  0.86793  0.58514  0.48057  1.0000
  H   H3299     1.0  0.93847  0.50623  0.49608  1.0000
  H   H3300     1.0  0.98956  0.75332  0.63942  1.0000
  H   H3301     1.0  0.79669  0.55941  0.47822  1.0000
  H   H3302     1.0  0.84363  0.57005  0.49366  1.0000
  H   H3303     1.0  0.76937  0.69316  0.69886  1.0000
  S   S728      1.0  0.66520  0.59906  0.64562  1.0000
  Fe  Fe364     1.0  0.98040  0.61471  0.47220  1.0000
  C   C2745     1.0  0.80860  0.80686  0.71460  1.0000
  H   H3304     1.0  0.95646  0.53217  0.47906  1.0000
  C   C2746     1.0  0.81010  0.56759  0.47734  1.0000
  H   H3305     1.0  0.97326  0.74278  0.62937  1.0000
  H   H3306     1.0  0.69490  0.50304  0.53216  1.0000
  H   H3307     1.0  0.89207  0.92336  0.51985  1.0000
  C   C2747     1.0  0.76643  0.98545  0.68929  1.0000
  H   H3308     1.0  0.92427  0.89972  0.51803  1.0000
  H   H3309     1.0  0.70875  0.67973  0.72033  1.0000
  C   C2748     1.0  0.74892  0.98644  0.68160  1.0000
  C   C2749     1.0  0.99031  0.66931  0.51946  1.0000
  S   S729      1.0  0.75765  0.98533  0.56149  1.0000
  C   C2750     1.0  0.91515  0.55098  0.47211  1.0000
  H   H3310     1.0  0.65783  0.73520  0.64119  1.0000
  C   C2751     1.0  0.87052  0.98593  0.51362  1.0000
  C   C2752     1.0  0.70115  0.48672  0.53578  1.0000
  C   C2753     1.0  0.75778  0.70230  0.72154  1.0000
  C   C2754     1.0  0.70959  0.49856  0.90952  1.0000
  C   C2755     1.0  0.84026  0.58404  0.82713  1.0000
  H   H3311     1.0  0.87719  0.86335  0.81914  1.0000
  C   C2756     1.0  0.98159  0.63557  0.88682  1.0000
  Fe  Fe365     1.0  0.74435  0.53259  0.85517  1.0000
  S   S730      1.0  0.77093  0.52472  0.83648  1.0000
  S   S731      1.0  0.72056  0.56113  0.85469  1.0000
  Fe  Fe366     1.0  0.78773  0.51044  0.85747  1.0000
  S   S732      1.0  0.82159  0.51360  0.85624  1.0000
  S   S733      1.0  0.76163  0.52043  0.87609  1.0000
  C   C2757     1.0  0.76005  0.75506  0.72743  1.0000
  Fe  Fe367     1.0  0.94620  0.53905  0.91126  1.0000
  S   S734      1.0  0.91634  0.53939  0.92802  1.0000
  H   H3312     1.0  0.72651  0.72298  0.83806  1.0000
  Fe  Fe368     1.0  0.93311  0.58126  0.89326  1.0000
  S   S735      1.0  0.90257  0.58419  0.90856  1.0000
  S   S736      1.0  0.93752  0.60870  0.87400  1.0000
  Fe  Fe369     1.0  0.91963  0.57186  0.92941  1.0000
  S   S737      1.0  0.91136  0.58913  0.95097  1.0000
  Fe  Fe370     1.0  0.90142  0.55162  0.90578  1.0000
  S   S738      1.0  0.86875  0.54715  0.90367  1.0000
  S   S739      1.0  0.95029  0.57102  0.91424  1.0000
  S   S740      1.0  0.93118  0.54925  0.88883  1.0000
  H   H3313     1.0  0.84883  0.61094  0.87558  1.0000
  C   C2758     1.0  0.70639  0.70402  0.85359  1.0000
  S   S741      1.0  0.79885  0.95217  0.85652  1.0000
  H   H3314     1.0  0.87079  0.61761  0.83113  1.0000
  Fe  Fe371     1.0  0.80251  0.95580  0.82963  1.0000
  S   S742      1.0  0.81360  0.93183  0.81273  1.0000
  H   H3315     1.0  0.90003  0.63692  0.91075  1.0000
  Fe  Fe372     1.0  0.82113  0.80612  0.76797  1.0000
  S   S743      1.0  0.83757  0.77440  0.77407  1.0000
  S   S744      1.0  0.81039  0.81796  0.74381  1.0000
  Fe  Fe373     1.0  0.81729  0.81551  0.80227  1.0000
  S   S745      1.0  0.83277  0.78389  0.81103  1.0000
  S   S746      1.0  0.80685  0.83668  0.82131  1.0000
  Fe  Fe374     1.0  0.85516  0.78844  0.78868  1.0000
  S   S747      1.0  0.88981  0.78069  0.78754  1.0000
  Fe  Fe375     1.0  0.81378  0.77250  0.79587  1.0000
  S   S748      1.0  0.80046  0.74265  0.80149  1.0000
  S   S749      1.0  0.84071  0.82074  0.78055  1.0000
  S   S750      1.0  0.79629  0.80357  0.78911  1.0000
  H   H3316     1.0  0.94013  0.80634  0.80588  1.0000
  C   C2759     1.0  0.77876  0.75306  0.73380  1.0000
  H   H3317     1.0  0.67852  0.60457  0.80416  1.0000
  Fe  Fe376     1.0  0.97156  0.74356  0.84923  1.0000
  S   S751      1.0  0.93788  0.75578  0.84797  1.0000
  H   H3318     1.0  0.94139  0.98509  0.94149  1.0000
  Fe  Fe377     1.0  0.69326  0.71111  0.80255  1.0000
  S   S752      1.0  0.70554  0.69274  0.78249  1.0000
  S   S753      1.0  0.70543  0.73958  0.80572  1.0000
  Fe  Fe378     1.0  0.67276  0.69394  0.77938  1.0000
  Fe  Fe379     1.0  0.70012  0.66540  0.80108  1.0000
  S   S754      1.0  0.72554  0.63835  0.80100  1.0000
  S   S755      1.0  0.69004  0.68376  0.82148  1.0000
  C   C2760     1.0  0.67668  0.66559  0.74538  1.0000
  H   H3319     1.0  0.68127  0.66071  0.75713  1.0000
  C   C2761     1.0  0.90282  0.77206  0.80445  1.0000
  C   C2762     1.0  0.92423  0.76670  0.80218  1.0000
  C   C2763     1.0  0.93520  0.76101  0.81537  1.0000
  C   C2764     1.0  0.92483  0.76098  0.83096  1.0000
  C   C2765     1.0  0.90339  0.76604  0.83322  1.0000
  C   C2766     1.0  0.89242  0.77132  0.82005  1.0000
  H   H3320     1.0  0.93240  0.76718  0.79015  1.0000
  H   H3321     1.0  0.95168  0.75719  0.81345  1.0000
  H   H3322     1.0  0.89524  0.76598  0.84523  1.0000
  H   H3323     1.0  0.87595  0.77503  0.82195  1.0000
  C   C2767     1.0  0.77396  0.74207  0.80291  1.0000
  C   C2768     1.0  0.76727  0.72375  0.80146  1.0000
  C   C2769     1.0  0.74633  0.72288  0.80197  1.0000
  C   C2770     1.0  0.73189  0.74023  0.80433  1.0000
  C   C2771     1.0  0.73856  0.75850  0.80591  1.0000
  C   C2772     1.0  0.75953  0.75948  0.80511  1.0000
  H   H3324     1.0  0.77837  0.71021  0.79979  1.0000
  H   H3325     1.0  0.74132  0.70872  0.80079  1.0000
  H   H3326     1.0  0.72744  0.77196  0.80779  1.0000
  H   H3327     1.0  0.76451  0.77363  0.80633  1.0000
  C   C2773     1.0  0.81331  0.90498  0.81568  1.0000
  C   C2774     1.0  0.81812  0.89442  0.80232  1.0000
  C   C2775     1.0  0.81679  0.87337  0.80390  1.0000
  C   C2776     1.0  0.81035  0.86273  0.81887  1.0000
  C   C2777     1.0  0.80623  0.87310  0.83233  1.0000
  C   C2778     1.0  0.80803  0.89405  0.83078  1.0000
  H   H3328     1.0  0.82250  0.90269  0.79061  1.0000
  H   H3329     1.0  0.82010  0.86556  0.79345  1.0000
  H   H3330     1.0  0.80155  0.86491  0.84399  1.0000
  H   H3331     1.0  0.80534  0.90175  0.84123  1.0000
  H   H3332     1.0  0.71577  0.50947  0.89992  1.0000
  C   C2779     1.0  0.70299  0.68402  0.85987  1.0000
  C   C2780     1.0  0.69350  0.50531  0.92111  1.0000
  C   C2781     1.0  0.95412  0.62622  0.87538  1.0000
  C   C2782     1.0  0.96873  0.62133  0.88590  1.0000
  H   H3333     1.0  0.90623  0.63581  0.94512  1.0000
  H   H3334     1.0  0.95927  0.92056  0.86481  1.0000
  C   C2783     1.0  0.96522  0.65988  0.86690  1.0000
  C   C2784     1.0  0.95249  0.64553  0.86585  1.0000
  H   H3335     1.0  0.97027  0.60648  0.89321  1.0000
  H   H3336     1.0  0.89368  0.67153  0.90665  1.0000
  H   H3337     1.0  0.96362  0.67479  0.85965  1.0000
  H   H3338     1.0  0.94119  0.64952  0.85773  1.0000
  C   C2785     1.0  0.72206  0.58202  0.83927  1.0000
  C   C2786     1.0  0.74015  0.58427  0.82882  1.0000
  C   C2787     1.0  0.74092  0.60144  0.81690  1.0000
  C   C2788     1.0  0.72368  0.61648  0.81545  1.0000
  C   C2789     1.0  0.70553  0.61408  0.82577  1.0000
  C   C2790     1.0  0.70474  0.59690  0.83766  1.0000
  H   H3339     1.0  0.75364  0.57300  0.83013  1.0000
  H   H3340     1.0  0.75502  0.60327  0.80894  1.0000
  H   H3341     1.0  0.69206  0.62540  0.82448  1.0000
  H   H3342     1.0  0.69065  0.59510  0.84563  1.0000
  C   C2791     1.0  0.83447  0.52171  0.87024  1.0000
  C   C2792     1.0  0.85602  0.51946  0.86777  1.0000
  C   C2793     1.0  0.86687  0.52649  0.87812  1.0000
  C   C2794     1.0  0.85625  0.53618  0.89100  1.0000
  C   C2795     1.0  0.83472  0.53830  0.89352  1.0000
  C   C2796     1.0  0.82390  0.53108  0.88327  1.0000
  H   H3343     1.0  0.86439  0.51224  0.85774  1.0000
  H   H3344     1.0  0.88341  0.52458  0.87603  1.0000
  H   H3345     1.0  0.82630  0.54573  0.90342  1.0000
  H   H3346     1.0  0.80736  0.53300  0.88534  1.0000
  N   N186      1.0  0.71286  0.64572  0.86205  1.0000
  H   H3347     1.0  0.80711  0.76807  0.74695  1.0000
  H   H3348     1.0  0.90426  0.97263  0.87065  1.0000
  C   C2797     1.0  0.98710  0.96664  0.90578  1.0000
  H   H3349     1.0  0.73069  0.63076  0.84273  1.0000
  H   H3350     1.0  0.94455  0.55622  0.95756  1.0000
  C   C2798     1.0  0.96670  0.97689  0.86415  1.0000
  H   H3351     1.0  0.83225  0.55853  0.84458  1.0000
  H   H3352     1.0  0.83155  0.58081  0.81846  1.0000
  H   H3353     1.0  0.85089  0.61023  0.81209  1.0000
  H   H3354     1.0  0.74529  0.75753  0.73468  1.0000
  H   H3355     1.0  0.68742  0.52145  0.92035  1.0000
  H   H3356     1.0  0.74679  0.65882  0.84085  1.0000
  H   H3357     1.0  0.69335  0.64616  0.84442  1.0000
  H   H3358     1.0  0.75571  0.52841  0.80448  1.0000
  C   C2799     1.0  0.69316  0.64280  0.85760  1.0000
  C   C2800     1.0  0.89429  0.82452  0.82701  1.0000
  C   C2801     1.0  0.92544  0.66513  0.91126  1.0000
  C   C2802     1.0  0.93580  0.80975  0.83076  1.0000
  C   C2803     1.0  0.86701  0.83038  0.80966  1.0000
  H   H3359     1.0  0.75123  0.55506  0.80693  1.0000
  C   C2804     1.0  0.96128  0.93638  0.86449  1.0000
  C   C2805     1.0  0.66049  0.69155  0.72630  1.0000
  C   C2806     1.0  0.92193  0.81575  0.84373  1.0000
  H   H3360     1.0  0.69839  0.65306  0.88535  1.0000
  Fe  Fe380     1.0  0.75097  0.49063  0.87508  1.0000
  C   C2807     1.0  0.72409  0.70746  0.84312  1.0000
  H   H3361     1.0  0.92698  0.81413  0.85535  1.0000
  H   H3362     1.0  0.96472  0.50310  0.88699  1.0000
  C   C2808     1.0  0.73945  0.98197  0.89644  1.0000
  H   H3363     1.0  0.87036  0.81426  0.80705  1.0000
  C   C2809     1.0  0.66636  0.68537  0.74159  1.0000
  H   H3364     1.0  0.91479  0.61628  0.92155  1.0000
  H   H3365     1.0  0.71144  0.69595  0.74316  1.0000
  H   H3366     1.0  0.87022  0.60158  0.88648  1.0000
  H   H3367     1.0  0.95810  0.66557  0.91186  1.0000
  H   H3368     1.0  0.72497  0.61375  0.86069  1.0000
  C   C2810     1.0  0.94683  0.97290  0.86312  1.0000
  H   H3369     1.0  0.68991  0.62679  0.86144  1.0000
  H   H3370     1.0  0.91283  0.66127  0.94284  1.0000
  C   C2811     1.0  0.73849  0.69092  0.83891  1.0000
  C   C2812     1.0  0.71132  0.64262  0.87975  1.0000
  C   C2813     1.0  0.97987  0.65493  0.87738  1.0000
  H   H3371     1.0  0.73666  0.56826  0.77104  1.0000
  H   H3372     1.0  0.85042  0.83556  0.80907  1.0000
  H   H3373     1.0  0.85506  0.58417  0.88271  1.0000
  S   S756      1.0  0.66822  0.66511  0.79627  1.0000
  C   C2814     1.0  0.86258  0.60467  0.83472  1.0000
  H   H3374     1.0  0.67984  0.65295  0.86302  1.0000
  C   C2815     1.0  0.72886  0.62941  0.85602  1.0000
  H   H3375     1.0  0.78277  0.72113  0.75740  1.0000
  H   H3376     1.0  0.89714  0.61282  0.84622  1.0000
  H   H3377     1.0  0.74428  0.97502  0.94915  1.0000
  H   H3378     1.0  0.73067  0.53405  0.77659  1.0000
  S   S757      1.0  0.81806  0.98405  0.82597  1.0000
  Fe  Fe381     1.0  0.81244  0.98168  0.85287  1.0000
  H   H3379     1.0  0.81193  0.74860  0.72680  1.0000
  C   C2816     1.0  0.88565  0.61424  0.85713  1.0000
  C   C2817     1.0  0.89136  0.57786  0.86470  1.0000
  N   N187      1.0  0.87529  0.59576  0.86193  1.0000
  H   H3380     1.0  0.90147  0.58039  0.87306  1.0000
  C   C2818     1.0  0.86321  0.59222  0.84987  1.0000
  H   H3381     1.0  0.96036  0.69725  0.89401  1.0000
  H   H3382     1.0  0.74394  0.62991  0.85966  1.0000
  H   H3383     1.0  0.68401  0.97341  0.91511  1.0000
  C   C2819     1.0  0.98058  0.94091  0.86533  1.0000
  C   C2820     1.0  0.71717  0.66676  0.85561  1.0000
  C   C2821     1.0  0.85119  0.60058  0.82358  1.0000
  H   H3384     1.0  0.88483  0.56367  0.87010  1.0000
  H   H3385     1.0  0.89139  0.82778  0.85230  1.0000
  H   H3386     1.0  0.94855  0.64467  0.93507  1.0000
  H   H3387     1.0  0.75489  0.98438  0.89135  1.0000
  H   H3388     1.0  0.90123  0.57468  0.85332  1.0000
  C   C2822     1.0  0.94457  0.95206  0.86340  1.0000
  H   H3389     1.0  0.77148  0.70859  0.72211  1.0000
  S   S758      1.0  0.73181  0.50345  0.85560  1.0000
  N   N188      1.0  0.87244  0.83188  0.82553  1.0000
  C   C2823     1.0  0.90895  0.81862  0.81393  1.0000
  H   H3390     1.0  0.75218  0.69373  0.83066  1.0000
  C   C2824     1.0  0.86744  0.85368  0.82803  1.0000
  C   C2825     1.0  0.90849  0.67661  0.90418  1.0000
  N   N189      1.0  0.77959  0.75390  0.75088  1.0000
  C   C2826     1.0  0.69943  0.97582  0.90997  1.0000
  C   C2827     1.0  0.75910  0.75753  0.76056  1.0000
  C   C2828     1.0  0.79056  0.73428  0.75815  1.0000
  Fe  Fe382     1.0  0.76864  0.97279  0.85512  1.0000
  C   C2829     1.0  0.92939  0.81145  0.81587  1.0000
  C   C2830     1.0  0.92901  0.70221  0.89000  1.0000
  S   S759      1.0  0.98797  0.71420  0.84074  1.0000
  C   C2831     1.0  0.85926  0.81963  0.83778  1.0000
  H   H3391     1.0  0.84644  0.78792  0.73746  1.0000
  H   H3392     1.0  0.93050  0.71624  0.88171  1.0000
  H   H3393     1.0  0.71744  0.52129  0.97098  1.0000
  H   H3394     1.0  0.90497  0.81870  0.80218  1.0000
  H   H3395     1.0  0.76034  0.75842  0.77321  1.0000
  H   H3396     1.0  0.75009  0.74489  0.76096  1.0000
  H   H3397     1.0  0.75020  0.77240  0.75605  1.0000
  H   H3398     1.0  0.79089  0.77241  0.76501  1.0000
  H   H3399     1.0  0.79147  0.73441  0.77101  1.0000
  S   S760      1.0  0.97305  0.51432  0.91676  1.0000
  H   H3400     1.0  0.70877  0.62669  0.88497  1.0000
  S   S761      1.0  0.83486  0.98418  0.86960  1.0000
  H   H3401     1.0  0.93005  0.94742  0.86293  1.0000
  H   H3402     1.0  0.72501  0.52102  0.82037  1.0000
  C   C2832     1.0  0.98384  0.49406  0.90560  1.0000
  H   H3403     1.0  0.85165  0.56542  0.86423  1.0000
  H   H3404     1.0  0.89438  0.61653  0.86657  1.0000
  C   C2833     1.0  0.84062  0.57154  0.84183  1.0000
  C   C2834     1.0  0.91035  0.69479  0.89364  1.0000
  C   C2835     1.0  0.70759  0.97074  0.89461  1.0000
  H   H3405     1.0  0.87446  0.62840  0.85500  1.0000
  H   H3406     1.0  0.68891  0.68220  0.86780  1.0000
  H   H3407     1.0  0.86020  0.82191  0.85017  1.0000
  N   N190      1.0  0.74400  0.91849  0.84186  1.0000
  C   C2836     1.0  0.72975  0.91371  0.85676  1.0000
  C   C2837     1.0  0.76321  0.92215  0.84658  1.0000
  C   C2838     1.0  0.73446  0.93771  0.83287  1.0000
  C   C2839     1.0  0.74886  0.90194  0.83167  1.0000
  C   C2840     1.0  0.76066  0.90506  0.81631  1.0000
  C   C2841     1.0  0.74313  0.88212  0.83688  1.0000
  C   C2842     1.0  0.76597  0.88951  0.80666  1.0000
  C   C2843     1.0  0.74886  0.86657  0.82720  1.0000
  C   C2844     1.0  0.76023  0.87026  0.81214  1.0000
  H   H3408     1.0  0.71507  0.91035  0.85406  1.0000
  H   H3409     1.0  0.73665  0.90054  0.86491  1.0000
  H   H3410     1.0  0.72592  0.92682  0.86382  1.0000
  H   H3411     1.0  0.77094  0.90799  0.85320  1.0000
  H   H3412     1.0  0.76038  0.93420  0.85453  1.0000
  H   H3413     1.0  0.77423  0.92724  0.83605  1.0000
  H   H3414     1.0  0.74507  0.94395  0.82254  1.0000
  H   H3415     1.0  0.72063  0.93522  0.82824  1.0000
  H   H3416     1.0  0.72979  0.95015  0.84052  1.0000
  H   H3417     1.0  0.76662  0.91930  0.81186  1.0000
  H   H3418     1.0  0.73461  0.87808  0.84848  1.0000
  H   H3419     1.0  0.77540  0.89213  0.79515  1.0000
  H   H3420     1.0  0.74492  0.85136  0.83152  1.0000
  H   H3421     1.0  0.76522  0.85796  0.80491  1.0000
  H   H3422     1.0  0.86354  0.80298  0.83698  1.0000
  H   H3423     1.0  0.86972  0.85592  0.84016  1.0000
  C   C2845     1.0  0.97704  0.49207  0.89141  1.0000
  H   H3424     1.0  0.72331  0.48955  0.94457  1.0000
  S   S762      1.0  0.73709  0.96751  0.86830  1.0000
  C   C2846     1.0  0.72764  0.97373  0.88780  1.0000
  H   H3425     1.0  0.92595  0.62854  0.90271  1.0000
  H   H3426     1.0  0.78374  0.78569  0.74623  1.0000
  C   C2847     1.0  0.68538  0.49143  0.93377  1.0000
  C   C2848     1.0  0.98329  0.96113  0.86508  1.0000
  H   H3427     1.0  0.70648  0.53061  0.78851  1.0000
  C   C2849     1.0  0.94245  0.63513  0.92801  1.0000
  S   S763      1.0  0.97741  0.73347  0.87483  1.0000
  C   C2850     1.0  0.79077  0.77070  0.75227  1.0000
  C   C2851     1.0  0.94423  0.67320  0.90734  1.0000
  H   H3428     1.0  0.94016  0.62048  0.93601  1.0000
  H   H3429     1.0  0.97925  0.59329  0.96879  1.0000
  H   H3430     1.0  0.95143  0.80328  0.83236  1.0000
  C   C2852     1.0  0.98576  0.62433  0.96358  1.0000
  C   C2853     1.0  0.81966  0.80405  0.72761  1.0000
  S   S764      1.0  0.66077  0.70283  0.75558  1.0000
  Fe  Fe383     1.0  0.75958  0.49434  0.83818  1.0000
  C   C2854     1.0  0.90803  0.65006  0.93647  1.0000
  H   H3431     1.0  0.69508  0.71698  0.85658  1.0000
  N   N191      1.0  0.72603  0.54452  0.79971  1.0000
  C   C2855     1.0  0.74832  0.54389  0.79957  1.0000
  C   C2856     1.0  0.71731  0.53668  0.81626  1.0000
  C   C2857     1.0  0.72304  0.53026  0.78903  1.0000
  C   C2858     1.0  0.71658  0.56557  0.79392  1.0000
  C   C2859     1.0  0.69969  0.57650  0.80291  1.0000
  C   C2860     1.0  0.72406  0.57566  0.77867  1.0000
  C   C2861     1.0  0.69112  0.59633  0.79699  1.0000
  C   C2862     1.0  0.71557  0.59561  0.77299  1.0000
  C   C2863     1.0  0.69920  0.60596  0.78218  1.0000
  H   H3432     1.0  0.70221  0.50956  0.96069  1.0000
  H   H3433     1.0  0.89731  0.70319  0.88818  1.0000
  H   H3434     1.0  0.68925  0.63683  0.73684  1.0000
  C   C2864     1.0  0.83775  0.79013  0.72755  1.0000
  S   S765      1.0  0.77122  0.97405  0.82843  1.0000
  H   H3435     1.0  0.71933  0.54656  0.82497  1.0000
  H   H3436     1.0  0.69828  0.96446  0.88799  1.0000
  N   N192      1.0  0.92311  0.64579  0.92222  1.0000
  H   H3437     1.0  0.70078  0.53555  0.81720  1.0000
  H   H3438     1.0  0.69304  0.57031  0.81471  1.0000
  C   C2865     1.0  0.73995  0.96695  0.96142  1.0000
  H   H3439     1.0  0.72183  0.60323  0.76149  1.0000
  H   H3440     1.0  0.95432  0.63099  0.91787  1.0000
  C   C2866     1.0  0.72406  0.69519  0.73340  1.0000
  H   H3441     1.0  0.72559  0.64542  0.88358  1.0000
  H   H3442     1.0  0.84280  0.82382  0.83627  1.0000
  C   C2867     1.0  0.94582  0.69152  0.89694  1.0000
  C   C2868     1.0  0.73517  0.67083  0.84495  1.0000
  H   H3443     1.0  0.80667  0.73114  0.75235  1.0000
  C   C2869     1.0  0.68115  0.65209  0.73389  1.0000
  H   H3444     1.0  0.72953  0.51414  0.79326  1.0000
  H   H3445     1.0  0.89255  0.65643  0.93328  1.0000
  C   C2870     1.0  0.92396  0.58045  0.96795  1.0000
  H   H3446     1.0  0.87528  0.84022  0.79981  1.0000
  H   H3447     1.0  0.75664  0.54741  0.78736  1.0000
  H   H3448     1.0  0.97548  0.95903  0.91366  1.0000
  C   C2871     1.0  0.91561  0.63136  0.91393  1.0000
  H   H3449     1.0  0.69293  0.62159  0.77792  1.0000
  H   H3450     1.0  0.85119  0.85991  0.82671  1.0000
  C   C2872     1.0  0.90153  0.82326  0.84189  1.0000
  C   C2873     1.0  0.85185  0.57558  0.85304  1.0000
  C   C2874     1.0  0.86175  0.59827  0.87728  1.0000
  C   C2875     1.0  0.79710  0.74992  0.72296  1.0000
  H   H3451     1.0  0.91182  0.97620  0.84912  1.0000
  H   H3452     1.0  0.98876  0.62426  0.95075  1.0000
  H   H3453     1.0  0.75160  0.95319  0.96360  1.0000
  H   H3454     1.0  0.72528  0.96162  0.96089  1.0000
  S   S766      1.0  0.66062  0.71476  0.79797  1.0000
  Fe  Fe384     1.0  0.65822  0.68593  0.81525  1.0000
  C   C2876     1.0  0.74165  0.70328  0.73410  1.0000
  H   H3455     1.0  0.74276  0.71025  0.74443  1.0000
  H   H3456     1.0  0.93417  0.97143  0.96903  1.0000
  S   S767      1.0  0.66609  0.50119  0.94853  1.0000
  C   C2877     1.0  0.93974  0.56385  0.96806  1.0000
  C   C2878     1.0  0.98731  0.64177  0.96999  1.0000
  C   C2879     1.0  0.71129  0.98397  0.91865  1.0000
  S   S768      1.0  0.66380  0.96006  0.97030  1.0000
  C   C2880     1.0  0.91004  0.98342  0.86019  1.0000
