data_image0
_chemical_formula_structural       CHFeHSHSHS2FeS2FeS2FeSFeS5CHCSHFeS2FeS2FeSFeS3C2FeHC2H3C6H4C6H4C2HC6H4C6H5C6H4NC8H15FeC3SHCH4SH3CH2CH2NC8H13CHSCHC2HCHC3H2NCSCH2CH2CSC2H4NC9H12C2NHC2HCHNCH5CSC3H2CHSH2FeH2CHCFeHC2NHFeCHCHCH3CHCHC2H3CFeS2FeS2FeSFeS3HSCSFeHFeHSCH2S2FeS2FeS2FeHFeS3C6H4C2H2C6H6C5H3C6H4C6H4C6H2CHNC9H14SHCH4CHC4H2CH2C3HCH3C5FeC2H3CSCNH9CH2CHNCH2CH2CHC4H2CNHCH2C3HSCH7C2H3CHCHCFeHC2H2CH4NHCH2FeHFeHNHCFeS2FeS2FeS2FeSFeS3H2SNCSCSH2FeSHSFeS2FeS2FeSFeS3H2C6H5C2HC6HCHC4H5C6H4C6H2SHC6H6C3HCNHNC9H14CHCH2CH5CH2CH4FeCH3C2FeHCHSH2SCHCH2CFeNH2C2HCH2NHCHC2H2SH3CH2CHC2H2C2SCH2C4H5CH2CH2FeS2FeS2FeSFeS3HCSFeHSCH3CS2FeS2FeS2FeSFeS4C3HC3FeH2C8H5C5H4C6H4C6H4C6H4SNC9H14CH5C2HC2H3FeHFeCH3NHC5HCH4NHCH2CSHNC9H13CSH4CHFeCH4CHCHC3H3CH4NC3HNH2NC3H3C3H3CHCHCH2CH4FeHCHSH4FeS2FeS2FeSFeS3FeS2FeS2FeSFeS4CHSHSH2CHC2H2C4H5C6H6C6H4C6H4C6H2CHC2SCH8CH4CHSH2CHCNHCH2C7H2C3HNC2NHCH5CH5CHC2H3FeH6CHFeHNCH2CH2C3H4CH3CHCH2CH2C3HSHFeS2FeS2FeSFeS3FeSFe2S2FeSFeS3H2C2HCHC4H4C6H4C6H4CSC6H4C6H3C2HCH3C2HCH3CHCH4C2H3C3HSC2HCH3NC2HC2H6SH5CHCH3CH2CHNHNH2NHN2H5C4H2CH5SHC3FeNC4HCH2SCH2SHCHCNCH4SH2SHC2HCH2C2HCH4FeCH5CHCHFeHCHCSCHSFeS2FeS2FeSFeS3FeS2FeS2FeSFeS3C2H2CH2C6HC2HC6H4C6H4C6H4C6H6CH4C2HC2H3CHNHCNCSHCH6CH5CHC2HNHCHC2H2C5H3C2H3C2H2NH2CH2CH2CHC2SC3H2NH2CH2CH3C2HCHFeH2C4H4CHC3H2CH3C2NC3H7CH5CH3S2HS2FeS2FeS2FeSFeS3FeS2FeSHFeSFeS4C5H2CHCH2C6H4C6H4C6H4C6H6CH3C2HCH2CH3C2HCNH3CHCH2CH3C4HSC2H3CHCNC2HCH2C2HCNH3CH3C2H2CH2C2H2FeCFeCH4NC5H2C2H9C5H3CHC2H2NH3CH2CHC2HCH3CHCNCH2C3H4CSHFeSFeS2FeS2FeSFeS3FeSCFeS2FeSFeS3C4HC2H2CHC6H4C6H4C6H4C6H4FeH3CHCNCH2CH2CH2CH5C2HCSHCH2CHNC6H12C2H3NC4H3C2H2CHC2HC2HC3NC6H14CH2CSC2H3C2H2CNH4CSCHSCHNHC3H2C2H3CH2CS2HSCFeS2FeS2FeSFeS3FeSHFeS2FeSFeS4C3SHCHCH2C6H4C6H4C6H4C6H5CHSHNCHC2HNCH4CH12CH2C3FeHCH4C3H2CH5CHCHCHCH3CHC3NC9H17CH4C2H4CHC2HCFeNC3H2NCH3C2HC2NC3HC2H2CNHCH2CFeS2FeS2FeSFeS3FeSHFeS2FeSFeS4FeHSC2SC2H2C2H3C6H4C6H4C6H4C6H6NH4CH4C2NHC2HCH2C2HCHCH3C3HCHCHCNHCH2CHCH4C3HNC9H14CHCHCH3CHSCSH2CHCNHC2H4CHCHC2HCHC2H4C2HNH3C3FeHC2H3CH2CSH3CHCHCH6C2H2C3S2HSHFeS2FeS2FeSFeS3FeS2FeS2Fe3S4C3HC2HCH2C6H4C6H4C6H4C6H4C4H2CH2C3H6C2HCHC3FeHCHSHSH3CHNC2HCNCHC2H4FeHC3HCH6SH2NC3HCHCHCH3CHC4HCH3CH5C2H3CNH4CHC3H6C2H2NH2C2HNH2CHCH2FeNH4CHC2H2CH7C3H4CSC3SFeS2FeS2FeSFeS3FeS3CSHCSFeSFeH2FeS2FeS2FeSFeS3C6H4C6H3C6H4C6H4C6SH5CH3C4H5NH4CHFeHC2H7CHCFeNC6SH10CH5NC9H14CHNC9H14NC6SHCH3CH2CHCH3CHC2HCH2SFeS2FeS2FeSFeS3C2HS2H2SCFeSH2FeS2FeS2FeSFeS3C7H4C7H4C6H4C6H4C6H4C2HCHC5H3C4H6FeHFeCH2C4H2CHNHCH5CHC4HCH5SH2CHC2HCHFeHNC6SH15C2NC3FeHC3H2C2H2CSC2H2CHC2SC2H5CHSCH2CH2CHCH3CFeH3C2SH2NC3HCSCH2CFeSHCFeS2FeS2FeSFeS4FeS2FeS2FeSFeS3HFeSH2SC6H4C6H4C6H4C6H4C7H4C3HC6H3CSHFeH4FeH3CH2CHCHCH5CH2CHC2H3C2HCHS2C2H3CHCH2CHSH3CNHCHCHC2HCH2NSH3C2HFeHC3HC3HCH7C3H2NH4NH6CH4C2HFeHC2N2H2C3HCS2HC3HSH2CNCH2C2H4FeS2FeS2FeSFeS3FeHSHS2HCSFeSCH2FeS2FeS2FeSFeCS2C6H4C6H3C6H4C6H4C7H3C3H2CHC6H3NCHCH10NC2HC3HC2H4CHCHNCH2CH2C2HC2SCH4CH2CH2CHCHNC4H12C2HC4H5C2H2NH2CSCHSH6FeC4H2CSH4Fe2HC3HCH5
_chemical_formula_sum              "C1440 H1728 Fe192 S384 N96"
_cell_length_a       53.5918
_cell_length_b       36.677
_cell_length_c       103.244
_cell_angle_alpha    88.8162
_cell_angle_beta     96.7202
_cell_angle_gamma    87.8314

_space_group_name_H-M_alt    "P 1"
_space_group_IT_number       1

loop_
  _space_group_symop_operation_xyz
  'x, y, z'

loop_
  _atom_site_type_symbol
  _atom_site_label
  _atom_site_symmetry_multiplicity
  _atom_site_fract_x
  _atom_site_fract_y
  _atom_site_fract_z
  _atom_site_occupancy
  C   C1        1.0  0.15220  0.48361  0.98688  1.0000
  H   H1        1.0  0.35320  0.35314  0.16640  1.0000
  Fe  Fe1       1.0  0.34805  0.09005  0.21073  1.0000
  H   H2        1.0  0.21329  0.46492  0.21722  1.0000
  S   S1        1.0  0.31811  0.12667  0.19861  1.0000
  H   H3        1.0  0.35641  0.42928  0.15302  1.0000
  S   S2        1.0  0.07386  0.47305  0.22884  1.0000
  H   H4        1.0  0.41421  0.39556  0.17349  1.0000
  S   S3        1.0  0.38266  0.06342  0.20410  1.0000
  S   S4        1.0  0.33391  0.03610  0.21712  1.0000
  Fe  Fe2       1.0  0.28455  0.41381  0.16371  1.0000
  S   S5        1.0  0.24224  0.41190  0.16226  1.0000
  S   S6        1.0  0.30952  0.46059  0.15847  1.0000
  Fe  Fe3       1.0  0.29131  0.33059  0.16985  1.0000
  S   S7        1.0  0.24970  0.32286  0.16857  1.0000
  S   S8        1.0  0.32409  0.28970  0.17610  1.0000
  Fe  Fe4       1.0  0.24595  0.36038  0.15076  1.0000
  S   S9        1.0  0.21471  0.35752  0.13353  1.0000
  Fe  Fe5       1.0  0.24858  0.37441  0.17998  1.0000
  S   S10       1.0  0.22831  0.37015  0.19804  1.0000
  S   S11       1.0  0.28791  0.36446  0.15112  1.0000
  S   S12       1.0  0.29048  0.37997  0.18237  1.0000
  S   S13       1.0  0.13060  0.46404  0.20786  1.0000
  S   S14       1.0  0.02130  0.39682  0.22817  1.0000
  C   C2        1.0  0.34495  0.08490  0.16726  1.0000
  H   H5        1.0  0.33404  0.39275  0.16852  1.0000
  C   C3        1.0  0.09811  0.44513  0.99509  1.0000
  S   S15       1.0  0.21453  0.04684  0.01591  1.0000
  H   H6        1.0  0.33874  0.42675  0.18747  1.0000
  Fe  Fe6       1.0  0.16048  0.26007  0.06705  1.0000
  S   S16       1.0  0.12824  0.30136  0.06526  1.0000
  S   S17       1.0  0.19199  0.25546  0.08416  1.0000
  Fe  Fe7       1.0  0.14423  0.22901  0.03979  1.0000
  S   S18       1.0  0.11137  0.26995  0.03611  1.0000
  S   S19       1.0  0.14581  0.18998  0.02277  1.0000
  Fe  Fe8       1.0  0.13807  0.31085  0.04486  1.0000
  S   S20       1.0  0.13917  0.36948  0.03760  1.0000
  Fe  Fe9       1.0  0.10412  0.25662  0.05662  1.0000
  S   S21       1.0  0.06623  0.24158  0.06319  1.0000
  S   S22       1.0  0.17151  0.27161  0.04693  1.0000
  S   S23       1.0  0.13585  0.21390  0.06004  1.0000
  C   C4        1.0  0.03580  0.24499  0.05412  1.0000
  C   C5        1.0  0.01516  0.23191  0.05985  1.0000
  Fe  Fe10      1.0  0.10987  0.44447  0.22446  1.0000
  H   H7        1.0  0.40629  0.45845  0.17118  1.0000
  C   C6        1.0  0.00723  0.26200  0.03464  1.0000
  C   C7        1.0  0.03168  0.26007  0.04146  1.0000
  H   H8        1.0  0.01819  0.21984  0.06958  1.0000
  H   H9        1.0  0.01615  0.34513  0.18406  1.0000
  H   H10       1.0  0.04726  0.27043  0.03692  1.0000
  C   C8        1.0  0.19456  0.08580  0.01773  1.0000
  C   C9        1.0  0.19824  0.10547  0.02932  1.0000
  C   C10       1.0  0.18346  0.13725  0.03109  1.0000
  C   C11       1.0  0.16473  0.14973  0.02125  1.0000
  C   C12       1.0  0.16090  0.12992  0.00969  1.0000
  C   C13       1.0  0.17567  0.09811  0.00793  1.0000
  H   H11       1.0  0.21274  0.09613  0.03698  1.0000
  H   H12       1.0  0.18663  0.15210  0.04004  1.0000
  H   H13       1.0  0.14644  0.13929  0.00202  1.0000
  H   H14       1.0  0.17245  0.08314  0.99901  1.0000
  C   C14       1.0  0.19180  0.40062  0.00755  1.0000
  C   C15       1.0  0.18940  0.36381  0.01103  1.0000
  C   C16       1.0  0.17383  0.35397  0.02049  1.0000
  C   C17       1.0  0.16014  0.38091  0.02633  1.0000
  C   C18       1.0  0.16276  0.41776  0.02298  1.0000
  C   C19       1.0  0.17889  0.42765  0.01379  1.0000
  H   H15       1.0  0.19938  0.34277  0.00626  1.0000
  H   H16       1.0  0.17188  0.32550  0.02295  1.0000
  H   H17       1.0  0.15229  0.43872  0.02753  1.0000
  H   H18       1.0  0.18117  0.45607  0.01146  1.0000
  C   C20       1.0  0.00635  0.35086  0.19242  1.0000
  C   C21       1.0  0.01870  0.36903  0.20311  1.0000
  H   H19       1.0  0.03782  0.37725  0.20292  1.0000
  C   C22       1.0  0.20882  0.32832  0.11999  1.0000
  C   C23       1.0  0.22513  0.29906  0.11772  1.0000
  C   C24       1.0  0.21950  0.27684  0.10682  1.0000
  C   C25       1.0  0.19753  0.28347  0.09805  1.0000
  C   C26       1.0  0.18121  0.31274  0.10033  1.0000
  C   C27       1.0  0.18686  0.33497  0.11121  1.0000
  H   H20       1.0  0.24207  0.29350  0.12436  1.0000
  H   H21       1.0  0.23229  0.25433  0.10517  1.0000
  H   H22       1.0  0.16419  0.31818  0.09374  1.0000
  H   H23       1.0  0.17407  0.35747  0.11284  1.0000
  C   C28       1.0  0.20128  0.39688  0.20053  1.0000
  C   C29       1.0  0.19384  0.42846  0.19302  1.0000
  C   C30       1.0  0.17227  0.44911  0.19544  1.0000
  C   C31       1.0  0.15780  0.43801  0.20520  1.0000
  C   C32       1.0  0.16524  0.40643  0.21268  1.0000
  C   C33       1.0  0.18698  0.38609  0.21039  1.0000
  H   H24       1.0  0.20484  0.43723  0.18547  1.0000
  H   H25       1.0  0.16681  0.47382  0.18975  1.0000
  H   H26       1.0  0.39004  0.42536  0.15426  1.0000
  H   H27       1.0  0.19271  0.36185  0.21631  1.0000
  H   H28       1.0  0.14946  0.40318  0.98412  1.0000
  C   C34       1.0  0.32186  0.24490  0.18277  1.0000
  C   C35       1.0  0.29903  0.22733  0.18204  1.0000
  C   C36       1.0  0.29826  0.19131  0.18701  1.0000
  C   C37       1.0  0.32017  0.17253  0.19295  1.0000
  C   C38       1.0  0.34291  0.19037  0.19396  1.0000
  C   C39       1.0  0.34375  0.22621  0.18880  1.0000
  H   H29       1.0  0.28202  0.24131  0.17747  1.0000
  H   H30       1.0  0.28055  0.17784  0.18615  1.0000
  H   H31       1.0  0.35995  0.17628  0.19844  1.0000
  H   H32       1.0  0.36152  0.23948  0.18943  1.0000
  N   N1        1.0  0.07194  0.15441  0.03507  1.0000
  C   C40       1.0  0.07719  0.14358  0.04911  1.0000
  C   C41       1.0  0.08372  0.12595  0.02748  1.0000
  C   C42       1.0  0.08441  0.18915  0.03325  1.0000
  C   C43       1.0  0.04480  0.15945  0.03040  1.0000
  C   C44       1.0  0.03687  0.17041  0.01724  1.0000
  C   C45       1.0  0.02564  0.15517  0.03870  1.0000
  C   C46       1.0  0.01145  0.17731  0.01274  1.0000
  C   C47       1.0  0.00026  0.16176  0.03404  1.0000
  H   H33       1.0  0.30301  0.05173  0.15531  1.0000
  H   H34       1.0  0.06879  0.11716  0.05122  1.0000
  H   H35       1.0  0.09778  0.14018  0.05229  1.0000
  H   H36       1.0  0.07002  0.16494  0.05543  1.0000
  H   H37       1.0  0.07448  0.09948  0.02827  1.0000
  H   H38       1.0  0.10417  0.12144  0.03092  1.0000
  H   H39       1.0  0.08276  0.13363  0.01695  1.0000
  H   H40       1.0  0.08430  0.19734  0.02282  1.0000
  H   H41       1.0  0.07515  0.21174  0.03817  1.0000
  H   H42       1.0  0.10452  0.18719  0.03738  1.0000
  H   H43       1.0  0.05037  0.17471  0.01042  1.0000
  H   H44       1.0  0.02975  0.14786  0.04892  1.0000
  H   H45       1.0  0.30563  0.05947  0.17881  1.0000
  H   H46       1.0  0.00746  0.27601  0.09417  1.0000
  H   H47       1.0  0.00587  0.18678  0.00277  1.0000
  Fe  Fe11      1.0  0.40108  0.07219  0.22454  1.0000
  C   C48       1.0  0.11904  0.44164  0.98783  1.0000
  C   C49       1.0  0.22622  0.11366  0.98446  1.0000
  C   C50       1.0  0.25709  0.12059  0.00310  1.0000
  S   S24       1.0  0.25865  0.48144  0.98701  1.0000
  H   H48       1.0  0.17268  0.47029  0.13969  1.0000
  C   C51       1.0  0.27664  0.29364  0.20954  1.0000
  H   H49       1.0  0.15440  0.39786  0.22033  1.0000
  H   H50       1.0  0.31881  0.01375  0.18173  1.0000
  H   H51       1.0  0.23689  0.21449  0.98391  1.0000
  H   H52       1.0  0.16691  0.46127  0.98739  1.0000
  S   S25       1.0  0.44126  0.09168  0.22680  1.0000
  H   H53       1.0  0.31678  0.00684  0.15696  1.0000
  H   H54       1.0  0.07586  0.41954  0.00859  1.0000
  H   H55       1.0  0.33468  0.05182  0.18888  1.0000
  C   C52       1.0  0.22280  0.16446  0.99852  1.0000
  H   H56       1.0  0.28001  0.16272  0.21152  1.0000
  H   H57       1.0  0.05117  0.32762  0.22065  1.0000
  C   C53       1.0  0.39054  0.49567  0.18378  1.0000
  H   H58       1.0  0.24681  0.23057  0.22568  1.0000
  H   H59       1.0  0.39592  0.13962  0.17030  1.0000
  N   N2        1.0  0.21707  0.35603  0.06635  1.0000
  C   C54       1.0  0.18949  0.35410  0.06658  1.0000
  C   C55       1.0  0.22609  0.32094  0.06129  1.0000
  C   C56       1.0  0.22864  0.35959  0.08002  1.0000
  C   C57       1.0  0.22430  0.38674  0.05821  1.0000
  C   C58       1.0  0.20645  0.41229  0.05148  1.0000
  C   C59       1.0  0.25001  0.39169  0.05677  1.0000
  C   C60       1.0  0.00626  0.37634  0.21401  1.0000
  C   C61       1.0  0.25735  0.42005  0.04896  1.0000
  H   H60       1.0  0.26873  0.09808  0.99953  1.0000
  H   H61       1.0  0.17967  0.35034  0.05663  1.0000
  H   H62       1.0  0.18466  0.33051  0.07264  1.0000
  H   H63       1.0  0.18132  0.37896  0.07074  1.0000
  H   H64       1.0  0.21878  0.31824  0.05081  1.0000
  H   H65       1.0  0.21979  0.29705  0.06674  1.0000
  H   H66       1.0  0.24691  0.31806  0.06215  1.0000
  H   H67       1.0  0.22246  0.38577  0.08415  1.0000
  H   H68       1.0  0.22335  0.33708  0.08644  1.0000
  H   H69       1.0  0.24950  0.35852  0.08092  1.0000
  H   H70       1.0  0.18644  0.41068  0.05181  1.0000
  H   H71       1.0  0.26463  0.37343  0.06161  1.0000
  H   H72       1.0  0.35180  0.36922  0.18245  1.0000
  C   C62       1.0  0.32136  0.03620  0.15659  1.0000
  H   H73       1.0  0.37116  0.02161  0.16211  1.0000
  S   S26       1.0  0.39090  0.01689  0.23178  1.0000
  C   C63       1.0  0.13258  0.40745  0.98879  1.0000
  H   H74       1.0  0.31801  0.17108  0.16118  1.0000
  C   C64       1.0  0.09144  0.41614  0.00284  1.0000
  C   C65       1.0  0.32348  0.04262  0.17990  1.0000
  H   H75       1.0  0.33840  0.48375  0.19881  1.0000
  C   C66       1.0  0.23939  0.44447  0.04245  1.0000
  H   H76       1.0  0.20016  0.45975  0.03866  1.0000
  C   C67       1.0  0.26236  0.24297  0.22173  1.0000
  C   C68       1.0  0.33264  0.14975  0.16317  1.0000
  C   C69       1.0  0.37649  0.13208  0.16838  1.0000
  H   H77       1.0  0.24579  0.10714  0.01011  1.0000
  H   H78       1.0  0.23895  0.28993  0.21429  1.0000
  N   N3        1.0  0.33765  0.04651  0.16848  1.0000
  C   C70       1.0  0.37036  0.09546  0.16939  1.0000
  S   S27       1.0  0.20979  0.41123  0.99479  1.0000
  C   C71       1.0  0.10516  0.38301  0.00355  1.0000
  H   H79       1.0  0.00429  0.27355  0.02482  1.0000
  H   H80       1.0  0.21238  0.14884  0.00535  1.0000
  C   C72       1.0  0.37277  0.43642  0.17809  1.0000
  H   H81       1.0  0.31517  0.28987  0.20579  1.0000
  H   H82       1.0  0.36243  0.18756  0.16470  1.0000
  C   C73       1.0  0.30056  0.27694  0.21047  1.0000
  S   S28       1.0  0.09591  0.38791  0.22645  1.0000
  C   C74       1.0  0.21406  0.44074  0.04379  1.0000
  C   C75       1.0  0.35226  0.37847  0.17214  1.0000
  H   H83       1.0  0.30650  0.10774  0.16325  1.0000
  H   H84       1.0  0.32463  0.17113  0.22149  1.0000
  H   H85       1.0  0.08165  0.30694  0.22383  1.0000
  H   H86       1.0  0.23260  0.18594  0.00436  1.0000
  N   N4        1.0  0.15965  0.36545  0.16402  1.0000
  C   C76       1.0  0.14922  0.34426  0.15270  1.0000
  C   C77       1.0  0.18699  0.35637  0.16671  1.0000
  C   C78       1.0  0.14785  0.35327  0.17562  1.0000
  C   C79       1.0  0.15546  0.40498  0.16089  1.0000
  C   C80       1.0  0.13996  0.42826  0.16773  1.0000
  C   C81       1.0  0.16691  0.42127  0.15060  1.0000
  C   C82       1.0  0.13658  0.46550  0.16453  1.0000
  C   C83       1.0  0.16346  0.45854  0.14750  1.0000
  C   C84       1.0  0.14836  0.48063  0.15448  1.0000
  H   H87       1.0  0.15889  0.34961  0.14390  1.0000
  H   H88       1.0  0.15150  0.31432  0.15477  1.0000
  H   H89       1.0  0.12885  0.35122  0.15001  1.0000
  H   H90       1.0  0.19683  0.35929  0.15791  1.0000
  H   H91       1.0  0.19100  0.32771  0.17034  1.0000
  H   H92       1.0  0.19610  0.37453  0.17414  1.0000
  H   H93       1.0  0.12702  0.35737  0.17405  1.0000
  H   H94       1.0  0.15185  0.32369  0.17793  1.0000
  H   H95       1.0  0.15527  0.36813  0.18448  1.0000
  H   H96       1.0  0.13061  0.41870  0.17580  1.0000
  H   H97       1.0  0.17877  0.40528  0.14488  1.0000
  H   H98       1.0  0.99432  0.08743  0.19250  1.0000
  C   C85       1.0  0.99065  0.28673  0.08770  1.0000
  C   C86       1.0  0.25645  0.16065  0.98394  1.0000
  N   N5        1.0  0.24084  0.14051  0.99238  1.0000
  H   H99       1.0  0.37154  0.02375  0.17963  1.0000
  C   C87       1.0  0.37311  0.41117  0.15655  1.0000
  C   C88       1.0  0.35769  0.15912  0.16521  1.0000
  H   H100      1.0  0.99422  0.28018  0.07756  1.0000
  C   C89       1.0  0.39713  0.38079  0.17523  1.0000
  H   H101      1.0  0.37197  0.38625  0.15056  1.0000
  N   N6        1.0  0.37363  0.40226  0.17068  1.0000
  C   C90       1.0  0.39129  0.46279  0.17718  1.0000
  H   H102      1.0  0.39836  0.37440  0.18589  1.0000
  H   H103      1.0  0.39810  0.35437  0.17014  1.0000
  H   H104      1.0  0.20816  0.17748  0.99115  1.0000
  H   H105      1.0  0.21456  0.09721  0.99046  1.0000
  H   H106      1.0  0.26989  0.13933  0.00871  1.0000
  C   C91       1.0  0.12550  0.37856  0.99642  1.0000
  S   S29       1.0  0.36725  0.10263  0.23061  1.0000
  C   C92       1.0  0.35391  0.44462  0.18632  1.0000
  C   C93       1.0  0.99067  0.23414  0.05306  1.0000
  C   C94       1.0  0.32627  0.11331  0.16430  1.0000
  H   H107      1.0  0.24506  0.46624  0.03628  1.0000
  H   H108      1.0  0.10049  0.36103  0.00992  1.0000
  C   C95       1.0  0.06150  0.30187  0.22432  1.0000
  H   H109      1.0  0.08692  0.47017  0.99518  1.0000
  S   S30       1.0  0.25540  0.02024  0.98892  1.0000
  H   H110      1.0  0.13655  0.35304  0.99727  1.0000
  H   H111      1.0  0.27704  0.42307  0.04786  1.0000
  Fe  Fe12      1.0  0.21831  0.46836  0.98813  1.0000
  H   H112      1.0  0.27279  0.31959  0.20432  1.0000
  H   H113      1.0  0.05587  0.28010  0.21734  1.0000
  C   C96       1.0  0.35348  0.47747  0.19296  1.0000
  H   H114      1.0  0.32438  0.23151  0.21703  1.0000
  C   C97       1.0  0.28660  0.22526  0.22296  1.0000
  Fe  Fe13      1.0  0.36994  0.00974  0.21178  1.0000
  H   H115      1.0  0.38585  0.07608  0.17211  1.0000
  C   C98       1.0  0.30559  0.24321  0.21702  1.0000
  C   C99       1.0  0.27605  0.16196  0.22187  1.0000
  N   N7        1.0  0.29095  0.18897  0.22960  1.0000
  H   H116      1.0  0.25548  0.16708  0.22184  1.0000
  Fe  Fe14      1.0  0.21964  0.01278  0.99799  1.0000
  C   C100      1.0  0.35944  0.01984  0.17028  1.0000
  H   H117      1.0  0.99715  0.25938  0.11430  1.0000
  C   C101      1.0  0.25758  0.27675  0.21517  1.0000
  H   H118      1.0  0.28062  0.13358  0.22564  1.0000
  C   C102      1.0  0.99320  0.17314  0.02115  1.0000
  H   H119      1.0  0.33078  0.04105  0.14769  1.0000
  H   H120      1.0  0.02048  0.26925  0.23079  1.0000
  H   H121      1.0  0.98992  0.31701  0.08837  1.0000
  C   C103      1.0  0.20552  0.47000  0.22628  1.0000
  H   H122      1.0  0.12504  0.48277  0.17007  1.0000
  C   C104      1.0  0.31772  0.17574  0.23110  1.0000
  H   H123      1.0  0.15049  0.49216  0.99703  1.0000
  C   C105      1.0  0.18996  0.50097  0.22739  1.0000
  C   C106      1.0  0.37158  0.50308  0.19160  1.0000
  H   H124      1.0  0.98900  0.27738  0.13615  1.0000
  H   H125      1.0  0.19768  0.02304  0.26012  1.0000
  H   H126      1.0  0.06153  0.31450  0.25682  1.0000
  C   C107      1.0  0.32433  0.23068  0.45739  1.0000
  Fe  Fe15      1.0  0.32055  0.26182  0.41282  1.0000
  S   S31       1.0  0.35129  0.23287  0.42646  1.0000
  S   S32       1.0  0.29603  0.31139  0.41710  1.0000
  Fe  Fe16      1.0  0.32157  0.20381  0.39174  1.0000
  S   S33       1.0  0.35169  0.17088  0.40427  1.0000
  S   S34       1.0  0.31334  0.18216  0.37110  1.0000
  Fe  Fe17      1.0  0.32989  0.18266  0.42099  1.0000
  S   S35       1.0  0.32742  0.13896  0.43665  1.0000
  Fe  Fe18      1.0  0.37097  0.22346  0.40851  1.0000
  S   S36       1.0  0.41242  0.21615  0.40503  1.0000
  S   S37       1.0  0.29814  0.21172  0.40830  1.0000
  S   S38       1.0  0.34164  0.25625  0.39514  1.0000
  H   H127      1.0  0.38357  0.47142  0.47501  1.0000
  S   S39       1.0  0.23367  0.04607  0.44742  1.0000
  C   C108      1.0  0.47006  0.18543  0.43729  1.0000
  S   S40       1.0  0.34069  0.03821  0.25596  1.0000
  Fe  Fe19      1.0  0.09167  0.47134  0.24970  1.0000
  H   H128      1.0  0.29608  0.19314  0.47231  1.0000
  Fe  Fe20      1.0  0.11216  0.39060  0.24753  1.0000
  H   H129      1.0  0.17709  0.48445  0.25865  1.0000
  S   S41       1.0  0.13992  0.34421  0.25554  1.0000
  C   C109      1.0  0.48686  0.23805  0.41026  1.0000
  H   H130      1.0  0.19940  0.07727  0.46574  1.0000
  H   H131      1.0  0.26771  0.19566  0.46109  1.0000
  S   S42       1.0  0.12837  0.44577  0.24504  1.0000
  S   S43       1.0  0.07687  0.41579  0.25401  1.0000
  Fe  Fe21      1.0  0.21476  0.11151  0.28268  1.0000
  S   S44       1.0  0.17391  0.09940  0.27739  1.0000
  S   S45       1.0  0.23562  0.11413  0.26477  1.0000
  Fe  Fe22      1.0  0.20878  0.12297  0.31154  1.0000
  S   S46       1.0  0.16765  0.11147  0.30780  1.0000
  S   S47       1.0  0.21743  0.13658  0.33314  1.0000
  Fe  Fe23      1.0  0.17870  0.06441  0.29577  1.0000
  H   H132      1.0  0.41509  0.10545  0.28793  1.0000
  Fe  Fe24      1.0  0.16660  0.14756  0.28982  1.0000
  S   S48       1.0  0.13477  0.19117  0.28576  1.0000
  S   S49       1.0  0.22015  0.07383  0.30041  1.0000
  S   S50       1.0  0.20697  0.16168  0.29412  1.0000
  C   C110      1.0  0.13793  0.30214  0.26418  1.0000
  C   C111      1.0  0.15810  0.27627  0.26461  1.0000
  C   C112      1.0  0.15745  0.24228  0.27118  1.0000
  C   C113      1.0  0.13660  0.23380  0.27747  1.0000
  C   C114      1.0  0.11655  0.25983  0.27720  1.0000
  C   C115      1.0  0.11724  0.29389  0.27065  1.0000
  H   H133      1.0  0.17428  0.28244  0.25971  1.0000
  H   H134      1.0  0.17300  0.22253  0.27125  1.0000
  H   H135      1.0  0.10035  0.25359  0.28207  1.0000
  H   H136      1.0  0.10193  0.31386  0.27074  1.0000
  C   C116      1.0  0.44247  0.12417  0.25090  1.0000
  C   C117      1.0  0.45489  0.14113  0.26181  1.0000
  H   H137      1.0  0.42316  0.11658  0.25088  1.0000
  H   H138      1.0  0.44484  0.14694  0.27007  1.0000
  C   C118      1.0  0.31152  0.05943  0.25844  1.0000
  C   C119      1.0  0.30369  0.05904  0.27097  1.0000
  C   C120      1.0  0.28024  0.07505  0.27311  1.0000
  C   C121      1.0  0.26454  0.09157  0.26269  1.0000
  C   C122      1.0  0.27222  0.09142  0.25015  1.0000
  C   C123      1.0  0.29567  0.07566  0.24802  1.0000
  H   H139      1.0  0.10679  0.27528  0.23892  1.0000
  H   H140      1.0  0.27452  0.07510  0.28282  1.0000
  H   H141      1.0  0.25986  0.10352  0.24206  1.0000
  H   H142      1.0  0.01874  0.31718  0.23346  1.0000
  H   H143      1.0  0.10760  0.16873  0.25625  1.0000
  H   H144      1.0  0.27549  0.06023  0.40908  1.0000
  C   C124      1.0  0.46335  0.22408  0.40572  1.0000
  C   C125      1.0  0.44119  0.23635  0.41068  1.0000
  C   C126      1.0  0.44278  0.26322  0.42012  1.0000
  C   C127      1.0  0.46630  0.27713  0.42468  1.0000
  C   C128      1.0  0.18073  0.09872  0.48149  1.0000
  H   H145      1.0  0.46231  0.20322  0.39844  1.0000
  H   H146      1.0  0.42593  0.27295  0.42401  1.0000
  H   H147      1.0  0.46734  0.29768  0.43207  1.0000
  C   C129      1.0  0.28606  0.17163  0.36058  1.0000
  C   C130      1.0  0.26212  0.17170  0.36471  1.0000
  C   C131      1.0  0.24133  0.16131  0.35610  1.0000
  C   C132      1.0  0.24415  0.15109  0.34326  1.0000
  C   C133      1.0  0.26796  0.15181  0.33904  1.0000
  C   C134      1.0  0.28880  0.16179  0.34769  1.0000
  H   H148      1.0  0.25964  0.17931  0.37455  1.0000
  H   H149      1.0  0.22296  0.16085  0.35946  1.0000
  H   H150      1.0  0.27045  0.14399  0.32921  1.0000
  H   H151      1.0  0.30724  0.16167  0.34440  1.0000
  C   C135      1.0  0.25983  0.07183  0.44454  1.0000
  C   C136      1.0  0.28371  0.06390  0.45120  1.0000
  C   C137      1.0  0.30417  0.08466  0.44859  1.0000
  C   C138      1.0  0.30100  0.11353  0.43932  1.0000
  C   C139      1.0  0.27705  0.12189  0.43277  1.0000
  C   C140      1.0  0.25659  0.10092  0.43532  1.0000
  H   H152      1.0  0.28645  0.04158  0.45830  1.0000
  H   H153      1.0  0.32260  0.07817  0.45376  1.0000
  H   H154      1.0  0.27421  0.14461  0.42586  1.0000
  H   H155      1.0  0.23810  0.10733  0.43020  1.0000
  C   C141      1.0  0.29820  0.33953  0.43096  1.0000
  C   C142      1.0  0.27901  0.36624  0.43196  1.0000
  C   C143      1.0  0.27988  0.38935  0.44273  1.0000
  C   C144      1.0  0.30005  0.38603  0.45264  1.0000
  C   C145      1.0  0.31922  0.35925  0.45167  1.0000
  C   C146      1.0  0.31828  0.33600  0.44091  1.0000
  H   H156      1.0  0.26343  0.36923  0.42429  1.0000
  H   H157      1.0  0.26508  0.40993  0.44330  1.0000
  C   C147      1.0  0.42086  0.08291  0.28217  1.0000
  H   H158      1.0  0.33329  0.31587  0.44020  1.0000
  N   N8        1.0  0.17828  0.24870  0.31718  1.0000
  C   C148      1.0  0.15431  0.27078  0.31460  1.0000
  C   C149      1.0  0.19113  0.25075  0.30525  1.0000
  C   C150      1.0  0.17173  0.21033  0.31950  1.0000
  C   C151      1.0  0.19539  0.26099  0.32843  1.0000
  C   C152      1.0  0.21835  0.24116  0.33249  1.0000
  C   C153      1.0  0.19018  0.29272  0.33551  1.0000
  C   C154      1.0  0.23495  0.25217  0.34301  1.0000
  C   C155      1.0  0.20694  0.30345  0.34605  1.0000
  C   C156      1.0  0.22924  0.28319  0.34980  1.0000
  H   H159      1.0  0.15758  0.29966  0.31198  1.0000
  H   H160      1.0  0.14192  0.26024  0.30616  1.0000
  H   H161      1.0  0.14344  0.26995  0.32314  1.0000
  H   H162      1.0  0.20907  0.23419  0.30622  1.0000
  H   H163      1.0  0.19563  0.27934  0.30288  1.0000
  H   H164      1.0  0.17925  0.24028  0.29668  1.0000
  H   H165      1.0  0.16476  0.20662  0.32916  1.0000
  H   H166      1.0  0.15699  0.20106  0.31191  1.0000
  H   H167      1.0  0.18800  0.19093  0.31924  1.0000
  H   H168      1.0  0.22365  0.21678  0.32759  1.0000
  H   H169      1.0  0.17330  0.30967  0.33311  1.0000
  H   H170      1.0  0.25233  0.23639  0.34595  1.0000
  H   H171      1.0  0.20264  0.32765  0.35136  1.0000
  H   H172      1.0  0.24217  0.29149  0.35799  1.0000
  S   S51       1.0  0.16786  0.00576  0.30021  1.0000
  H   H173      1.0  0.43525  0.16235  0.42962  1.0000
  C   C157      1.0  0.45563  0.15966  0.43050  1.0000
  H   H174      1.0  0.27364  0.07357  0.34954  1.0000
  H   H175      1.0  0.45597  0.11148  0.41912  1.0000
  H   H176      1.0  0.35515  0.46087  0.46528  1.0000
  H   H177      1.0  0.33261  0.22809  0.46775  1.0000
  C   C158      1.0  0.07102  0.19578  0.25233  1.0000
  H   H178      1.0  0.29004  0.14455  0.39183  1.0000
  C   C159      1.0  0.20845  0.13291  0.46954  1.0000
  C   C160      1.0  0.48547  0.31240  0.38774  1.0000
  C   C161      1.0  0.27036  0.29042  0.45547  1.0000
  C   C162      1.0  0.32234  0.08676  0.39201  1.0000
  H   H179      1.0  0.38287  0.07049  0.27485  1.0000
  H   H180      1.0  0.30134  0.07551  0.23831  1.0000
  C   C163      1.0  0.10934  0.22126  0.24686  1.0000
  H   H181      1.0  0.26222  0.19444  0.24274  1.0000
  H   H182      1.0  0.30205  0.12984  0.40821  1.0000
  C   C164      1.0  0.26153  0.32063  0.46191  1.0000
  C   C165      1.0  0.45526  0.11637  0.24017  1.0000
  C   C166      1.0  0.28288  0.19011  0.24288  1.0000
  H   H183      1.0  0.06156  0.17366  0.25657  1.0000
  C   C167      1.0  0.48030  0.14986  0.26229  1.0000
  H   H184      1.0  0.21505  0.06605  0.37416  1.0000
  H   H185      1.0  0.32831  0.06054  0.38785  1.0000
  H   H186      1.0  0.30418  0.08368  0.36815  1.0000
  C   C168      1.0  0.43553  0.02593  0.26688  1.0000
  C   C169      1.0  0.46737  0.13121  0.42450  1.0000
  C   C170      1.0  0.21030  0.44472  0.23659  1.0000
  C   C171      1.0  0.28857  0.19649  0.46185  1.0000
  C   C172      1.0  0.28901  0.12294  0.39947  1.0000
  Fe  Fe25      1.0  0.27137  0.45304  0.47243  1.0000
  C   C173      1.0  0.06955  0.25724  0.24223  1.0000
  C   C174      1.0  0.20477  0.16335  0.47717  1.0000
  H   H187      1.0  0.48002  0.28352  0.38676  1.0000
  H   H188      1.0  0.03741  0.22804  0.24808  1.0000
  H   H189      1.0  0.30496  0.24762  0.48175  1.0000
  C   C175      1.0  0.36565  0.48375  0.47003  1.0000
  S   S52       1.0  0.30242  0.41517  0.46623  1.0000
  C   C176      1.0  0.28633  0.26274  0.46231  1.0000
  N   N9        1.0  0.48149  0.03508  0.27372  1.0000
  H   H190      1.0  0.32567  0.10965  0.38521  1.0000
  H   H191      1.0  0.30814  0.06273  0.41374  1.0000
  H   H192      1.0  0.29559  0.20522  0.43713  1.0000
  H   H193      1.0  0.31583  0.04636  0.27906  1.0000
  H   H194      1.0  0.02245  0.28679  0.24721  1.0000
  H   H195      1.0  0.47016  0.33053  0.38262  1.0000
  H   H196      1.0  0.33261  0.20742  0.45229  1.0000
  H   H197      1.0  0.20332  0.43053  0.25608  1.0000
  H   H198      1.0  0.26490  0.29003  0.44506  1.0000
  C   C177      1.0  0.25206  0.07443  0.38406  1.0000
  H   H199      1.0  0.29432  0.25386  0.43634  1.0000
  H   H200      1.0  0.33098  0.25639  0.45326  1.0000
  C   C178      1.0  0.29392  0.05883  0.40513  1.0000
  H   H201      1.0  0.47270  0.28826  0.36503  1.0000
  N   N10       1.0  0.29563  0.08661  0.39461  1.0000
  C   C179      1.0  0.18478  0.48196  0.24949  1.0000
  H   H202      1.0  0.12961  0.21917  0.24696  1.0000
  H   H203      1.0  0.33494  0.35656  0.45925  1.0000
  C   C180      1.0  0.27792  0.07917  0.38293  1.0000
  H   H204      1.0  0.22166  0.42013  0.23549  1.0000
  H   H205      1.0  0.46078  0.20800  0.44169  1.0000
  C   C181      1.0  0.09695  0.19278  0.25208  1.0000
  H   H206      1.0  0.19234  0.02068  0.27679  1.0000
  C   C182      1.0  0.48042  0.12644  0.24040  1.0000
  C   C183      1.0  0.28526  0.07861  0.37013  1.0000
  C   C184      1.0  0.09600  0.25321  0.24216  1.0000
  C   C185      1.0  0.26781  0.07291  0.35926  1.0000
  H   H207      1.0  0.29693  0.03074  0.40158  1.0000
  H   H208      1.0  0.33530  0.09089  0.40108  1.0000
  C   C186      1.0  0.19996  0.45067  0.24816  1.0000
  N   N11       1.0  0.29646  0.23065  0.45583  1.0000
  H   H209      1.0  0.08506  0.32605  0.24658  1.0000
  C   C187      1.0  0.02826  0.29091  0.23730  1.0000
  H   H210      1.0  0.28769  0.16398  0.24848  1.0000
  H   H211      1.0  0.26705  0.22917  0.43965  1.0000
  C   C188      1.0  0.20731  0.01865  0.27018  1.0000
  C   C189      1.0  0.45459  0.04533  0.27421  1.0000
  C   C190      1.0  0.06469  0.32127  0.24660  1.0000
  H   H212      1.0  0.05444  0.34771  0.24382  1.0000
  S   S53       1.0  0.23158  0.43855  0.47450  1.0000
  C   C191      1.0  0.05738  0.22741  0.24744  1.0000
  H   H213      1.0  0.29553  0.17186  0.45699  1.0000
  H   H214      1.0  0.21993  0.04183  0.27219  1.0000
  H   H215      1.0  0.33007  0.19521  0.23664  1.0000
  H   H216      1.0  0.24487  0.07581  0.39340  1.0000
  H   H217      1.0  0.26963  0.12453  0.40231  1.0000
  H   H218      1.0  0.48318  0.06575  0.25600  1.0000
  H   H219      1.0  0.29213  0.21228  0.24862  1.0000
  C   C192      1.0  0.23477  0.06899  0.37310  1.0000
  C   C193      1.0  0.28788  0.22985  0.44164  1.0000
  H   H220      1.0  0.24985  0.34184  0.45646  1.0000
  H   H221      1.0  0.45945  0.09098  0.28768  1.0000
  H   H222      1.0  0.22908  0.06522  0.35218  1.0000
  C   C194      1.0  0.26851  0.32453  0.47521  1.0000
  H   H223      1.0  0.47303  0.47267  0.25641  1.0000
  C   C195      1.0  0.24263  0.06825  0.36072  1.0000
  H   H224      1.0  0.32050  0.14894  0.23648  1.0000
  C   C196      1.0  0.44646  0.07408  0.28197  1.0000
  Fe  Fe26      1.0  0.35557  0.04701  0.23648  1.0000
  H   H225      1.0  0.12534  0.47421  0.47761  1.0000
  C   C197      1.0  0.40270  0.06341  0.27480  1.0000
  C   C198      1.0  0.19642  0.10075  0.47168  1.0000
  H   H226      1.0  0.22077  0.13391  0.46192  1.0000
  H   H227      1.0  0.47471  0.27713  0.34210  1.0000
  C   C199      1.0  0.29274  0.26732  0.47592  1.0000
  H   H228      1.0  0.26224  0.34865  0.48003  1.0000
  H   H229      1.0  0.21473  0.18730  0.47500  1.0000
  H   H230      1.0  0.47648  0.01908  0.25345  1.0000
  H   H231      1.0  0.19072  0.23630  0.48186  1.0000
  N   N12       1.0  0.05605  0.29198  0.23769  1.0000
  H   H232      1.0  0.44015  0.00384  0.26070  1.0000
  C   C200      1.0  0.41003  0.03489  0.26723  1.0000
  H   H233      1.0  0.39576  0.01988  0.26150  1.0000
  H   H234      1.0  0.31601  0.49067  0.46752  1.0000
  Fe  Fe27      1.0  0.06141  0.41608  0.23264  1.0000
  H   H235      1.0  0.17029  0.46254  0.47654  1.0000
  Fe  Fe28      1.0  0.22132  0.49761  0.46862  1.0000
  H   H236      1.0  0.48625  0.31787  0.39837  1.0000
  N   N13       1.0  0.35066  0.50322  0.47914  1.0000
  H   H237      1.0  0.37036  0.50259  0.46216  1.0000
  C   C201      1.0  0.28398  0.29784  0.48222  1.0000
  Fe  Fe29      1.0  0.23906  0.45947  0.49481  1.0000
  S   S54       1.0  0.22738  0.43368  0.51333  1.0000
  S   S55       1.0  0.27964  0.47050  0.49330  1.0000
  Fe  Fe30      1.0  0.16076  0.25178  0.53589  1.0000
  S   S56       1.0  0.12513  0.22200  0.53086  1.0000
  S   S57       1.0  0.17169  0.28402  0.51828  1.0000
  Fe  Fe31      1.0  0.17063  0.21247  0.56303  1.0000
  S   S58       1.0  0.13562  0.17989  0.55962  1.0000
  S   S59       1.0  0.20228  0.20855  0.58016  1.0000
  Fe  Fe32      1.0  0.14702  0.17203  0.53941  1.0000
  S   S60       1.0  0.14247  0.12139  0.52717  1.0000
  Fe  Fe33      1.0  0.11630  0.23253  0.55118  1.0000
  S   S61       1.0  0.07838  0.25847  0.55534  1.0000
  S   S62       1.0  0.18307  0.20081  0.54327  1.0000
  S   S63       1.0  0.15080  0.26603  0.55582  1.0000
  H   H238      1.0  0.01432  0.17847  0.70160  1.0000
  H   H239      1.0  0.33417  0.45436  0.48576  1.0000
  S   S64       1.0  0.38682  0.47701  0.73015  1.0000
  N   N14       1.0  0.26997  0.06162  0.62006  1.0000
  C   C202      1.0  0.26337  0.10651  0.60061  1.0000
  S   S65       1.0  0.33160  0.45619  0.71504  1.0000
  C   C203      1.0  0.25485  0.07775  0.60823  1.0000
  S   S66       1.0  0.38254  0.42167  0.70523  1.0000
  H   H240      1.0  0.18291  0.16228  0.51350  1.0000
  H   H241      1.0  0.15037  0.42020  0.50636  1.0000
  Fe  Fe34      1.0  0.34804  0.39950  0.71265  1.0000
  S   S67       1.0  0.32143  0.35343  0.70695  1.0000
  H   H242      1.0  0.45181  0.19326  0.71215  1.0000
  S   S68       1.0  0.02241  0.06307  0.72741  1.0000
  Fe  Fe35      1.0  0.24622  0.13498  0.65421  1.0000
  S   S69       1.0  0.28767  0.13208  0.65248  1.0000
  S   S70       1.0  0.21254  0.13963  0.63820  1.0000
  Fe  Fe36      1.0  0.25561  0.11889  0.68368  1.0000
  S   S71       1.0  0.29781  0.11425  0.68389  1.0000
  S   S72       1.0  0.23805  0.11786  0.70272  1.0000
  Fe  Fe37      1.0  0.29248  0.16472  0.67088  1.0000
  S   S73       1.0  0.32075  0.21026  0.67243  1.0000
  Fe  Fe38      1.0  0.28983  0.08175  0.66566  1.0000
  S   S74       1.0  0.31206  0.03284  0.65838  1.0000
  S   S75       1.0  0.25078  0.17121  0.67167  1.0000
  S   S76       1.0  0.24794  0.08293  0.66642  1.0000
  H   H243      1.0  0.19046  0.33692  0.53773  1.0000
  H   H244      1.0  0.30607  0.06439  0.63175  1.0000
  C   C204      1.0  0.32136  0.31452  0.69689  1.0000
  C   C205      1.0  0.33931  0.30816  0.68830  1.0000
  C   C206      1.0  0.33881  0.27619  0.68089  1.0000
  C   C207      1.0  0.32030  0.25031  0.68189  1.0000
  C   C208      1.0  0.30230  0.25679  0.69043  1.0000
  C   C209      1.0  0.30285  0.28868  0.69787  1.0000
  H   H245      1.0  0.35339  0.32800  0.68724  1.0000
  H   H246      1.0  0.35270  0.27160  0.67423  1.0000
  H   H247      1.0  0.28795  0.23721  0.69131  1.0000
  H   H248      1.0  0.28883  0.29333  0.70445  1.0000
  H   H249      1.0  0.19363  0.25004  0.49840  1.0000
  C   C210      1.0  0.00613  0.09726  0.71687  1.0000
  C   C211      1.0  0.01851  0.12669  0.71215  1.0000
  H   H250      1.0  0.03870  0.12760  0.71421  1.0000
  C   C212      1.0  0.21132  0.09253  0.70481  1.0000
  C   C213      1.0  0.20159  0.06811  0.69548  1.0000
  C   C214      1.0  0.17998  0.04900  0.69741  1.0000
  C   C215      1.0  0.16756  0.05493  0.70847  1.0000
  C   C216      1.0  0.17718  0.07953  0.71775  1.0000
  C   C217      1.0  0.19912  0.09792  0.71598  1.0000
  H   H251      1.0  0.21081  0.06370  0.68683  1.0000
  C   C218      1.0  0.21533  0.08114  0.59343  1.0000
  H   H252      1.0  0.20664  0.11639  0.72331  1.0000
  C   C219      1.0  0.01725  0.20030  0.54192  1.0000
  C   C220      1.0  0.04230  0.21046  0.54524  1.0000
  C   C221      1.0  0.04723  0.24409  0.55094  1.0000
  C   C222      1.0  0.02678  0.26749  0.55315  1.0000
  H   H253      1.0  0.37583  0.25979  0.70511  1.0000
  H   H254      1.0  0.01373  0.17404  0.53764  1.0000
  H   H255      1.0  0.05779  0.19219  0.54344  1.0000
  H   H256      1.0  0.03041  0.29371  0.55744  1.0000
  H   H257      1.0  0.21225  0.39496  0.53537  1.0000
  C   C223      1.0  0.20431  0.18990  0.59636  1.0000
  C   C224      1.0  0.22677  0.19315  0.60476  1.0000
  C   C225      1.0  0.22974  0.17773  0.61752  1.0000
  C   C226      1.0  0.21012  0.15907  0.62211  1.0000
  C   C227      1.0  0.18763  0.15586  0.61374  1.0000
  C   C228      1.0  0.18472  0.17109  0.60094  1.0000
  H   H258      1.0  0.24205  0.20763  0.60133  1.0000
  H   H259      1.0  0.24711  0.18063  0.62382  1.0000
  H   H260      1.0  0.17231  0.14149  0.61716  1.0000
  H   H261      1.0  0.16738  0.16824  0.59461  1.0000
  C   C229      1.0  0.16813  0.09370  0.52325  1.0000
  C   C230      1.0  0.19277  0.09902  0.52879  1.0000
  C   C231      1.0  0.21281  0.07743  0.52499  1.0000
  C   C232      1.0  0.20842  0.05068  0.51554  1.0000
  C   C233      1.0  0.18379  0.04514  0.51008  1.0000
  C   C234      1.0  0.16371  0.06640  0.51400  1.0000
  H   H262      1.0  0.19636  0.11973  0.53601  1.0000
  H   H263      1.0  0.23181  0.08165  0.52934  1.0000
  S   S77       1.0  0.14012  0.03125  0.71047  1.0000
  H   H264      1.0  0.14468  0.06198  0.50973  1.0000
  C   C235      1.0  0.21263  0.39140  0.51457  1.0000
  C   C236      1.0  0.20562  0.37065  0.50362  1.0000
  C   C237      1.0  0.19307  0.33794  0.50498  1.0000
  C   C238      1.0  0.18757  0.32543  0.51728  1.0000
  C   C239      1.0  0.19459  0.34616  0.52822  1.0000
  C   C240      1.0  0.20697  0.37905  0.52685  1.0000
  H   H265      1.0  0.20986  0.37978  0.49413  1.0000
  H   H266      1.0  0.18763  0.32219  0.49644  1.0000
  H   H267      1.0  0.17490  0.44835  0.51238  1.0000
  H   H268      1.0  0.36318  0.46449  0.49493  1.0000
  H   H269      1.0  0.48394  0.28825  0.72982  1.0000
  H   H270      1.0  0.04375  0.34327  0.53235  1.0000
  C   C241      1.0  0.27370  0.02164  0.61873  1.0000
  C   C242      1.0  0.04211  0.29134  0.52325  1.0000
  C   C243      1.0  0.39506  0.32358  0.71100  1.0000
  H   H271      1.0  0.33525  0.49122  0.49698  1.0000
  C   C244      1.0  0.17697  0.12889  0.48920  1.0000
  N   N15       1.0  0.39668  0.29119  0.71993  1.0000
  H   H272      1.0  0.19316  0.20741  0.51588  1.0000
  N   N16       1.0  0.16882  0.17237  0.67338  1.0000
  C   C245      1.0  0.15022  0.19842  0.67806  1.0000
  C   C246      1.0  0.18959  0.16467  0.68398  1.0000
  C   C247      1.0  0.17965  0.19074  0.66248  1.0000
  C   C248      1.0  0.15668  0.13783  0.66971  1.0000
  C   C249      1.0  0.14511  0.11747  0.67906  1.0000
  C   C250      1.0  0.15637  0.12302  0.65707  1.0000
  C   C251      1.0  0.13367  0.08468  0.67591  1.0000
  C   C252      1.0  0.14498  0.09007  0.65405  1.0000
  C   C253      1.0  0.13364  0.07097  0.66343  1.0000
  H   H273      1.0  0.14295  0.18825  0.68706  1.0000
  H   H274      1.0  0.15858  0.22514  0.68049  1.0000
  H   H275      1.0  0.13381  0.20358  0.67049  1.0000
  H   H276      1.0  0.18287  0.15462  0.69313  1.0000
  H   H277      1.0  0.20058  0.18921  0.68652  1.0000
  H   H278      1.0  0.20297  0.14327  0.68103  1.0000
  H   H279      1.0  0.16517  0.19728  0.65403  1.0000
  H   H280      1.0  0.18835  0.21684  0.66545  1.0000
  H   H281      1.0  0.19497  0.17351  0.65906  1.0000
  H   H282      1.0  0.14528  0.12628  0.68900  1.0000
  H   H283      1.0  0.16508  0.13603  0.64936  1.0000
  H   H284      1.0  0.12531  0.06938  0.68331  1.0000
  H   H285      1.0  0.14523  0.07916  0.64438  1.0000
  H   H286      1.0  0.12505  0.04528  0.66109  1.0000
  C   C254      1.0  0.47050  0.23870  0.72114  1.0000
  H   H287      1.0  0.00599  0.21311  0.57252  1.0000
  C   C255      1.0  0.03176  0.32450  0.52683  1.0000
  H   H288      1.0  0.03486  0.24015  0.51418  1.0000
  H   H289      1.0  0.26733  0.05697  0.64073  1.0000
  C   C256      1.0  0.34569  0.47726  0.48966  1.0000
  H   H290      1.0  0.21402  0.17299  0.51032  1.0000
  H   H291      1.0  0.16489  0.12584  0.49680  1.0000
  H   H292      1.0  0.26364  0.21264  0.72841  1.0000
  H   H293      1.0  0.17269  0.02991  0.69020  1.0000
  H   H294      1.0  0.25451  0.14472  0.58434  1.0000
  C   C257      1.0  0.98984  0.30800  0.51693  1.0000
  H   H295      1.0  0.39813  0.31575  0.70093  1.0000
  H   H296      1.0  0.18017  0.02425  0.50293  1.0000
  C   C258      1.0  0.00468  0.15524  0.70488  1.0000
  H   H297      1.0  0.15365  0.22782  0.50074  1.0000
  H   H298      1.0  0.23778  0.05599  0.63080  1.0000
  H   H299      1.0  0.16785  0.08419  0.72634  1.0000
  H   H300      1.0  0.30675  0.07240  0.61464  1.0000
  Fe  Fe39      1.0  0.39953  0.41929  0.72636  1.0000
  C   C259      1.0  0.00174  0.25763  0.54962  1.0000
  H   H301      1.0  0.25572  0.00731  0.61808  1.0000
  H   H302      1.0  0.99927  0.35889  0.52697  1.0000
  H   H303      1.0  0.05068  0.18299  0.72372  1.0000
  C   C260      1.0  0.02681  0.26640  0.51656  1.0000
  C   C261      1.0  0.24819  0.12182  0.58976  1.0000
  Fe  Fe40      1.0  0.11821  0.04643  0.72718  1.0000
  H   H304      1.0  0.21223  0.12232  0.57808  1.0000
  C   C262      1.0  0.23036  0.06548  0.60426  1.0000
  H   H305      1.0  0.40996  0.22154  0.71102  1.0000
  S   S78       1.0  0.23411  0.02397  0.51114  1.0000
  H   H306      1.0  0.40924  0.34395  0.71421  1.0000
  H   H307      1.0  0.14660  0.18124  0.49915  1.0000
  S   S79       1.0  0.09395  0.09747  0.72752  1.0000
  C   C263      1.0  0.99682  0.22368  0.54413  1.0000
  H   H308      1.0  0.05735  0.22677  0.73036  1.0000
  C   C264      1.0  0.42540  0.23708  0.71532  1.0000
  H   H309      1.0  0.14272  0.46233  0.51388  1.0000
  H   H310      1.0  0.19641  0.07217  0.59079  1.0000
  C   C265      1.0  0.15536  0.44932  0.50734  1.0000
  Fe  Fe41      1.0  0.36780  0.47845  0.70951  1.0000
  N   N17       1.0  0.15353  0.46891  0.49449  1.0000
  H   H311      1.0  0.37572  0.24253  0.72170  1.0000
  H   H312      1.0  0.22782  0.17335  0.72307  1.0000
  C   C266      1.0  0.12749  0.46529  0.48805  1.0000
  C   C267      1.0  0.37554  0.26764  0.71546  1.0000
  H   H313      1.0  0.14888  0.20878  0.48473  1.0000
  C   C268      1.0  0.22423  0.10927  0.58620  1.0000
  H   H314      1.0  0.28138  0.11842  0.60299  1.0000
  H   H315      1.0  0.06191  0.28442  0.52609  1.0000
  N   N18       1.0  0.18460  0.19358  0.49568  1.0000
  H   H316      1.0  0.01314  0.19103  0.58816  1.0000
  C   C269      1.0  0.19415  0.18360  0.50940  1.0000
  H   H317      1.0  0.35694  0.28203  0.71583  1.0000
  C   C270      1.0  0.19742  0.22685  0.49202  1.0000
  C   C271      1.0  0.15729  0.20320  0.49498  1.0000
  H   H318      1.0  0.21821  0.22228  0.49319  1.0000
  H   H319      1.0  0.29384  0.10686  0.62461  1.0000
  S   S80       1.0  0.44009  0.39670  0.72998  1.0000
  H   H320      1.0  0.25327  0.09803  0.63276  1.0000
  H   H321      1.0  0.37629  0.33803  0.71042  1.0000
  H   H322      1.0  0.01102  0.23991  0.58690  1.0000
  C   C272      1.0  0.29525  0.07706  0.62279  1.0000
  H   H323      1.0  0.28285  0.01535  0.60986  1.0000
  H   H324      1.0  0.28579  0.00913  0.62735  1.0000
  C   C273      1.0  0.25650  0.06828  0.63157  1.0000
  H   H325      1.0  0.17162  0.07346  0.48322  1.0000
  C   C274      1.0  0.18877  0.16221  0.48726  1.0000
  C   C275      1.0  0.00602  0.33294  0.52373  1.0000
  H   H326      1.0  0.28950  0.30120  0.49256  1.0000
  H   H327      1.0  0.16761  0.42076  0.48558  1.0000
  C   C276      1.0  0.00250  0.21461  0.58293  1.0000
  C   C277      1.0  0.17125  0.45031  0.48656  1.0000
  S   S81       1.0  0.08737  0.00971  0.73153  1.0000
  C   C278      1.0  0.42179  0.27270  0.72016  1.0000
  H   H328      1.0  0.19093  0.45238  0.49118  1.0000
  H   H329      1.0  0.22236  0.04434  0.60972  1.0000
  C   C279      1.0  0.46761  0.27380  0.72578  1.0000
  C   C280      1.0  0.00110  0.27453  0.51338  1.0000
  C   C281      1.0  0.44947  0.22045  0.71587  1.0000
  C   C282      1.0  0.44368  0.29065  0.72523  1.0000
  H   H330      1.0  0.27696  0.00826  0.52945  1.0000
  H   H331      1.0  0.12176  0.43642  0.48813  1.0000
  H   H332      1.0  0.44246  0.31809  0.72874  1.0000
  H   H333      1.0  0.11380  0.48182  0.49305  1.0000
  H   H334      1.0  0.99000  0.25397  0.50838  1.0000
  C   C283      1.0  0.22864  0.18977  0.73173  1.0000
  H   H335      1.0  0.39675  0.50056  0.49400  1.0000
  H   H336      1.0  0.98793  0.16056  0.60321  1.0000
  C   C284      1.0  0.22990  0.23088  0.77792  1.0000
  H   H337      1.0  0.29800  0.21137  0.96094  1.0000
  H   H338      1.0  0.46214  0.32962  0.82856  1.0000
  Fe  Fe42      1.0  0.31358  0.28901  0.92795  1.0000
  S   S82       1.0  0.28642  0.24796  0.91975  1.0000
  S   S83       1.0  0.30024  0.32137  0.94448  1.0000
  Fe  Fe43      1.0  0.35578  0.25946  0.91288  1.0000
  S   S84       1.0  0.33112  0.21628  0.90368  1.0000
  S   S85       1.0  0.39463  0.26622  0.90605  1.0000
  Fe  Fe44      1.0  0.30060  0.26060  0.90050  1.0000
  S   S86       1.0  0.27053  0.26092  0.88280  1.0000
  Fe  Fe45      1.0  0.31878  0.20731  0.92360  1.0000
  S   S87       1.0  0.31822  0.15012  0.93277  1.0000
  S   S88       1.0  0.32571  0.30481  0.90850  1.0000
  S   S89       1.0  0.34556  0.24753  0.93301  1.0000
  H   H339      1.0  0.47239  0.28192  0.82857  1.0000
  C   C285      1.0  0.17166  0.49078  0.75364  1.0000
  S   S90       1.0  0.22931  0.06497  0.95443  1.0000
  Fe  Fe46      1.0  0.10931  0.09909  0.74886  1.0000
  H   H340      1.0  0.16706  0.41584  0.75654  1.0000
  S   S91       1.0  0.11683  0.15918  0.75342  1.0000
  C   C286      1.0  0.27645  0.14228  0.97852  1.0000
  H   H341      1.0  0.27240  0.25625  0.77047  1.0000
  H   H342      1.0  0.19216  0.26874  0.76344  1.0000
  H   H343      1.0  0.19528  0.20847  0.75683  1.0000
  C   C287      1.0  0.29150  0.16069  0.97056  1.0000
  S   S92       1.0  0.13542  0.04949  0.74802  1.0000
  S   S93       1.0  0.07818  0.06521  0.75522  1.0000
  Fe  Fe47      1.0  0.22184  0.36756  0.81484  1.0000
  S   S94       1.0  0.18021  0.35876  0.81252  1.0000
  S   S95       1.0  0.24693  0.37355  0.83420  1.0000
  Fe  Fe48      1.0  0.22297  0.37267  0.78512  1.0000
  S   S96       1.0  0.18147  0.36426  0.78094  1.0000
  S   S97       1.0  0.24252  0.37087  0.76676  1.0000
  Fe  Fe49      1.0  0.17754  0.40406  0.79705  1.0000
  S   S98       1.0  0.14510  0.44753  0.79484  1.0000
  Fe  Fe50      1.0  0.18776  0.32004  0.79647  1.0000
  S   S99       1.0  0.17762  0.25982  0.79516  1.0000
  S   S100      1.0  0.21875  0.41517  0.80025  1.0000
  S   S101      1.0  0.22962  0.32646  0.79984  1.0000
  S   S102      1.0  0.33017  0.47070  0.75198  1.0000
  C   C288      1.0  0.46065  0.35123  0.76639  1.0000
  C   C289      1.0  0.26734  0.39852  0.76322  1.0000
  C   C290      1.0  0.21070  0.20991  0.75096  1.0000
  H   H344      1.0  0.38927  0.35860  0.97938  1.0000
  C   C291      1.0  0.30612  0.44257  0.75626  1.0000
  C   C292      1.0  0.29427  0.44995  0.76743  1.0000
  C   C293      1.0  0.27502  0.42789  0.77095  1.0000
  Fe  Fe51      1.0  0.35135  0.45162  0.73537  1.0000
  H   H345      1.0  0.19372  0.17155  0.73739  1.0000
  H   H346      1.0  0.26622  0.43356  0.77965  1.0000
  C   C294      1.0  0.37766  0.37757  0.97235  1.0000
  C   C295      1.0  0.47107  0.30823  0.82291  1.0000
  C   C296      1.0  0.13440  0.18633  0.76507  1.0000
  C   C297      1.0  0.13360  0.22449  0.76302  1.0000
  C   C298      1.0  0.14667  0.24745  0.77206  1.0000
  C   C299      1.0  0.16069  0.23249  0.78333  1.0000
  C   C300      1.0  0.16161  0.19433  0.78534  1.0000
  C   C301      1.0  0.14863  0.17135  0.77627  1.0000
  H   H347      1.0  0.12267  0.23644  0.75440  1.0000
  H   H348      1.0  0.14564  0.27671  0.77040  1.0000
  H   H349      1.0  0.17235  0.18242  0.79403  1.0000
  H   H350      1.0  0.14943  0.14212  0.77802  1.0000
  H   H351      1.0  0.20849  0.47339  0.73807  1.0000
  C   C302      1.0  0.47131  0.25423  0.91097  1.0000
  C   C303      1.0  0.44600  0.26105  0.90569  1.0000
  C   C304      1.0  0.42612  0.25561  0.91322  1.0000
  C   C305      1.0  0.43194  0.24330  0.92620  1.0000
  C   C306      1.0  0.45730  0.23680  0.93153  1.0000
  H   H352      1.0  0.45183  0.34500  0.77503  1.0000
  H   H353      1.0  0.44179  0.27069  0.89567  1.0000
  H   H354      1.0  0.41694  0.23918  0.93216  1.0000
  H   H355      1.0  0.46154  0.22762  0.94159  1.0000
  C   C307      1.0  0.26516  0.29184  0.86910  1.0000
  C   C308      1.0  0.24561  0.28537  0.85917  1.0000
  C   C309      1.0  0.24008  0.30963  0.84832  1.0000
  C   C310      1.0  0.25384  0.34105  0.84735  1.0000
  C   C311      1.0  0.27331  0.34762  0.85733  1.0000
  C   C312      1.0  0.27911  0.32305  0.86807  1.0000
  H   H356      1.0  0.23465  0.26138  0.85983  1.0000
  H   H357      1.0  0.22501  0.30421  0.84077  1.0000
  H   H358      1.0  0.28414  0.37175  0.85666  1.0000
  H   H359      1.0  0.29436  0.32835  0.87553  1.0000
  C   C313      1.0  0.29344  0.12845  0.93960  1.0000
  C   C314      1.0  0.26877  0.14315  0.93815  1.0000
  C   C315      1.0  0.24949  0.12377  0.94304  1.0000
  C   C316      1.0  0.25470  0.08997  0.94971  1.0000
  C   C317      1.0  0.27953  0.07597  0.95161  1.0000
  C   C318      1.0  0.29871  0.09490  0.94643  1.0000
  H   H360      1.0  0.26441  0.16913  0.93311  1.0000
  H   H361      1.0  0.23035  0.13482  0.94152  1.0000
  H   H362      1.0  0.28381  0.04991  0.95664  1.0000
  H   H363      1.0  0.31772  0.08330  0.94764  1.0000
  C   C319      1.0  0.27406  0.44117  0.94764  1.0000
  C   C320      1.0  0.27215  0.41570  0.95769  1.0000
  C   C321      1.0  0.28017  0.37915  0.95647  1.0000
  C   C322      1.0  0.28987  0.36752  0.94513  1.0000
  C   C323      1.0  0.29186  0.39289  0.93503  1.0000
  C   C324      1.0  0.28404  0.42966  0.93631  1.0000
  H   H364      1.0  0.26440  0.42413  0.96642  1.0000
  H   H365      1.0  0.27865  0.35976  0.96436  1.0000
  H   H366      1.0  0.29969  0.38437  0.92635  1.0000
  H   H367      1.0  0.28553  0.44926  0.92850  1.0000
  S   S103      1.0  0.26369  0.48718  0.94891  1.0000
  N   N19       1.0  0.27554  0.13118  0.89640  1.0000
  C   C325      1.0  0.27003  0.16772  0.90149  1.0000
  C   C326      1.0  0.30306  0.12783  0.89565  1.0000
  C   C327      1.0  0.26268  0.12925  0.88291  1.0000
  C   C328      1.0  0.26629  0.10275  0.90485  1.0000
  C   C329      1.0  0.24028  0.10176  0.90630  1.0000
  C   C330      1.0  0.28251  0.07596  0.91203  1.0000
  C   C331      1.0  0.23112  0.07561  0.91438  1.0000
  C   C332      1.0  0.27307  0.04973  0.91998  1.0000
  C   C333      1.0  0.24748  0.04961  0.92118  1.0000
  H   H368      1.0  0.27909  0.16994  0.91168  1.0000
  H   H369      1.0  0.27715  0.18985  0.89555  1.0000
  H   H370      1.0  0.24959  0.17382  0.90152  1.0000
  H   H371      1.0  0.30936  0.14930  0.88910  1.0000
  H   H372      1.0  0.30860  0.10100  0.89178  1.0000
  H   H373      1.0  0.31402  0.13126  0.90538  1.0000
  H   H374      1.0  0.24212  0.13531  0.88236  1.0000
  H   H375      1.0  0.26988  0.14961  0.87622  1.0000
  H   H376      1.0  0.26550  0.10164  0.87890  1.0000
  H   H377      1.0  0.22688  0.12171  0.90140  1.0000
  H   H378      1.0  0.30266  0.07530  0.91203  1.0000
  H   H379      1.0  0.21133  0.07597  0.91569  1.0000
  H   H380      1.0  0.45833  0.34657  0.95672  1.0000
  H   H381      1.0  0.20765  0.48292  0.77371  1.0000
  C   C334      1.0  0.44623  0.36852  0.75550  1.0000
  H   H382      1.0  0.25547  0.29118  0.77808  1.0000
  H   H383      1.0  0.26650  0.24980  0.74763  1.0000
  H   H384      1.0  0.36041  0.38471  0.97700  1.0000
  H   H385      1.0  0.40541  0.32580  0.73652  1.0000
  H   H386      1.0  0.14411  0.46115  0.76336  1.0000
  C   C335      1.0  0.43541  0.33428  0.93903  1.0000
  C   C336      1.0  0.39361  0.35258  0.95256  1.0000
  H   H387      1.0  0.22584  0.37240  0.94487  1.0000
  C   C337      1.0  0.25032  0.23313  0.74594  1.0000
  C   C338      1.0  0.13141  0.46118  0.96686  1.0000
  H   H388      1.0  0.42315  0.36271  0.96859  1.0000
  H   H389      1.0  0.06911  0.20496  0.75871  1.0000
  H   H390      1.0  0.25756  0.29533  0.76112  1.0000
  Fe  Fe52      1.0  0.24470  0.50233  0.96674  1.0000
  H   H391      1.0  0.42651  0.37546  0.75580  1.0000
  Fe  Fe53      1.0  0.06461  0.06142  0.73384  1.0000
  C   C339      1.0  0.39291  0.30340  0.73322  1.0000
  H   H392      1.0  0.28035  0.11330  0.98019  1.0000
  H   H393      1.0  0.30672  0.14608  0.96658  1.0000
  H   H394      1.0  0.18480  0.44915  0.77537  1.0000
  N   N20       1.0  0.04120  0.18921  0.74326  1.0000
  H   H395      1.0  0.14697  0.44030  0.96674  1.0000
  C   C340      1.0  0.23127  0.23252  0.75446  1.0000
  C   C341      1.0  0.25195  0.19834  0.98050  1.0000
  C   C342      1.0  0.35337  0.38635  0.95148  1.0000
  C   C343      1.0  0.43928  0.34535  0.95191  1.0000
  C   C344      1.0  0.20023  0.45707  0.76967  1.0000
  H   H396      1.0  0.07721  0.18816  0.73572  1.0000
  C   C345      1.0  0.41105  0.33233  0.93281  1.0000
  H   H397      1.0  0.21040  0.29877  0.77359  1.0000
  H   H398      1.0  0.40812  0.32370  0.92279  1.0000
  H   H399      1.0  0.21421  0.43789  0.94119  1.0000
  H   H400      1.0  0.24495  0.20892  0.77908  1.0000
  N   N21       1.0  0.23201  0.25470  0.76632  1.0000
  H   H401      1.0  0.27306  0.36902  0.74588  1.0000
  C   C346      1.0  0.20953  0.18880  0.73979  1.0000
  H   H402      1.0  0.28581  0.03024  0.92570  1.0000
  H   H403      1.0  0.17318  0.42911  0.74037  1.0000
  C   C347      1.0  0.26689  0.21631  0.97233  1.0000
  S   S104      1.0  0.36594  0.39413  0.73348  1.0000
  H   H404      1.0  0.24042  0.03016  0.92780  1.0000
  N   N22       1.0  0.23871  0.35568  0.90134  1.0000
  C   C348      1.0  0.26609  0.34731  0.90396  1.0000
  C   C349      1.0  0.22541  0.32080  0.90074  1.0000
  C   C350      1.0  0.23363  0.37378  0.88822  1.0000
  C   C351      1.0  0.23083  0.37832  0.91199  1.0000
  C   C352      1.0  0.22409  0.41617  0.91024  1.0000
  C   C353      1.0  0.23129  0.36318  0.92480  1.0000
  C   C354      1.0  0.21791  0.43713  0.92067  1.0000
  C   C355      1.0  0.22472  0.38430  0.93509  1.0000
  C   C356      1.0  0.21813  0.42121  0.93305  1.0000
  H   H405      1.0  0.27289  0.32998  0.89627  1.0000
  H   H406      1.0  0.27684  0.37273  0.90431  1.0000
  H   H407      1.0  0.27123  0.33244  0.91347  1.0000
  H   H408      1.0  0.23136  0.30243  0.90933  1.0000
  H   H409      1.0  0.22943  0.30466  0.89213  1.0000
  H   H410      1.0  0.20469  0.32588  0.90006  1.0000
  H   H411      1.0  0.24524  0.39803  0.88734  1.0000
  H   H412      1.0  0.23844  0.35531  0.88034  1.0000
  H   H413      1.0  0.21339  0.38214  0.88589  1.0000
  H   H414      1.0  0.22395  0.43045  0.90099  1.0000
  H   H415      1.0  0.23765  0.33523  0.92711  1.0000
  H   H416      1.0  0.21359  0.46619  0.91930  1.0000
  H   H417      1.0  0.33732  0.39513  0.95681  1.0000
  C   C357      1.0  0.01453  0.19809  0.73835  1.0000
  S   S105      1.0  0.20489  0.48602  0.96741  1.0000
  H   H418      1.0  0.36271  0.41136  0.94859  1.0000
  H   H419      1.0  0.30023  0.47251  0.77347  1.0000
  H   H420      1.0  0.30720  0.40737  0.73988  1.0000
  H   H421      1.0  0.34455  0.37384  0.94245  1.0000
  C   C358      1.0  0.14804  0.48598  0.75827  1.0000
  H   H422      1.0  0.15577  0.48582  0.82033  1.0000
  Fe  Fe54      1.0  0.23078  0.01877  0.96982  1.0000
  C   C359      1.0  0.41877  0.35452  0.95863  1.0000
  H   H423      1.0  0.03517  0.00818  0.74768  1.0000
  H   H424      1.0  0.06616  0.14463  0.75117  1.0000
  H   H425      1.0  0.04806  0.24135  0.75222  1.0000
  H   H426      1.0  0.19662  0.40418  0.75140  1.0000
  C   C360      1.0  0.39043  0.34069  0.93948  1.0000
  H   H427      1.0  0.11396  0.44987  0.96187  1.0000
  C   C361      1.0  0.29835  0.41326  0.74854  1.0000
  H   H428      1.0  0.20120  0.47964  0.82784  1.0000
  C   C362      1.0  0.05724  0.19718  0.73283  1.0000
  C   C363      1.0  0.24891  0.21194  0.73478  1.0000
  C   C364      1.0  0.18159  0.42626  0.75073  1.0000
  H   H429      1.0  0.23123  0.24663  0.78709  1.0000
  H   H430      1.0  0.03726  0.20701  0.76266  1.0000
  H   H431      1.0  0.04180  0.13177  0.73910  1.0000
  C   C365      1.0  0.25546  0.27502  0.76905  1.0000
  H   H432      1.0  0.34141  0.33103  0.96647  1.0000
  H   H433      1.0  0.37197  0.33717  0.93432  1.0000
  H   H434      1.0  0.21554  0.43568  0.77162  1.0000
  H   H435      1.0  0.37336  0.31439  0.73363  1.0000
  N   N23       1.0  0.37140  0.36072  0.95947  1.0000
  C   C366      1.0  0.27897  0.39150  0.75198  1.0000
  C   C367      1.0  0.45740  0.37665  0.74425  1.0000
  C   C368      1.0  0.04609  0.15033  0.74739  1.0000
  H   H436      1.0  0.35289  0.31254  0.95236  1.0000
  N   N24       1.0  0.12781  0.47243  0.98028  1.0000
  H   H437      1.0  0.03505  0.14251  0.75542  1.0000
  H   H438      1.0  0.22790  0.44519  0.74986  1.0000
  N   N25       1.0  0.19157  0.46137  0.75555  1.0000
  C   C369      1.0  0.21060  0.28181  0.76480  1.0000
  C   C370      1.0  0.47716  0.24216  0.92395  1.0000
  C   C371      1.0  0.14235  0.49544  0.79112  1.0000
  H   H439      1.0  0.21164  0.30066  0.75630  1.0000
  H   H440      1.0  0.21152  0.21767  0.77743  1.0000
  H   H441      1.0  0.99960  0.14345  0.74064  1.0000
  C   C372      1.0  0.00692  0.23395  0.73368  1.0000
  C   C373      1.0  0.35879  0.32625  0.96166  1.0000
  C   C374      1.0  0.48303  0.36722  0.74402  1.0000
  H   H442      1.0  0.38774  0.40331  0.97136  1.0000
  H   H443      1.0  0.13664  0.48460  0.96079  1.0000
  H   H444      1.0  0.21356  0.12721  0.97631  1.0000
  C   C375      1.0  0.04916  0.21168  0.75469  1.0000
  H   H445      1.0  0.37147  0.30642  0.96783  1.0000
  C   C376      1.0  0.21388  0.46866  0.74873  1.0000
  H   H446      1.0  0.23860  0.09396  0.97993  1.0000
  C   C377      1.0  0.28662  0.19753  0.96739  1.0000
  H   H447      1.0  0.45129  0.32676  0.93386  1.0000
  H   H448      1.0  0.10232  0.49778  0.79200  1.0000
  C   C378      1.0  0.99569  0.17164  0.73758  1.0000
  H   H449      1.0  0.22418  0.49240  0.75283  1.0000
  H   H450      1.0  0.02019  0.25544  0.73394  1.0000
  H   H451      1.0  0.47746  0.34745  0.80239  1.0000
  H   H452      1.0  0.39654  0.28048  0.74050  1.0000
  Fe  Fe55      1.0  0.10286  0.01509  0.75244  1.0000
  H   H453      1.0  0.26309  0.24498  0.96975  1.0000
  C   C379      1.0  0.48635  0.34204  0.76618  1.0000
  H   H454      1.0  0.45786  0.30394  0.81395  1.0000
  S   S106      1.0  0.19464  0.01360  0.97896  1.0000
  H   H455      1.0  0.48629  0.25858  0.90500  1.0000
  H   H456      1.0  0.09134  0.49843  0.97438  1.0000
  H   H457      1.0  0.48558  0.37609  0.81611  1.0000
  H   H458      1.0  0.18159  0.50319  0.79000  1.0000
  Fe  Fe56      1.0  0.37472  0.69782  0.03130  1.0000
  S   S107      1.0  0.35016  0.71610  0.04625  1.0000
  S   S108      1.0  0.36240  0.66392  0.01374  1.0000
  Fe  Fe57      1.0  0.41849  0.74411  0.04235  1.0000
  S   S109      1.0  0.39656  0.76730  0.05791  1.0000
  S   S110      1.0  0.45768  0.76078  0.03829  1.0000
  Fe  Fe58      1.0  0.38495  0.70951  0.06074  1.0000
  S   S111      1.0  0.38705  0.67696  0.07998  1.0000
  Fe  Fe59      1.0  0.36337  0.77234  0.04214  1.0000
  S   S112      1.0  0.33236  0.81718  0.04020  1.0000
  S   S113      1.0  0.40874  0.68619  0.04596  1.0000
  S   S114      1.0  0.38614  0.75432  0.02642  1.0000
  Fe  Fe60      1.0  0.38525  0.71324  0.15657  1.0000
  S   S115      1.0  0.35511  0.71721  0.17004  1.0000
  S   S116      1.0  0.37447  0.73862  0.13625  1.0000
  Fe  Fe61      1.0  0.42398  0.68137  0.17835  1.0000
  S   S117      1.0  0.39619  0.68274  0.19299  1.0000
  S   S118      1.0  0.46574  0.66663  0.18288  1.0000
  Fe  Fe62      1.0  0.36916  0.66033  0.17685  1.0000
  S   S119      1.0  0.34026  0.61742  0.18057  1.0000
  Fe  Fe63      1.0  0.38480  0.73957  0.18476  1.0000
  S   S120      1.0  0.38227  0.78555  0.19965  1.0000
  S   S121      1.0  0.39800  0.65551  0.16267  1.0000
  S   S122      1.0  0.41400  0.73885  0.17086  1.0000
  S   S123      1.0  0.36984  0.96159  0.19759  1.0000
  C   C380      1.0  0.30540  0.52076  0.17452  1.0000
  H   H459      1.0  0.46664  0.80067  0.20989  1.0000
  S   S124      1.0  0.26625  0.56672  0.01106  1.0000
  H   H460      1.0  0.29021  0.77716  0.02876  1.0000
  S   S125      1.0  0.22466  0.95127  0.99867  1.0000
  H   H461      1.0  0.43937  0.70085  0.09125  1.0000
  H   H462      1.0  0.30891  0.68305  0.15286  1.0000
  C   C381      1.0  0.43922  0.72607  0.08507  1.0000
  H   H463      1.0  0.31836  0.71853  0.09684  1.0000
  C   C382      1.0  0.46470  0.62322  0.20517  1.0000
  C   C383      1.0  0.31690  0.74933  0.01022  1.0000
  H   H464      1.0  0.44442  0.62498  0.20313  1.0000
  H   H465      1.0  0.41895  0.83703  0.11839  1.0000
  C   C384      1.0  0.31750  0.50436  0.16470  1.0000
  C   C385      1.0  0.34416  0.55755  0.16433  1.0000
  C   C386      1.0  0.33206  0.57393  0.17416  1.0000
  C   C387      1.0  0.31261  0.55527  0.17917  1.0000
  H   H466      1.0  0.46775  0.62152  0.01580  1.0000
  H   H467      1.0  0.34420  0.63987  0.15386  1.0000
  H   H468      1.0  0.35935  0.57112  0.16048  1.0000
  H   H469      1.0  0.30307  0.56757  0.18677  1.0000
  H   H470      1.0  0.46482  0.58922  0.22250  1.0000
  C   C388      1.0  0.37912  0.83457  0.19878  1.0000
  C   C389      1.0  0.37947  0.85402  0.21045  1.0000
  C   C390      1.0  0.37689  0.89265  0.21034  1.0000
  C   C391      1.0  0.37382  0.91263  0.19850  1.0000
  C   C392      1.0  0.37361  0.89318  0.18684  1.0000
  C   C393      1.0  0.37630  0.85457  0.18696  1.0000
  H   H471      1.0  0.38155  0.83908  0.21968  1.0000
  H   H472      1.0  0.37705  0.90691  0.21941  1.0000
  H   H473      1.0  0.37128  0.90806  0.17760  1.0000
  H   H474      1.0  0.37597  0.84029  0.17788  1.0000
  H   H475      1.0  0.31365  0.71525  0.11984  1.0000
  H   H476      1.0  0.32934  0.66345  0.08504  1.0000
  C   C394      1.0  0.32232  0.84661  0.02649  1.0000
  C   C395      1.0  0.29942  0.86689  0.02617  1.0000
  C   C396      1.0  0.29085  0.89092  0.01560  1.0000
  C   C397      1.0  0.30525  0.89524  0.00525  1.0000
  C   C398      1.0  0.32809  0.87477  0.00553  1.0000
  C   C399      1.0  0.33655  0.85048  0.01605  1.0000
  H   H477      1.0  0.28827  0.86418  0.03420  1.0000
  H   H478      1.0  0.27324  0.90637  0.01552  1.0000
  H   H479      1.0  0.34643  0.51074  0.15207  1.0000
  H   H480      1.0  0.35426  0.83526  0.01617  1.0000
  C   C400      1.0  0.38429  0.69499  0.09558  1.0000
  C   C401      1.0  0.39061  0.67236  0.10674  1.0000
  C   C402      1.0  0.38818  0.68537  0.11930  1.0000
  C   C403      1.0  0.37904  0.72109  0.12078  1.0000
  C   C404      1.0  0.37301  0.74383  0.10963  1.0000
  C   C405      1.0  0.37576  0.73098  0.09710  1.0000
  H   H481      1.0  0.39727  0.64451  0.10565  1.0000
  H   H482      1.0  0.39321  0.66770  0.12778  1.0000
  H   H483      1.0  0.36606  0.77156  0.11070  1.0000
  H   H484      1.0  0.37078  0.74867  0.08860  1.0000
  C   C406      1.0  0.33574  0.63684  0.01315  1.0000
  C   C407      1.0  0.32324  0.63127  0.02413  1.0000
  C   C408      1.0  0.30193  0.60979  0.02328  1.0000
  C   C409      1.0  0.29296  0.59367  0.01149  1.0000
  C   C410      1.0  0.30534  0.59947  0.00048  1.0000
  C   C411      1.0  0.32669  0.62094  0.00133  1.0000
  H   H485      1.0  0.33011  0.64320  0.03329  1.0000
  H   H486      1.0  0.29246  0.60533  0.03184  1.0000
  C   C412      1.0  0.48440  0.69955  0.22794  1.0000
  H   H487      1.0  0.33630  0.62513  0.99280  1.0000
  C   C413      1.0  0.43409  0.73919  0.22537  1.0000
  C   C414      1.0  0.47631  0.60287  0.21611  1.0000
  S   S126      1.0  0.29546  0.92533  0.99170  1.0000
  C   C415      1.0  0.28576  0.74952  0.02505  1.0000
  H   H488      1.0  0.44469  0.71753  0.07549  1.0000
  H   H489      1.0  0.25034  0.99137  0.23104  1.0000
  H   H490      1.0  0.10863  0.51739  0.98871  1.0000
  H   H491      1.0  0.00886  0.61105  0.21674  1.0000
  H   H492      1.0  0.43399  0.74443  0.19906  1.0000
  H   H493      1.0  0.43366  0.79928  0.21065  1.0000
  H   H494      1.0  0.40443  0.51591  0.18266  1.0000
  H   H495      1.0  0.43653  0.72835  0.13335  1.0000
  C   C416      1.0  0.45560  0.78472  0.08146  1.0000
  H   H496      1.0  0.32139  0.74690  0.00001  1.0000
  H   H497      1.0  0.30438  0.80588  0.99596  1.0000
  H   H498      1.0  0.45250  0.71129  0.11305  1.0000
  H   H499      1.0  0.28409  0.70802  0.99582  1.0000
  C   C417      1.0  0.45152  0.73371  0.20498  1.0000
  H   H500      1.0  0.41936  0.73662  0.08334  1.0000
  S   S127      1.0  0.20865  0.52269  0.99607  1.0000
  H   H501      1.0  0.46680  0.84979  0.03546  1.0000
  H   H502      1.0  0.32431  0.77518  0.01429  1.0000
  C   C418      1.0  0.44614  0.73933  0.11395  1.0000
  H   H503      1.0  0.09454  0.89360  0.98978  1.0000
  C   C419      1.0  0.33682  0.52314  0.15961  1.0000
  N   N26       1.0  0.28950  0.74709  0.01107  1.0000
  H   H504      1.0  0.33496  0.60359  0.09659  1.0000
  C   C420      1.0  0.42697  0.80992  0.11716  1.0000
  H   H505      1.0  0.29923  0.62199  0.14990  1.0000
  H   H506      1.0  0.33015  0.59813  0.11979  1.0000
  C   C421      1.0  0.32047  0.65580  0.12220  1.0000
  C   C422      1.0  0.31737  0.68982  0.11521  1.0000
  C   C423      1.0  0.32671  0.62469  0.11507  1.0000
  C   C424      1.0  0.32010  0.69220  0.10191  1.0000
  C   C425      1.0  0.32957  0.62748  0.10179  1.0000
  C   C426      1.0  0.32629  0.66117  0.09523  1.0000
  C   C427      1.0  0.26909  0.83165  0.98946  1.0000
  H   H507      1.0  0.28244  0.62945  0.13382  1.0000
  H   H508      1.0  0.35151  0.61526  0.13995  1.0000
  C   C428      1.0  0.27394  0.77617  0.00344  1.0000
  C   C429      1.0  0.28190  0.71073  0.00635  1.0000
  C   C430      1.0  0.42737  0.78391  0.12721  1.0000
  H   H509      1.0  0.46277  0.77550  0.07229  1.0000
  N   N27       1.0  0.31900  0.65243  0.13642  1.0000
  C   C431      1.0  0.31046  0.68679  0.14224  1.0000
  C   C432      1.0  0.24736  0.77757  0.00329  1.0000
  N   N28       1.0  0.45554  0.75420  0.09116  1.0000
  H   H510      1.0  0.26618  0.74428  0.02684  1.0000
  C   C433      1.0  0.30140  0.62380  0.13929  1.0000
  H   H511      1.0  0.30806  0.59604  0.13681  1.0000
  H   H512      1.0  0.35339  0.99115  0.17088  1.0000
  H   H513      1.0  0.23809  0.75754  0.00864  1.0000
  H   H514      1.0  0.29049  0.50687  0.17854  1.0000
  H   H515      1.0  0.37056  0.52908  0.19638  1.0000
  C   C434      1.0  0.43625  0.80093  0.10547  1.0000
  H   H516      1.0  0.29814  0.72934  0.03123  1.0000
  H   H517      1.0  0.43625  0.79635  0.07842  1.0000
  H   H518      1.0  0.29166  0.69669  0.13747  1.0000
  H   H519      1.0  0.33936  0.87789  0.99757  1.0000
  H   H520      1.0  0.29861  0.58715  0.99137  1.0000
  C   C435      1.0  0.47939  0.64090  0.19682  1.0000
  H   H521      1.0  0.29366  0.68833  0.01171  1.0000
  C   C436      1.0  0.23228  0.80544  0.99653  1.0000
  C   C437      1.0  0.34427  0.64203  0.14309  1.0000
  H   H522      1.0  0.35801  0.66276  0.14102  1.0000
  H   H523      1.0  0.32410  0.70878  0.14153  1.0000
  H   H524      1.0  0.43501  0.82230  0.09806  1.0000
  Fe  Fe64      1.0  0.24800  0.53778  0.99335  1.0000
  H   H525      1.0  0.26216  0.70511  0.00773  1.0000
  H   H526      1.0  0.21210  0.80660  0.99681  1.0000
  H   H527      1.0  0.46774  0.80687  0.08536  1.0000
  H   H528      1.0  0.47074  0.67961  0.22485  1.0000
  H   H529      1.0  0.41949  0.79061  0.13613  1.0000
  H   H530      1.0  0.45391  0.80496  0.22538  1.0000
  C   C438      1.0  0.47935  0.73736  0.22512  1.0000
  H   H531      1.0  0.27753  0.85323  0.98431  1.0000
  Fe  Fe65      1.0  0.25830  0.95881  0.98807  1.0000
  H   H532      1.0  0.32798  0.72687  0.01595  1.0000
  N   N29       1.0  0.45488  0.75031  0.21801  1.0000
  C   C439      1.0  0.44620  0.76519  0.10352  1.0000
  H   H533      1.0  0.43283  0.70906  0.22611  1.0000
  H   H534      1.0  0.41542  0.74966  0.22051  1.0000
  C   C440      1.0  0.45237  0.79058  0.21596  1.0000
  H   H535      1.0  0.02538  0.55810  0.23087  1.0000
  H   H536      1.0  0.47569  0.71458  0.06122  1.0000
  C   C441      1.0  0.28438  0.80407  0.99624  1.0000
  C   C442      1.0  0.24316  0.83256  0.98969  1.0000
  C   C443      1.0  0.43704  0.74875  0.12563  1.0000
  H   H537      1.0  0.14585  0.50957  0.15212  1.0000
  H   H538      1.0  0.45007  0.70363  0.20562  1.0000
  H   H539      1.0  0.18197  0.57543  0.22738  1.0000
  H   H540      1.0  0.23154  0.85475  0.98475  1.0000
  C   C444      1.0  0.48719  0.84836  0.03621  1.0000
  H   H541      1.0  0.46758  0.73916  0.19937  1.0000
  H   H542      1.0  0.14543  0.53910  0.21986  1.0000
  H   H543      1.0  0.48282  0.71267  0.09963  1.0000
  C   C445      1.0  0.48166  0.73868  0.09383  1.0000
  H   H544      1.0  0.18607  0.51894  0.21891  1.0000
  C   C446      1.0  0.14033  0.54001  0.22998  1.0000
  H   H545      1.0  0.12737  0.56427  0.23041  1.0000
  H   H546      1.0  0.00284  0.67105  0.22602  1.0000
  C   C447      1.0  0.01341  0.61447  0.22714  1.0000
  H   H547      1.0  0.48378  0.65970  0.03415  1.0000
  H   H548      1.0  0.12938  0.51536  0.23138  1.0000
  C   C448      1.0  0.03994  0.85983  0.44920  1.0000
  C   C449      1.0  0.24256  0.84501  0.46145  1.0000
  C   C450      1.0  0.02761  0.71708  0.24615  1.0000
  H   H549      1.0  0.28466  0.82157  0.47414  1.0000
  S   S128      1.0  0.23846  0.94132  0.46028  1.0000
  H   H550      1.0  0.09305  0.94903  0.32878  1.0000
  Fe  Fe66      1.0  0.08904  0.72346  0.39825  1.0000
  S   S129      1.0  0.06445  0.76826  0.40515  1.0000
  S   S130      1.0  0.08799  0.70193  0.37763  1.0000
  Fe  Fe67      1.0  0.11411  0.70253  0.42599  1.0000
  S   S131      1.0  0.09080  0.74515  0.43507  1.0000
  S   S132      1.0  0.14855  0.67513  0.43809  1.0000
  Fe  Fe68      1.0  0.05788  0.72844  0.42107  1.0000
  S   S133      1.0  0.01960  0.71966  0.42803  1.0000
  Fe  Fe69      1.0  0.09888  0.78216  0.41868  1.0000
  S   S134      1.0  0.10895  0.84125  0.42141  1.0000
  S   S135      1.0  0.08050  0.68211  0.41347  1.0000
  S   S136      1.0  0.12404  0.74098  0.41025  1.0000
  Fe  Fe70      1.0  0.03484  0.79290  0.27749  1.0000
  S   S137      1.0  0.06681  0.78930  0.26542  1.0000
  Fe  Fe71      1.0  0.20745  0.93731  0.47301  1.0000
  Fe  Fe72      1.0  0.07091  0.78458  0.30306  1.0000
  S   S138      1.0  0.10529  0.77934  0.29224  1.0000
  S   S139      1.0  0.07137  0.79798  0.32470  1.0000
  Fe  Fe73      1.0  0.08726  0.82670  0.27978  1.0000
  S   S140      1.0  0.10379  0.87918  0.27229  1.0000
  Fe  Fe74      1.0  0.08171  0.74188  0.27876  1.0000
  S   S141      1.0  0.09254  0.69295  0.26641  1.0000
  S   S142      1.0  0.05387  0.83300  0.29085  1.0000
  S   S143      1.0  0.04877  0.74443  0.29052  1.0000
  H   H551      1.0  0.99353  0.88640  0.41850  1.0000
  H   H552      1.0  0.03953  0.74692  0.37793  1.0000
  C   C451      1.0  0.01264  0.69213  0.36654  1.0000
  C   C452      1.0  0.24207  0.98246  0.26347  1.0000
  H   H553      1.0  0.06071  0.86296  0.45053  1.0000
  C   C453      1.0  0.15028  0.97099  0.29204  1.0000
  H   H554      1.0  0.04109  0.94786  0.28931  1.0000
  C   C454      1.0  0.12282  0.94805  0.27377  1.0000
  C   C455      1.0  0.12227  0.91369  0.28008  1.0000
  C   C456      1.0  0.13632  0.90796  0.29230  1.0000
  C   C457      1.0  0.15013  0.93644  0.29824  1.0000
  H   H555      1.0  0.00409  0.66494  0.36658  1.0000
  H   H556      1.0  0.11219  0.95273  0.26427  1.0000
  H   H557      1.0  0.13672  0.88143  0.29712  1.0000
  H   H558      1.0  0.16084  0.93162  0.30771  1.0000
  C   C458      1.0  0.08993  0.64439  0.26594  1.0000
  C   C459      1.0  0.09248  0.62652  0.25417  1.0000
  C   C460      1.0  0.09166  0.58808  0.25339  1.0000
  C   C461      1.0  0.08900  0.56666  0.26450  1.0000
  C   C462      1.0  0.08610  0.58457  0.27622  1.0000
  C   C463      1.0  0.08634  0.62308  0.27693  1.0000
  H   H559      1.0  0.09502  0.64261  0.24556  1.0000
  H   H560      1.0  0.09323  0.57501  0.24422  1.0000
  H   H561      1.0  0.08388  0.56848  0.28488  1.0000
  H   H562      1.0  0.08445  0.63615  0.28608  1.0000
  C   C464      1.0  0.08354  0.72902  0.36299  1.0000
  C   C465      1.0  0.08040  0.76703  0.36314  1.0000
  C   C466      1.0  0.07664  0.78752  0.35132  1.0000
  C   C467      1.0  0.07612  0.77039  0.33921  1.0000
  C   C468      1.0  0.07919  0.73235  0.33907  1.0000
  C   C469      1.0  0.08282  0.71181  0.35090  1.0000
  H   H563      1.0  0.08104  0.78072  0.37235  1.0000
  H   H564      1.0  0.07433  0.81691  0.35155  1.0000
  H   H565      1.0  0.07879  0.71880  0.32984  1.0000
  H   H566      1.0  0.08519  0.68242  0.35066  1.0000
  C   C470      1.0  0.99211  0.82002  0.44221  1.0000
  S   S144      1.0  0.08953  0.51772  0.26441  1.0000
  C   C471      1.0  0.16134  0.87752  0.45698  1.0000
  C   C472      1.0  0.15733  0.89935  0.44561  1.0000
  C   C473      1.0  0.14140  0.88782  0.43473  1.0000
  C   C474      1.0  0.12988  0.85404  0.43501  1.0000
  C   C475      1.0  0.13438  0.83186  0.44629  1.0000
  C   C476      1.0  0.14979  0.84377  0.45726  1.0000
  H   H567      1.0  0.16601  0.92547  0.44529  1.0000
  H   H568      1.0  0.13798  0.90521  0.42606  1.0000
  H   H569      1.0  0.12558  0.80589  0.44669  1.0000
  H   H570      1.0  0.15274  0.82674  0.46603  1.0000
  C   C477      1.0  0.17473  0.55712  0.45082  1.0000
  C   C478      1.0  0.15160  0.56380  0.44301  1.0000
  C   C479      1.0  0.14301  0.59971  0.43916  1.0000
  C   C480      1.0  0.15761  0.62931  0.44302  1.0000
  C   C481      1.0  0.18063  0.62257  0.45092  1.0000
  C   C482      1.0  0.18912  0.58675  0.45484  1.0000
  H   H571      1.0  0.14034  0.54106  0.43985  1.0000
  H   H572      1.0  0.12519  0.60439  0.43317  1.0000
  H   H573      1.0  0.07057  0.97885  0.30310  1.0000
  C   C483      1.0  0.20431  0.95341  0.26858  1.0000
  C   C484      1.0  0.15336  0.54490  0.25288  1.0000
  H   H574      1.0  0.03516  0.80153  0.42408  1.0000
  C   C485      1.0  0.23626  0.98696  0.24973  1.0000
  H   H575      1.0  0.15872  0.58546  0.47609  1.0000
  H   H576      1.0  0.19216  0.64516  0.45393  1.0000
  H   H577      1.0  0.15087  0.60448  0.38259  1.0000
  C   C486      1.0  0.17426  0.60667  0.40775  1.0000
  C   C487      1.0  0.25516  0.98723  0.24147  1.0000
  H   H578      1.0  0.01274  0.71824  0.26992  1.0000
  C   C488      1.0  0.02861  0.58891  0.24842  1.0000
  H   H579      1.0  0.20965  0.52650  0.42905  1.0000
  H   H580      1.0  0.06085  0.87664  0.42786  1.0000
  H   H581      1.0  0.06002  0.96154  0.32567  1.0000
  C   C489      1.0  0.18881  0.76295  0.45529  1.0000
  H   H582      1.0  0.06378  0.81447  0.43348  1.0000
  C   C490      1.0  0.17014  0.67310  0.40238  1.0000
  H   H583      1.0  0.33728  0.57878  0.47808  1.0000
  H   H584      1.0  0.03591  0.83951  0.45674  1.0000
  H   H585      1.0  0.02529  0.74462  0.25036  1.0000
  H   H586      1.0  0.31336  0.52804  0.47816  1.0000
  C   C491      1.0  0.17662  0.57413  0.23746  1.0000
  C   C492      1.0  0.21133  0.72482  0.47242  1.0000
  H   H587      1.0  0.01857  0.70777  0.39900  1.0000
  H   H588      1.0  0.18932  0.95229  0.27520  1.0000
  H   H589      1.0  0.19441  0.95682  0.25853  1.0000
  C   C493      1.0  0.18019  0.54134  0.41364  1.0000
  C   C494      1.0  0.01562  0.65400  0.24616  1.0000
  C   C495      1.0  0.19467  0.61308  0.41744  1.0000
  H   H590      1.0  0.22257  0.58978  0.43238  1.0000
  S   S145      1.0  0.17986  0.89143  0.47126  1.0000
  C   C496      1.0  0.16048  0.62969  0.38571  1.0000
  C   C497      1.0  0.20748  0.58427  0.42482  1.0000
  H   H591      1.0  0.20695  0.58204  0.46084  1.0000
  C   C498      1.0  0.01694  0.69080  0.26610  1.0000
  H   H592      1.0  0.21459  0.92636  0.26928  1.0000
  H   H593      1.0  0.00536  0.87142  0.26675  1.0000
  H   H594      1.0  0.04043  0.79165  0.44119  1.0000
  N   N30       1.0  0.24442  0.81487  0.47141  1.0000
  C   C499      1.0  0.01183  0.87525  0.31001  1.0000
  C   C500      1.0  0.03992  0.87523  0.42652  1.0000
  H   H595      1.0  0.13248  0.64207  0.41321  1.0000
  C   C501      1.0  0.00964  0.91614  0.29130  1.0000
  C   C502      1.0  0.16738  0.56986  0.40612  1.0000
  H   H596      1.0  0.15172  0.56293  0.39917  1.0000
  H   H597      1.0  0.03324  0.68761  0.36610  1.0000
  H   H598      1.0  0.02329  0.72073  0.23542  1.0000
  H   H599      1.0  0.00530  0.67141  0.27095  1.0000
  H   H600      1.0  0.01381  0.76666  0.38552  1.0000
  H   H601      1.0  0.00177  0.77518  0.40776  1.0000
  S   S146      1.0  0.18525  0.51145  0.45510  1.0000
  H   H602      1.0  0.12383  0.61222  0.40006  1.0000
  H   H603      1.0  0.15936  0.69471  0.39607  1.0000
  H   H604      1.0  0.25743  0.86511  0.46374  1.0000
  H   H605      1.0  0.20191  0.81575  0.45242  1.0000
  H   H606      1.0  0.09125  0.88127  0.30218  1.0000
  C   C503      1.0  0.03366  0.92806  0.29555  1.0000
  H   H607      1.0  0.14875  0.52146  0.47478  1.0000
  C   C504      1.0  0.26796  0.97770  0.26838  1.0000
  H   H608      1.0  0.03081  0.88639  0.45141  1.0000
  H   H609      1.0  0.17836  0.70887  0.46020  1.0000
  H   H610      1.0  0.27438  0.97461  0.27865  1.0000
  C   C505      1.0  0.00996  0.64869  0.23256  1.0000
  H   H611      1.0  0.10213  0.96107  0.30722  1.0000
  H   H612      1.0  0.14168  0.57046  0.25337  1.0000
  C   C506      1.0  0.13666  0.97657  0.27970  1.0000
  H   H613      1.0  0.21704  0.99080  0.24530  1.0000
  N   N31       1.0  0.01134  0.69040  0.25167  1.0000
  H   H614      1.0  0.43644  0.74979  0.23544  1.0000
  N   N32       1.0  0.00759  0.71287  0.37821  1.0000
  H   H615      1.0  0.16882  0.68110  0.41265  1.0000
  H   H616      1.0  0.00343  0.80230  0.44927  1.0000
  N   N33       1.0  0.16263  0.54102  0.23993  1.0000
  H   H617      1.0  0.00369  0.85389  0.31537  1.0000
  N   N34       1.0  0.03100  0.84849  0.43580  1.0000
  N   N35       1.0  0.16004  0.63642  0.39982  1.0000
  H   H618      1.0  0.16518  0.59962  0.23863  1.0000
  H   H619      1.0  0.17429  0.51353  0.41246  1.0000
  H   H620      1.0  0.19007  0.67418  0.40041  1.0000
  H   H621      1.0  0.03099  0.62443  0.26431  1.0000
  H   H622      1.0  0.04541  0.87411  0.32319  1.0000
  C   C507      1.0  0.23090  0.97876  0.28613  1.0000
  C   C508      1.0  0.99885  0.88960  0.29844  1.0000
  C   C509      1.0  0.22830  0.75239  0.47534  1.0000
  C   C510      1.0  0.03577  0.88714  0.31441  1.0000
  H   H623      1.0  0.03233  0.90335  0.42792  1.0000
  H   H624      1.0  0.20073  0.64013  0.41979  1.0000
  C   C511      1.0  0.04310  0.81254  0.43356  1.0000
  H   H625      1.0  0.27455  0.78459  0.46388  1.0000
  H   H626      1.0  0.30637  0.97503  0.26392  1.0000
  H   H627      1.0  0.15053  0.65232  0.37951  1.0000
  H   H628      1.0  0.19419  0.57498  0.24435  1.0000
  H   H629      1.0  0.18014  0.62711  0.38325  1.0000
  S   S147      1.0  0.26060  0.51032  0.46483  1.0000
  H   H630      1.0  0.12236  0.66030  0.39706  1.0000
  C   C512      1.0  0.20023  0.54853  0.42295  1.0000
  C   C513      1.0  0.13356  0.63772  0.40265  1.0000
  C   C514      1.0  0.28667  0.97769  0.25999  1.0000
  Fe  Fe75      1.0  0.26435  0.93795  0.47914  1.0000
  N   N36       1.0  0.07339  0.92464  0.31187  1.0000
  C   C515      1.0  0.09112  0.89252  0.31211  1.0000
  C   C516      1.0  0.02102  0.69312  0.38985  1.0000
  C   C517      1.0  0.07421  0.93874  0.32528  1.0000
  C   C518      1.0  0.04757  0.91370  0.30726  1.0000
  H   H631      1.0  0.14114  0.52217  0.25508  1.0000
  C   C519      1.0  0.08269  0.95345  0.30353  1.0000
  H   H632      1.0  0.08366  0.94393  0.29341  1.0000
  H   H633      1.0  0.03480  0.86741  0.41621  1.0000
  S   S148      1.0  0.99446  0.79376  0.26768  1.0000
  C   C520      1.0  0.32605  0.51451  0.47175  1.0000
  H   H634      1.0  0.11073  0.89954  0.31565  1.0000
  H   H635      1.0  0.08626  0.86996  0.31859  1.0000
  S   S149      1.0  0.26460  0.99900  0.48104  1.0000
  H   H636      1.0  0.32826  0.53336  0.46341  1.0000
  C   C521      1.0  0.27075  0.79968  0.47273  1.0000
  H   H637      1.0  0.07044  0.91728  0.33248  1.0000
  C   C522      1.0  0.17910  0.50799  0.23904  1.0000
  N   N37       1.0  0.22168  0.98322  0.27201  1.0000
  C   C523      1.0  0.28032  0.98271  0.24660  1.0000
  H   H638      1.0  0.01215  0.76418  0.36808  1.0000
  H   H639      1.0  0.24470  0.83458  0.45159  1.0000
  H   H640      1.0  0.99953  0.92684  0.28222  1.0000
  H   H641      1.0  0.16912  0.54610  0.26087  1.0000
  S   S150      1.0  0.29865  0.89877  0.48093  1.0000
  H   H642      1.0  0.13659  0.00289  0.27477  1.0000
  H   H643      1.0  0.04161  0.69037  0.38927  1.0000
  S   S151      1.0  0.20230  0.99834  0.47484  1.0000
  H   H644      1.0  0.01447  0.66487  0.39080  1.0000
  C   C524      1.0  0.01865  0.74923  0.37740  1.0000
  C   C525      1.0  0.98926  0.73846  0.42194  1.0000
  H   H645      1.0  0.24117  0.95202  0.28835  1.0000
  C   C526      1.0  0.00332  0.84546  0.43434  1.0000
  H   H646      1.0  0.47593  0.97710  0.27242  1.0000
  H   H647      1.0  0.17318  0.76711  0.44764  1.0000
  C   C527      1.0  0.19166  0.73009  0.46240  1.0000
  C   C528      1.0  0.20571  0.79067  0.45810  1.0000
  H   H648      1.0  0.04784  0.70830  0.24827  1.0000
  C   C529      1.0  0.22634  0.78594  0.46809  1.0000
  H   H649      1.0  0.21331  0.69930  0.47801  1.0000
  H   H650      1.0  0.03723  0.68423  0.26931  1.0000
  H   H651      1.0  0.22435  0.86093  0.46103  1.0000
  H   H652      1.0  0.00502  0.70668  0.35729  1.0000
  Fe  Fe76      1.0  0.23573  0.00193  0.46344  1.0000
  C   C530      1.0  0.02539  0.62304  0.25394  1.0000
  H   H653      1.0  0.48149  0.99359  0.28871  1.0000
  H   H654      1.0  0.27532  0.78107  0.48137  1.0000
  H   H655      1.0  0.03614  0.56566  0.25453  1.0000
  H   H656      1.0  0.21512  0.97962  0.29227  1.0000
  H   H657      1.0  0.24333  0.00119  0.28951  1.0000
  C   C531      1.0  0.02266  0.58463  0.23507  1.0000
  H   H658      1.0  0.48726  0.51568  0.25396  1.0000
  C   C532      1.0  0.48667  0.99694  0.27863  1.0000
  H   H659      1.0  0.29505  0.98374  0.24024  1.0000
  Fe  Fe77      1.0  0.23147  0.99265  0.49231  1.0000
  H   H660      1.0  0.47606  0.73748  0.57641  1.0000
  C   C533      1.0  0.17055  0.52330  0.50723  1.0000
  H   H661      1.0  0.36276  0.90363  0.52204  1.0000
  C   C534      1.0  0.40698  0.90255  0.68830  1.0000
  S   S152      1.0  0.28319  0.58204  0.49050  1.0000
  C   C535      1.0  0.48218  0.86052  0.71549  1.0000
  H   H662      1.0  0.46420  0.85286  0.57045  1.0000
  S   S153      1.0  0.23364  0.93145  0.49175  1.0000
  Fe  Fe78      1.0  0.39958  0.72786  0.56105  1.0000
  S   S154      1.0  0.40483  0.78167  0.55121  1.0000
  S   S155      1.0  0.41090  0.71146  0.58240  1.0000
  Fe  Fe79      1.0  0.38648  0.69020  0.53492  1.0000
  S   S156      1.0  0.39187  0.74112  0.52299  1.0000
  S   S157      1.0  0.37720  0.63197  0.52903  1.0000
  Fe  Fe80      1.0  0.42636  0.74938  0.53752  1.0000
  S   S158      1.0  0.46319  0.77426  0.53305  1.0000
  Fe  Fe81      1.0  0.37030  0.76988  0.53753  1.0000
  S   S159      1.0  0.33710  0.81100  0.53383  1.0000
  S   S160      1.0  0.42280  0.69623  0.54804  1.0000
  S   S161      1.0  0.36318  0.71853  0.54868  1.0000
  Fe  Fe82      1.0  0.38441  0.78609  0.65305  1.0000
  S   S162      1.0  0.35629  0.77674  0.66744  1.0000
  S   S163      1.0  0.37131  0.78894  0.63119  1.0000
  Fe  Fe83      1.0  0.42495  0.80830  0.67464  1.0000
  S   S164      1.0  0.39954  0.80057  0.69011  1.0000
  S   S165      1.0  0.46485  0.82879  0.67787  1.0000
  Fe  Fe84      1.0  0.38880  0.74797  0.68011  1.0000
  S   S166      1.0  0.38989  0.69854  0.69458  1.0000
  Fe  Fe85      1.0  0.36952  0.82971  0.67610  1.0000
  S   S167      1.0  0.34516  0.87489  0.68407  1.0000
  S   S168      1.0  0.41619  0.75453  0.66517  1.0000
  S   S169      1.0  0.39574  0.84029  0.66120  1.0000
  C   C536      1.0  0.45548  0.74403  0.69607  1.0000
  C   C537      1.0  0.45797  0.82523  0.56764  1.0000
  H   H663      1.0  0.34292  0.64505  0.54891  1.0000
  H   H664      1.0  0.45817  0.82299  0.55688  1.0000
  C   C538      1.0  0.32002  0.62983  0.69816  1.0000
  H   H665      1.0  0.38490  0.65360  0.56185  1.0000
  H   H666      1.0  0.45008  0.83821  0.70419  1.0000
  C   C539      1.0  0.33629  0.91876  0.67678  1.0000
  C   C540      1.0  0.32300  0.94423  0.68369  1.0000
  C   C541      1.0  0.36471  0.53419  0.48488  1.0000
  C   C542      1.0  0.33477  0.96392  0.65900  1.0000
  C   C543      1.0  0.31937  0.59891  0.70623  1.0000
  C   C544      1.0  0.34223  0.92892  0.66440  1.0000
  H   H667      1.0  0.31826  0.93674  0.69327  1.0000
  C   C545      1.0  0.31756  0.63769  0.72483  1.0000
  C   C546      1.0  0.31797  0.60182  0.71983  1.0000
  H   H668      1.0  0.35228  0.90966  0.65890  1.0000
  C   C547      1.0  0.38425  0.65058  0.69420  1.0000
  C   C548      1.0  0.38882  0.62954  0.70590  1.0000
  C   C549      1.0  0.38423  0.59177  0.70623  1.0000
  C   C550      1.0  0.37460  0.57434  0.69487  1.0000
  C   C551      1.0  0.37035  0.59529  0.68315  1.0000
  C   C552      1.0  0.37518  0.63300  0.68278  1.0000
  H   H669      1.0  0.39589  0.64259  0.71480  1.0000
  H   H670      1.0  0.38808  0.57620  0.71528  1.0000
  H   H671      1.0  0.36300  0.58229  0.67427  1.0000
  H   H672      1.0  0.37157  0.64851  0.67369  1.0000
  C   C553      1.0  0.38337  0.76759  0.61787  1.0000
  C   C554      1.0  0.40174  0.73922  0.61956  1.0000
  C   C555      1.0  0.41012  0.72247  0.60859  1.0000
  C   C556      1.0  0.40037  0.73407  0.59586  1.0000
  C   C557      1.0  0.38232  0.76280  0.59417  1.0000
  C   C558      1.0  0.37378  0.77928  0.60513  1.0000
  H   H673      1.0  0.40919  0.72989  0.62931  1.0000
  H   H674      1.0  0.42408  0.70023  0.60998  1.0000
  H   H675      1.0  0.37456  0.77182  0.58444  1.0000
  H   H676      1.0  0.35952  0.80114  0.60374  1.0000
  C   C559      1.0  0.30840  0.87235  0.49534  1.0000
  C   C560      1.0  0.33114  0.85148  0.49638  1.0000
  C   C561      1.0  0.33991  0.83152  0.50795  1.0000
  C   C562      1.0  0.32589  0.83218  0.51857  1.0000
  C   C563      1.0  0.30274  0.85197  0.51734  1.0000
  C   C564      1.0  0.29408  0.87204  0.50581  1.0000
  H   H677      1.0  0.35905  0.68729  0.60655  1.0000
  H   H678      1.0  0.35777  0.81637  0.50877  1.0000
  H   H679      1.0  0.29172  0.85233  0.52546  1.0000
  H   H680      1.0  0.27657  0.88782  0.50511  1.0000
  C   C565      1.0  0.30818  0.59524  0.50215  1.0000
  C   C566      1.0  0.32364  0.56983  0.50995  1.0000
  C   C567      1.0  0.34445  0.58156  0.51828  1.0000
  C   C568      1.0  0.34977  0.61882  0.51909  1.0000
  C   C569      1.0  0.33380  0.64431  0.51163  1.0000
  C   C570      1.0  0.31328  0.63251  0.50314  1.0000
  H   H681      1.0  0.31984  0.54116  0.50940  1.0000
  H   H682      1.0  0.35672  0.56159  0.52398  1.0000
  H   H683      1.0  0.33765  0.67303  0.51212  1.0000
  H   H684      1.0  0.30144  0.65242  0.49717  1.0000
  H   H685      1.0  0.47317  0.86176  0.72433  1.0000
  H   H686      1.0  0.14990  0.86341  0.72258  1.0000
  C   C571      1.0  0.46990  0.80710  0.61625  1.0000
  H   H687      1.0  0.38934  0.60565  0.55974  1.0000
  H   H688      1.0  0.48676  0.96091  0.72758  1.0000
  H   H689      1.0  0.44130  0.95971  0.72976  1.0000
  H   H690      1.0  0.33242  0.90897  0.53748  1.0000
  C   C572      1.0  0.17215  0.58247  0.49654  1.0000
  C   C573      1.0  0.47152  0.69101  0.70896  1.0000
  H   H691      1.0  0.46837  0.73780  0.68867  1.0000
  C   C574      1.0  0.34660  0.65170  0.57601  1.0000
  C   C575      1.0  0.17662  0.56007  0.50770  1.0000
  H   H692      1.0  0.32106  0.57265  0.70176  1.0000
  H   H693      1.0  0.45446  0.67555  0.70563  1.0000
  H   H694      1.0  0.46850  0.80989  0.62659  1.0000
  C   C576      1.0  0.40161  0.55639  0.49841  1.0000
  H   H695      1.0  0.24222  0.81014  0.49213  1.0000
  N   N38       1.0  0.28675  0.95153  0.53457  1.0000
  H   H696      1.0  0.34841  0.54135  0.71923  1.0000
  C   C577      1.0  0.43843  0.94402  0.69690  1.0000
  N   N39       1.0  0.41980  0.93648  0.68561  1.0000
  C   C578      1.0  0.48047  0.84550  0.69257  1.0000
  S   S170      1.0  0.36641  0.52726  0.69480  1.0000
  H   H697      1.0  0.39483  0.62461  0.57567  1.0000
  C   C579      1.0  0.46901  0.84720  0.70406  1.0000
  H   H698      1.0  0.28083  0.55558  0.72135  1.0000
  H   H699      1.0  0.41084  0.94895  0.71081  1.0000
  H   H700      1.0  0.45207  0.77409  0.69584  1.0000
  H   H701      1.0  0.41648  0.92580  0.66497  1.0000
  H   H702      1.0  0.30517  0.99832  0.68371  1.0000
  H   H703      1.0  0.30468  0.72536  0.57502  1.0000
  C   C580      1.0  0.40066  0.96703  0.68345  1.0000
  H   H704      1.0  0.34232  0.85141  0.48831  1.0000
  H   H705      1.0  0.43264  0.79351  0.58819  1.0000
  H   H706      1.0  0.32163  0.62679  0.68786  1.0000
  H   H707      1.0  0.39621  0.90454  0.69684  1.0000
  H   H708      1.0  0.28710  0.98488  0.51048  1.0000
  C   C581      1.0  0.26252  0.93923  0.52798  1.0000
  H   H709      1.0  0.43028  0.80038  0.61142  1.0000
  C   C582      1.0  0.43104  0.93146  0.67324  1.0000
  C   C583      1.0  0.35325  0.58609  0.57484  1.0000
  H   H710      1.0  0.32077  0.61572  0.55546  1.0000
  N   N40       1.0  0.31884  0.56858  0.72829  1.0000
  H   H711      1.0  0.40161  0.61412  0.50184  1.0000
  C   C584      1.0  0.31989  0.66450  0.70338  1.0000
  H   H712      1.0  0.30143  0.00097  0.54272  1.0000
  C   C585      1.0  0.35789  0.65610  0.58900  1.0000
  C   C586      1.0  0.47324  0.79996  0.58915  1.0000
  H   H713      1.0  0.37346  0.63846  0.59322  1.0000
  H   H714      1.0  0.39304  0.89597  0.67994  1.0000
  C   C587      1.0  0.34420  0.55078  0.72893  1.0000
  C   C588      1.0  0.32149  0.96379  0.50474  1.0000
  C   C589      1.0  0.34984  0.68406  0.59672  1.0000
  C   C590      1.0  0.31553  0.97923  0.67829  1.0000
  C   C591      1.0  0.38226  0.62641  0.56630  1.0000
  H   H715      1.0  0.35875  0.56281  0.56886  1.0000
  H   H716      1.0  0.17721  0.61079  0.49690  1.0000
  H   H717      1.0  0.36558  0.58343  0.58427  1.0000
  C   C592      1.0  0.15962  0.50792  0.49546  1.0000
  C   C593      1.0  0.32869  0.92553  0.52865  1.0000
  H   H718      1.0  0.33357  0.58235  0.57692  1.0000
  H   H719      1.0  0.43743  0.73141  0.69255  1.0000
  H   H720      1.0  0.34813  0.59709  0.54918  1.0000
  C   C594      1.0  0.32698  0.67743  0.57119  1.0000
  C   C595      1.0  0.44772  0.95610  0.72027  1.0000
  H   H721      1.0  0.31754  0.67686  0.56137  1.0000
  H   H722      1.0  0.17515  0.50738  0.51617  1.0000
  N   N41       1.0  0.47425  0.79624  0.57496  1.0000
  H   H723      1.0  0.38883  0.96938  0.69158  1.0000
  H   H724      1.0  0.25617  0.95508  0.51885  1.0000
  C   C596      1.0  0.16172  0.56818  0.48484  1.0000
  H   H725      1.0  0.31025  0.93813  0.55259  1.0000
  H   H726      1.0  0.31841  0.97769  0.49528  1.0000
  C   C597      1.0  0.44993  0.79809  0.59437  1.0000
  H   H727      1.0  0.43899  0.76514  0.71826  1.0000
  H   H728      1.0  0.32502  0.73106  0.59764  1.0000
  C   C598      1.0  0.39176  0.59210  0.49689  1.0000
  H   H729      1.0  0.36101  0.62720  0.48836  1.0000
  C   C599      1.0  0.31932  0.70561  0.57896  1.0000
  C   C600      1.0  0.34287  0.94115  0.50788  1.0000
  S   S171      1.0  0.22615  0.51739  0.48913  1.0000
  C   C601      1.0  0.44480  0.73576  0.71774  1.0000
  C   C602      1.0  0.46468  0.94530  0.69600  1.0000
  C   C603      1.0  0.38842  0.52781  0.49245  1.0000
  H   H730      1.0  0.29452  0.89989  0.54494  1.0000
  H   H731      1.0  0.27738  0.93277  0.55332  1.0000
  N   N42       1.0  0.35547  0.62170  0.56807  1.0000
  H   H732      1.0  0.43798  0.82380  0.56939  1.0000
  H   H733      1.0  0.14245  0.92381  0.71590  1.0000
  C   C604      1.0  0.36885  0.59943  0.48928  1.0000
  H   H734      1.0  0.38722  0.96329  0.67454  1.0000
  H   H735      1.0  0.29960  0.51801  0.72945  1.0000
  C   C605      1.0  0.34106  0.61993  0.55489  1.0000
  H   H736      1.0  0.35622  0.93738  0.50086  1.0000
  H   H737      1.0  0.45022  0.72426  0.72777  1.0000
  H   H738      1.0  0.26401  0.91006  0.52534  1.0000
  C   C606      1.0  0.32126  0.98928  0.66585  1.0000
  C   C607      1.0  0.44837  0.80178  0.60770  1.0000
  H   H739      1.0  0.46587  0.75590  0.56031  1.0000
  C   C608      1.0  0.16174  0.92955  0.72044  1.0000
  H   H740      1.0  0.32139  0.68828  0.69713  1.0000
  Fe  Fe86      1.0  0.26629  0.52668  0.48592  1.0000
  H   H741      1.0  0.33931  0.97127  0.64937  1.0000
  H   H742      1.0  0.42763  0.72152  0.71381  1.0000
  C   C609      1.0  0.30355  0.96738  0.51348  1.0000
  C   C610      1.0  0.30645  0.94805  0.52567  1.0000
  C   C611      1.0  0.34652  0.92222  0.51983  1.0000
  C   C612      1.0  0.33069  0.70886  0.59170  1.0000
  H   H743      1.0  0.47270  0.94029  0.68706  1.0000
  H   H744      1.0  0.44505  0.75708  0.57240  1.0000
  H   H745      1.0  0.21983  0.84218  0.48345  1.0000
  H   H746      1.0  0.44471  0.90757  0.67399  1.0000
  C   C613      1.0  0.43047  0.94982  0.70937  1.0000
  H   H747      1.0  0.42068  0.87893  0.69008  1.0000
  C   C614      1.0  0.46499  0.76016  0.57088  1.0000
  C   C615      1.0  0.47329  0.95711  0.71906  1.0000
  C   C616      1.0  0.29259  0.92961  0.54689  1.0000
  H   H748      1.0  0.31874  0.69554  0.72067  1.0000
  H   H749      1.0  0.24703  0.94248  0.53423  1.0000
  C   C617      1.0  0.31855  0.66844  0.71667  1.0000
  H   H750      1.0  0.30431  0.53140  0.71340  1.0000
  H   H751      1.0  0.18530  0.57108  0.51672  1.0000
  H   H752      1.0  0.03311  0.98397  0.72660  1.0000
  C   C618      1.0  0.48170  0.95209  0.70694  1.0000
  C   C619      1.0  0.15575  0.53145  0.48424  1.0000
  N   N43       1.0  0.46541  0.73068  0.70940  1.0000
  C   C620      1.0  0.30003  0.54247  0.72287  1.0000
  C   C621      1.0  0.23951  0.83072  0.48398  1.0000
  C   C622      1.0  0.28346  0.99030  0.53809  1.0000
  H   H753      1.0  0.41939  0.55086  0.50441  1.0000
  H   H754      1.0  0.17550  0.90959  0.71698  1.0000
  H   H755      1.0  0.44061  0.95629  0.67041  1.0000
  H   H756      1.0  0.26898  0.99408  0.54491  1.0000
  H   H757      1.0  0.16595  0.95688  0.71643  1.0000
  H   H758      1.0  0.25230  0.85327  0.48668  1.0000
  H   H759      1.0  0.02058  0.94099  0.72269  1.0000
  C   C623      1.0  0.03183  0.95563  0.73052  1.0000
  H   H760      1.0  0.24279  0.74735  0.48344  1.0000
  H   H761      1.0  0.40964  0.99359  0.68231  1.0000
  H   H762      1.0  0.48707  0.70811  0.54658  1.0000
  H   H763      1.0  0.05113  0.94276  0.73184  1.0000
  H   H764      1.0  0.99913  0.89607  0.73085  1.0000
  C   C624      1.0  0.35536  0.57106  0.48339  1.0000
  H   H765      1.0  0.47941  0.67985  0.71875  1.0000
  H   H766      1.0  0.48549  0.68477  0.70208  1.0000
  H   H767      1.0  0.02675  0.66135  0.87481  1.0000
  S   S172      1.0  0.16207  0.57697  0.97188  1.0000
  S   S173      1.0  0.23729  0.56039  0.97291  1.0000
  H   H768      1.0  0.19877  0.79019  0.93598  1.0000
  S   S174      1.0  0.17463  0.90620  0.97586  1.0000
  S   S175      1.0  0.23645  0.95775  0.96797  1.0000
  Fe  Fe87      1.0  0.09076  0.71288  0.91769  1.0000
  S   S176      1.0  0.10256  0.75819  0.90498  1.0000
  S   S177      1.0  0.12032  0.66648  0.91993  1.0000
  Fe  Fe88      1.0  0.04096  0.75280  0.92129  1.0000
  S   S178      1.0  0.05011  0.80086  0.90915  1.0000
  S   S179      1.0  0.00486  0.75809  0.93111  1.0000
  Fe  Fe89      1.0  0.06286  0.75944  0.89532  1.0000
  S   S180      1.0  0.04782  0.76972  0.87397  1.0000
  Fe  Fe90      1.0  0.08915  0.79542  0.91993  1.0000
  S   S181      1.0  0.11167  0.84590  0.92493  1.0000
  S   S182      1.0  0.05157  0.71134  0.90687  1.0000
  S   S183      1.0  0.07941  0.75020  0.93322  1.0000
  Fe  Fe91      1.0  0.08462  0.70571  0.80474  1.0000
  S   S184      1.0  0.11350  0.71398  0.79089  1.0000
  S   S185      1.0  0.09841  0.70301  0.82648  1.0000
  Fe  Fe92      1.0  0.04502  0.68330  0.78272  1.0000
  S   S186      1.0  0.07161  0.68943  0.76752  1.0000
  H   H769      1.0  0.14080  0.80132  0.75691  1.0000
  Fe  Fe93      1.0  0.10083  0.66073  0.78228  1.0000
  S   S187      1.0  0.13214  0.61813  0.77922  1.0000
  Fe  Fe94      1.0  0.08212  0.74251  0.77746  1.0000
  S   S188      1.0  0.08478  0.79353  0.76403  1.0000
  S   S189      1.0  0.07356  0.65149  0.79671  1.0000
  S   S190      1.0  0.05386  0.73743  0.79200  1.0000
  S   S191      1.0  0.10655  0.96534  0.76673  1.0000
  C   C625      1.0  0.02362  0.65990  0.86425  1.0000
  C   C626      1.0  0.14635  0.74911  0.94320  1.0000
  C   C627      1.0  0.13554  0.57109  0.78420  1.0000
  C   C628      1.0  0.15953  0.55342  0.78531  1.0000
  C   C629      1.0  0.19384  0.57235  0.82761  1.0000
  H   H770      1.0  0.11168  0.50980  0.76098  1.0000
  H   H771      1.0  0.00555  0.82082  0.87817  1.0000
  C   C630      1.0  0.11504  0.55084  0.78690  1.0000
  H   H772      1.0  0.17556  0.56877  0.78334  1.0000
  C   C631      1.0  0.05655  0.80687  0.95760  1.0000
  H   H773      1.0  0.02200  0.81537  0.76072  1.0000
  H   H774      1.0  0.09645  0.56387  0.78606  1.0000
  C   C632      1.0  0.09065  0.84136  0.76510  1.0000
  C   C633      1.0  0.09796  0.85810  0.77694  1.0000
  C   C634      1.0  0.10264  0.89586  0.77720  1.0000
  C   C635      1.0  0.10001  0.91772  0.76569  1.0000
  C   C636      1.0  0.09254  0.90107  0.75384  1.0000
  C   C637      1.0  0.08796  0.86327  0.75357  1.0000
  H   H775      1.0  0.10017  0.84191  0.78591  1.0000
  H   H776      1.0  0.10841  0.90821  0.78645  1.0000
  H   H777      1.0  0.09047  0.91712  0.74487  1.0000
  H   H778      1.0  0.08230  0.85082  0.74434  1.0000
  C   C638      1.0  0.06269  0.75223  0.86086  1.0000
  C   C639      1.0  0.05184  0.76017  0.84799  1.0000
  C   C640      1.0  0.06287  0.74613  0.83731  1.0000
  C   C641      1.0  0.08468  0.72362  0.83944  1.0000
  C   C642      1.0  0.09562  0.71596  0.85230  1.0000
  C   C643      1.0  0.08474  0.73027  0.86298  1.0000
  H   H779      1.0  0.03495  0.77749  0.84628  1.0000
  H   H780      1.0  0.05460  0.75288  0.82746  1.0000
  H   H781      1.0  0.11255  0.69870  0.85404  1.0000
  H   H782      1.0  0.09330  0.72410  0.87284  1.0000
  C   C644      1.0  0.15895  0.88816  0.96140  1.0000
  C   C645      1.0  0.14487  0.85673  0.96236  1.0000
  C   C646      1.0  0.13068  0.84288  0.95129  1.0000
  C   C647      1.0  0.13044  0.86037  0.93910  1.0000
  C   C648      1.0  0.14490  0.89131  0.93810  1.0000
  C   C649      1.0  0.15914  0.90509  0.94916  1.0000
  H   H783      1.0  0.14442  0.84365  0.97181  1.0000
  H   H784      1.0  0.11939  0.81946  0.95227  1.0000
  H   H785      1.0  0.14483  0.90511  0.92873  1.0000
  H   H786      1.0  0.16981  0.92930  0.94826  1.0000
  C   C650      1.0  0.15100  0.60194  0.95739  1.0000
  C   C651      1.0  0.13007  0.62625  0.95735  1.0000
  C   C652      1.0  0.12040  0.64629  0.94597  1.0000
  C   C653      1.0  0.13150  0.64182  0.93448  1.0000
  C   C654      1.0  0.15246  0.61755  0.93451  1.0000
  C   C655      1.0  0.16229  0.59783  0.94594  1.0000
  H   H787      1.0  0.12125  0.62956  0.96619  1.0000
  H   H788      1.0  0.10423  0.66482  0.94605  1.0000
  H   H789      1.0  0.16118  0.61401  0.92566  1.0000
  H   H790      1.0  0.17843  0.57922  0.94586  1.0000
  H   H791      1.0  0.04383  0.68992  0.81927  1.0000
  H   H792      1.0  0.03174  0.82641  0.93472  1.0000
  C   C656      1.0  0.16299  0.51603  0.78892  1.0000
  H   H793      1.0  0.16380  0.74352  0.91986  1.0000
  H   H794      1.0  0.22568  0.53468  0.83251  1.0000
  H   H795      1.0  0.99810  0.80650  0.86203  1.0000
  C   C657      1.0  0.02095  0.84370  0.75737  1.0000
  C   C658      1.0  0.18904  0.93973  0.74001  1.0000
  H   H796      1.0  0.13450  0.54522  0.81719  1.0000
  C   C659      1.0  0.22357  0.72929  0.96964  1.0000
  H   H797      1.0  0.19115  0.94364  0.75073  1.0000
  H   H798      1.0  0.13390  0.76554  0.93568  1.0000
  C   C660      1.0  0.20569  0.53762  0.82927  1.0000
  H   H799      1.0  0.21303  0.77618  0.95769  1.0000
  H   H800      1.0  0.00265  0.75947  0.88766  1.0000
  H   H801      1.0  0.06343  0.84036  0.93517  1.0000
  C   C661      1.0  0.99657  0.64711  0.75500  1.0000
  C   C662      1.0  0.03197  0.87019  0.76537  1.0000
  H   H802      1.0  0.01867  0.59849  0.82164  1.0000
  C   C663      1.0  0.06619  0.87086  0.95955  1.0000
  N   N44       1.0  0.17300  0.74932  0.94064  1.0000
  H   H803      1.0  0.19387  0.96610  0.73552  1.0000
  H   H804      1.0  0.31356  0.55012  0.74778  1.0000
  H   H805      1.0  0.23846  0.74309  0.97538  1.0000
  C   C664      1.0  0.20018  0.67514  0.96521  1.0000
  H   H806      1.0  0.31697  0.64274  0.73505  1.0000
  C   C665      1.0  0.11844  0.51328  0.79024  1.0000
  H   H807      1.0  0.20531  0.59561  0.82964  1.0000
  H   H808      1.0  0.03779  0.87390  0.93510  1.0000
  C   C666      1.0  0.02295  0.85244  0.95770  1.0000
  H   H809      1.0  0.02268  0.62253  0.80668  1.0000
  H   H810      1.0  0.00050  0.83276  0.73883  1.0000
  H   H811      1.0  0.04169  0.92513  0.76750  1.0000
  C   C667      1.0  0.15427  0.54468  0.82076  1.0000
  C   C668      1.0  0.15870  0.88897  0.75447  1.0000
  C   C669      1.0  0.09607  0.91969  0.95823  1.0000
  C   C670      1.0  0.15119  0.86268  0.73309  1.0000
  H   H812      1.0  0.14402  0.76060  0.95290  1.0000
  S   S192      1.0  0.00495  0.66298  0.78138  1.0000
  C   C671      1.0  0.15296  0.85592  0.76020  1.0000
  C   C672      1.0  0.18531  0.69362  0.95492  1.0000
  H   H813      1.0  0.15285  0.85352  0.77068  1.0000
  H   H814      1.0  0.07610  0.80093  0.95538  1.0000
  H   H815      1.0  0.12540  0.94914  0.73557  1.0000
  C   C673      1.0  0.17924  0.78797  0.93848  1.0000
  H   H816      1.0  0.01505  0.71508  0.82093  1.0000
  C   C674      1.0  0.20875  0.74805  0.95935  1.0000
  N   N45       1.0  0.16335  0.92915  0.73492  1.0000
  C   C675      1.0  0.03194  0.90647  0.76091  1.0000
  C   C676      1.0  0.15797  0.89343  0.74073  1.0000
  H   H817      1.0  0.05516  0.97041  0.75404  1.0000
  C   C677      1.0  0.04025  0.65756  0.84347  1.0000
  H   H818      1.0  0.01929  0.69211  0.80611  1.0000
  H   H819      1.0  0.17071  0.67865  0.94955  1.0000
  C   C678      1.0  0.31383  0.57594  0.74188  1.0000
  C   C679      1.0  0.15676  0.55339  0.74700  1.0000
  H   H820      1.0  0.01480  0.65796  0.75410  1.0000
  C   C680      1.0  0.03512  0.98007  0.75194  1.0000
  N   N46       1.0  0.04810  0.84481  0.95348  1.0000
  H   H821      1.0  0.19536  0.72832  0.92624  1.0000
  H   H822      1.0  0.05624  0.80155  0.96820  1.0000
  H   H823      1.0  0.04151  0.86220  0.77492  1.0000
  C   C681      1.0  0.07205  0.87116  0.97333  1.0000
  H   H824      1.0  0.32885  0.59203  0.74713  1.0000
  H   H825      1.0  0.17696  0.80461  0.94720  1.0000
  H   H826      1.0  0.04621  0.62410  0.82031  1.0000
  C   C682      1.0  0.14617  0.82646  0.75245  1.0000
  C   C683      1.0  0.02047  0.91734  0.74821  1.0000
  H   H827      1.0  0.16017  0.57997  0.74292  1.0000
  H   H828      1.0  0.02306  0.84886  0.96842  1.0000
  C   C684      1.0  0.10185  0.91857  0.97173  1.0000
  H   H829      1.0  0.99745  0.74308  0.87148  1.0000
  H   H830      1.0  0.01612  0.88095  0.95501  1.0000
  C   C685      1.0  0.02306  0.68986  0.81693  1.0000
  C   C686      1.0  0.21933  0.69290  0.97253  1.0000
  H   H831      1.0  0.07591  0.89773  0.94161  1.0000
  H   H832      1.0  0.13897  0.72115  0.94304  1.0000
  Fe  Fe95      1.0  0.20240  0.95255  0.97864  1.0000
  C   C687      1.0  0.04404  0.65892  0.85708  1.0000
  Fe  Fe96      1.0  0.19847  0.54202  0.97521  1.0000
  C   C688      1.0  0.04520  0.84660  0.93899  1.0000
  H   H833      1.0  0.04424  0.78638  0.95253  1.0000
  H   H834      1.0  0.16658  0.80137  0.93025  1.0000
  H   H835      1.0  0.16296  0.91136  0.76091  1.0000
  H   H836      1.0  0.00878  0.83364  0.95309  1.0000
  N   N47       1.0  0.15580  0.61413  0.82133  1.0000
  C   C689      1.0  0.15876  0.63387  0.83379  1.0000
  C   C690      1.0  0.16800  0.63478  0.81146  1.0000
  C   C691      1.0  0.12847  0.61422  0.81678  1.0000
  C   C692      1.0  0.16775  0.57699  0.82326  1.0000
  C   C693      1.0  0.17552  0.52551  0.74796  1.0000
  H   H837      1.0  0.06296  0.65975  0.86209  1.0000
  H   H838      1.0  0.34617  0.52643  0.73562  1.0000
  C   C694      1.0  0.02554  0.62404  0.81755  1.0000
  C   C695      1.0  0.01573  0.65704  0.83660  1.0000
  H   H839      1.0  0.17875  0.63832  0.83735  1.0000
  H   H840      1.0  0.14906  0.66145  0.83276  1.0000
  H   H841      1.0  0.15056  0.61855  0.84159  1.0000
  H   H842      1.0  0.15828  0.66189  0.80897  1.0000
  H   H843      1.0  0.16758  0.61958  0.80221  1.0000
  H   H844      1.0  0.18795  0.64006  0.81478  1.0000
  H   H845      1.0  0.11784  0.60034  0.82395  1.0000
  H   H846      1.0  0.12024  0.64248  0.81532  1.0000
  H   H847      1.0  0.12476  0.60118  0.80718  1.0000
  C   C696      1.0  0.99440  0.97064  0.74050  1.0000
  C   C697      1.0  0.08976  0.89451  0.97928  1.0000
  C   C698      1.0  0.18915  0.73058  0.95161  1.0000
  C   C699      1.0  0.17547  0.72985  0.92836  1.0000
  C   C700      1.0  0.07860  0.89621  0.95215  1.0000
  H   H848      1.0  0.16900  0.70140  0.92872  1.0000
  H   H849      1.0  0.10603  0.93786  0.95239  1.0000
  H   H850      1.0  0.20338  0.91856  0.73793  1.0000
  C   C701      1.0  0.00909  0.85354  0.74501  1.0000
  H   H851      1.0  0.02701  0.98277  0.76133  1.0000
  C   C702      1.0  0.14533  0.82980  0.73894  1.0000
  C   C703      1.0  0.98937  0.81571  0.87075  1.0000
  H   H852      1.0  0.19679  0.64680  0.96750  1.0000
  H   H853      1.0  0.29529  0.59051  0.74205  1.0000
  N   N48       1.0  0.02057  0.95528  0.74299  1.0000
  H   H854      1.0  0.14680  0.96198  0.74918  1.0000
  H   H855      1.0  0.99534  0.81386  0.89837  1.0000
  H   H856      1.0  0.05674  0.65756  0.83835  1.0000
  C   C704      1.0  0.00861  0.88983  0.74050  1.0000
  H   H857      1.0  0.19298  0.53207  0.74440  1.0000
  H   H858      1.0  0.11623  0.93577  0.97631  1.0000
  C   C705      1.0  0.12935  0.51387  0.75709  1.0000
  H   H859      1.0  0.11956  0.56962  0.75117  1.0000
  C   C706      1.0  0.99524  0.65759  0.84423  1.0000
  C   C707      1.0  0.19196  0.50657  0.82669  1.0000
  H   H860      1.0  0.98913  0.63519  0.73455  1.0000
  C   C708      1.0  0.14499  0.95727  0.73851  1.0000
  H   H861      1.0  0.23086  0.67830  0.98046  1.0000
  H   H862      1.0  0.11727  0.52731  0.97301  1.0000
  H   H863      1.0  0.14741  0.98409  0.73367  1.0000
  C   C709      1.0  0.16632  0.51011  0.82251  1.0000
  H   H864      1.0  0.99383  0.99952  0.73680  1.0000
  C   C710      1.0  0.13376  0.54760  0.75157  1.0000
  N   N49       1.0  0.01229  0.65672  0.82215  1.0000
  C   C711      1.0  0.99928  0.65901  0.85786  1.0000
  H   H865      1.0  0.13961  0.80688  0.73298  1.0000
  H   H866      1.0  0.06326  0.85293  0.97961  1.0000
  C   C712      1.0  0.98769  0.75451  0.87954  1.0000
  C   C713      1.0  0.11033  0.50511  0.97907  1.0000
  C   C714      1.0  0.98747  0.64624  0.76715  1.0000
  H   H867      1.0  0.35907  0.56976  0.73248  1.0000
  H   H868      1.0  0.15945  0.50694  0.98165  1.0000
  H   H869      1.0  0.47653  0.77052  0.73241  1.0000
  H   H870      1.0  0.88472  0.07371  0.99460  1.0000
  C   C715      1.0  0.92104  0.02858  0.22522  1.0000
  S   S193      1.0  0.72187  0.42807  0.99378  1.0000
  H   H871      1.0  0.80844  0.32021  0.21748  1.0000
  Fe  Fe97      1.0  0.72388  0.48944  0.99312  1.0000
  S   S194      1.0  0.76465  0.07627  0.99587  1.0000
  Fe  Fe98      1.0  0.91876  0.23751  0.03821  1.0000
  S   S195      1.0  0.91298  0.18495  0.04858  1.0000
  S   S196      1.0  0.95628  0.25136  0.03118  1.0000
  Fe  Fe99      1.0  0.86429  0.26424  0.03925  1.0000
  S   S197      1.0  0.85494  0.21365  0.05020  1.0000
  S   S198      1.0  0.83325  0.30889  0.03644  1.0000
  Fe  Fe100     1.0  0.89244  0.21915  0.06205  1.0000
  S   S199      1.0  0.90275  0.20227  0.08338  1.0000
  Fe  Fe101     1.0  0.87580  0.18298  0.03593  1.0000
  S   S200      1.0  0.86551  0.12586  0.02904  1.0000
  S   S201      1.0  0.90036  0.27223  0.05242  1.0000
  S   S202      1.0  0.88312  0.23322  0.02418  1.0000
  Fe  Fe102     1.0  0.92541  0.30290  0.17552  1.0000
  S   S203      1.0  0.89850  0.29513  0.19042  1.0000
  C   C716      1.0  0.97978  0.27445  0.11526  1.0000
  Fe  Fe103     1.0  0.88561  0.28801  0.15270  1.0000
  S   S204      1.0  0.85617  0.27886  0.16615  1.0000
  S   S205      1.0  0.87280  0.29593  0.13089  1.0000
  Fe  Fe104     1.0  0.87047  0.32870  0.17653  1.0000
  S   S206      1.0  0.83988  0.36845  0.18255  1.0000
  Fe  Fe105     1.0  0.88608  0.24555  0.17897  1.0000
  S   S207      1.0  0.87622  0.19635  0.19160  1.0000
  S   S208      1.0  0.89825  0.33963  0.16244  1.0000
  S   S209      1.0  0.91482  0.25150  0.16473  1.0000
  C   C717      1.0  0.85842  0.11940  0.99148  1.0000
  C   C718      1.0  0.83537  0.41625  0.17870  1.0000
  C   C719      1.0  0.81208  0.43399  0.18011  1.0000
  C   C720      1.0  0.80750  0.47150  0.17681  1.0000
  H   H872      1.0  0.85521  0.25682  0.20491  1.0000
  C   C721      1.0  0.84973  0.47431  0.17103  1.0000
  C   C722      1.0  0.85420  0.43676  0.17414  1.0000
  H   H873      1.0  0.79735  0.41861  0.18367  1.0000
  H   H874      1.0  0.86310  0.13311  0.09275  1.0000
  C   C723      1.0  0.85109  0.41164  0.01308  1.0000
  H   H875      1.0  0.87232  0.42383  0.17311  1.0000
  C   C724      1.0  0.87573  0.14740  0.19128  1.0000
  C   C725      1.0  0.86780  0.12818  0.20195  1.0000
  C   C726      1.0  0.86737  0.08955  0.20231  1.0000
  C   C727      1.0  0.87513  0.06934  0.19202  1.0000
  C   C728      1.0  0.88314  0.08858  0.18138  1.0000
  C   C729      1.0  0.88341  0.12721  0.18098  1.0000
  H   H876      1.0  0.86208  0.14326  0.21007  1.0000
  H   H877      1.0  0.86110  0.07542  0.21057  1.0000
  H   H878      1.0  0.88922  0.07344  0.17335  1.0000
  H   H879      1.0  0.88967  0.14127  0.17271  1.0000
  C   C730      1.0  0.89454  0.22881  0.09648  1.0000
  C   C731      1.0  0.87891  0.26025  0.09436  1.0000
  C   C732      1.0  0.87233  0.28025  0.10503  1.0000
  C   C733      1.0  0.88142  0.26920  0.11790  1.0000
  C   C734      1.0  0.89725  0.23794  0.12002  1.0000
  C   C735      1.0  0.90373  0.21780  0.10933  1.0000
  H   H880      1.0  0.87162  0.26887  0.08451  1.0000
  H   H881      1.0  0.86010  0.30444  0.10330  1.0000
  H   H882      1.0  0.90448  0.22927  0.12987  1.0000
  H   H883      1.0  0.91583  0.19349  0.11106  1.0000
  C   C736      1.0  0.79229  0.08874  0.00580  1.0000
  C   C737      1.0  0.79512  0.12574  0.00881  1.0000
  C   C738      1.0  0.81715  0.13749  0.01611  1.0000
  C   C739      1.0  0.83678  0.11233  0.02040  1.0000
  C   C740      1.0  0.83383  0.07523  0.01757  1.0000
  C   C741      1.0  0.81170  0.06343  0.01034  1.0000
  H   H884      1.0  0.78025  0.14557  0.00535  1.0000
  H   H885      1.0  0.81911  0.16611  0.01819  1.0000
  H   H886      1.0  0.84889  0.05553  0.02083  1.0000
  H   H887      1.0  0.80983  0.03490  0.00815  1.0000
  C   C742      1.0  0.81948  0.32763  0.02117  1.0000
  C   C743      1.0  0.83086  0.32313  0.00975  1.0000
  C   C744      1.0  0.82041  0.34117  0.99805  1.0000
  C   C745      1.0  0.79842  0.36357  0.99764  1.0000
  C   C746      1.0  0.78652  0.36684  0.00892  1.0000
  C   C747      1.0  0.79714  0.34926  0.02066  1.0000
  H   H888      1.0  0.84808  0.30663  0.01001  1.0000
  H   H889      1.0  0.83471  0.43538  0.99471  1.0000
  H   H890      1.0  0.76929  0.38320  0.00859  1.0000
  H   H891      1.0  0.78812  0.35263  0.02941  1.0000
  Fe  Fe106     1.0  0.74761  0.02217  0.98936  1.0000
  H   H892      1.0  0.92480  0.46628  0.14205  1.0000
  H   H893      1.0  0.82833  0.15963  0.98729  1.0000
  H   H894      1.0  0.78221  0.27592  0.22277  1.0000
  C   C748      1.0  0.79156  0.46589  0.04363  1.0000
  H   H895      1.0  0.94964  0.34012  0.20339  1.0000
  C   C749      1.0  0.79000  0.24982  0.22025  1.0000
  N   N50       1.0  0.78994  0.46798  0.02917  1.0000
  C   C750      1.0  0.82932  0.42594  0.03173  1.0000
  H   H896      1.0  0.81724  0.29772  0.18427  1.0000
  H   H897      1.0  0.77573  0.48166  0.04728  1.0000
  C   C751      1.0  0.81136  0.44907  0.02391  1.0000
  H   H898      1.0  0.92090  0.40113  0.13663  1.0000
  H   H899      1.0  0.92854  0.27061  0.08209  1.0000
  C   C752      1.0  0.78176  0.21908  0.22653  1.0000
  H   H900      1.0  0.95109  0.27348  0.07079  1.0000
  H   H901      1.0  0.92750  0.14379  0.20181  1.0000
  C   C753      1.0  0.80831  0.17997  0.21500  1.0000
  H   H902      1.0  0.82036  0.23147  0.09715  1.0000
  H   H903      1.0  0.86167  0.38882  0.03233  1.0000
  H   H904      1.0  0.84870  0.28326  0.21861  1.0000
  H   H905      1.0  0.76310  0.45350  0.01305  1.0000
  H   H906      1.0  0.67782  0.48915  0.23218  1.0000
  C   C754      1.0  0.95317  0.30375  0.12972  1.0000
  C   C755      1.0  0.82631  0.49196  0.17218  1.0000
  H   H907      1.0  0.84564  0.47928  0.14229  1.0000
  C   C756      1.0  0.81178  0.20504  0.07882  1.0000
  S   S210      1.0  0.78713  0.38840  0.98307  1.0000
  H   H908      1.0  0.91728  0.09195  0.21474  1.0000
  C   C757      1.0  0.88056  0.40265  0.13616  1.0000
  H   H909      1.0  0.96558  0.14229  0.19049  1.0000
  H   H910      1.0  0.95277  0.21820  0.09438  1.0000
  C   C758      1.0  0.94009  0.11973  0.20279  1.0000
  H   H911      1.0  0.81146  0.33667  0.20146  1.0000
  N   N51       1.0  0.84292  0.11691  0.06789  1.0000
  C   C759      1.0  0.86988  0.11817  0.06594  1.0000
  C   C760      1.0  0.83884  0.08213  0.07479  1.0000
  C   C761      1.0  0.82811  0.11638  0.05479  1.0000
  C   C762      1.0  0.83598  0.14814  0.07582  1.0000
  C   C763      1.0  0.81729  0.17542  0.07116  1.0000
  C   C764      1.0  0.84829  0.15217  0.08863  1.0000
  H   H912      1.0  0.97164  0.22047  0.08117  1.0000
  H   H913      1.0  0.86457  0.48990  0.16769  1.0000
  H   H914      1.0  0.82968  0.33836  0.98935  1.0000
  H   H915      1.0  0.88262  0.11516  0.07523  1.0000
  H   H916      1.0  0.87556  0.09640  0.05937  1.0000
  H   H917      1.0  0.87395  0.14464  0.06139  1.0000
  H   H918      1.0  0.85115  0.07857  0.08421  1.0000
  H   H919      1.0  0.84298  0.05806  0.06887  1.0000
  H   H920      1.0  0.81900  0.08087  0.07694  1.0000
  H   H921      1.0  0.83107  0.14109  0.04880  1.0000
  H   H922      1.0  0.83387  0.09277  0.04903  1.0000
  H   H923      1.0  0.80764  0.11435  0.05546  1.0000
  C   C765      1.0  0.97223  0.05769  0.20500  1.0000
  C   C766      1.0  0.93546  0.31298  0.11908  1.0000
  H   H924      1.0  0.78941  0.48459  0.17779  1.0000
  H   H925      1.0  0.97502  0.22359  0.05748  1.0000
  H   H926      1.0  0.97145  0.37142  0.22235  1.0000
  N   N52       1.0  0.81681  0.27811  0.20411  1.0000
  C   C767      1.0  0.97765  0.08800  0.19753  1.0000
  C   C768      1.0  0.94673  0.28270  0.08053  1.0000
  C   C769      1.0  0.80772  0.24636  0.21105  1.0000
  C   C770      1.0  0.83372  0.43383  0.00514  1.0000
  H   H927      1.0  0.90456  0.03279  0.21762  1.0000
  H   H928      1.0  0.82362  0.24997  0.18651  1.0000
  H   H929      1.0  0.94399  0.31292  0.07976  1.0000
  C   C771      1.0  0.79085  0.18424  0.22388  1.0000
  C   C772      1.0  0.81673  0.21048  0.20871  1.0000
  H   H930      1.0  0.86969  0.13682  0.99800  1.0000
  H   H931      1.0  0.98374  0.01043  0.22636  1.0000
  C   C773      1.0  0.81404  0.45207  0.01041  1.0000
  H   H932      1.0  0.79668  0.02486  0.98356  1.0000
  C   C774      1.0  0.96155  0.11892  0.19639  1.0000
  C   C775      1.0  0.84884  0.40760  0.02633  1.0000
  H   H933      1.0  0.76654  0.42172  0.02665  1.0000
  C   C776      1.0  0.96885  0.34801  0.20325  1.0000
  C   C777      1.0  0.88501  0.47611  0.14215  1.0000
  H   H934      1.0  0.91805  0.32734  0.12066  1.0000
  C   C778      1.0  0.95030  0.05736  0.21151  1.0000
  C   C779      1.0  0.84421  0.28094  0.20787  1.0000
  C   C780      1.0  0.98129  0.36579  0.21399  1.0000
  N   N53       1.0  0.83376  0.40612  0.13685  1.0000
  C   C781      1.0  0.82744  0.39344  0.12336  1.0000
  C   C782      1.0  0.83510  0.37410  0.14597  1.0000
  C   C783      1.0  0.81281  0.43093  0.13996  1.0000
  C   C784      1.0  0.85841  0.42351  0.13792  1.0000
  C   C785      1.0  0.97533  0.28462  0.12781  1.0000
  C   C786      1.0  0.86129  0.46104  0.14074  1.0000
  H   H935      1.0  0.78374  0.31358  0.20418  1.0000
  H   H936      1.0  0.83040  0.20568  0.20198  1.0000
  H   H937      1.0  0.87981  0.37405  0.13387  1.0000
  H   H938      1.0  0.82707  0.41651  0.11615  1.0000
  H   H939      1.0  0.84131  0.37225  0.12074  1.0000
  H   H940      1.0  0.80876  0.38086  0.12209  1.0000
  H   H941      1.0  0.84720  0.35125  0.14304  1.0000
  H   H942      1.0  0.81636  0.36271  0.14670  1.0000
  H   H943      1.0  0.84305  0.38155  0.15592  1.0000
  H   H944      1.0  0.80979  0.45490  0.13309  1.0000
  H   H945      1.0  0.79464  0.41699  0.13937  1.0000
  H   H946      1.0  0.81640  0.44101  0.15010  1.0000
  H   H947      1.0  0.79798  0.22605  0.07494  1.0000
  H   H948      1.0  0.92468  0.30988  0.09880  1.0000
  C   C787      1.0  0.90420  0.41796  0.13764  1.0000
  H   H949      1.0  0.86566  0.39628  0.00886  1.0000
  H   H950      1.0  0.80709  0.17508  0.06151  1.0000
  C   C788      1.0  0.93959  0.30271  0.10650  1.0000
  S   S211      1.0  0.71164  0.00474  0.99647  1.0000
  C   C789      1.0  0.81218  0.27322  0.18981  1.0000
  C   C790      1.0  0.96199  0.28306  0.10420  1.0000
  H   H951      1.0  0.79030  0.43730  0.04728  1.0000
  H   H952      1.0  0.85245  0.18453  0.10590  1.0000
  H   H953      1.0  0.74955  0.46468  0.02750  1.0000
  C   C791      1.0  0.80443  0.31351  0.20700  1.0000
  C   C792      1.0  0.84237  0.18161  0.09626  1.0000
  H   H954      1.0  0.97357  0.17975  0.01779  1.0000
  H   H955      1.0  0.94959  0.31110  0.13949  1.0000
  C   C793      1.0  0.93442  0.08952  0.21024  1.0000
  N   N54       1.0  0.94491  0.02476  0.21927  1.0000
  H   H956      1.0  0.85156  0.30532  0.20316  1.0000
  H   H957      1.0  0.80038  0.46738  0.00369  1.0000
  H   H958      1.0  0.98630  0.21994  0.09761  1.0000
  H   H959      1.0  0.79205  0.26825  0.18668  1.0000
  C   C794      1.0  0.82431  0.20815  0.09133  1.0000
  S   S212      1.0  0.87569  0.02032  0.19196  1.0000
  C   C795      1.0  0.96552  0.01742  0.23002  1.0000
  H   H960      1.0  0.78441  0.16047  0.22874  1.0000
  S   S213      1.0  0.96685  0.31672  0.17882  1.0000
  C   C796      1.0  0.76629  0.45121  0.02388  1.0000
  H   H961      1.0  0.98524  0.03432  0.20557  1.0000
  N   N55       1.0  0.96698  0.27120  0.09107  1.0000
  H   H962      1.0  0.82833  0.42053  0.04196  1.0000
  C   C797      1.0  0.83507  0.13220  0.98543  1.0000
  C   C798      1.0  0.90643  0.45459  0.14070  1.0000
  C   C799      1.0  0.96962  0.23078  0.09107  1.0000
  H   H963      1.0  0.72384  0.16951  0.98770  1.0000
  H   H964      1.0  0.81542  0.15285  0.21293  1.0000
  C   C800      1.0  0.86680  0.08373  0.98958  1.0000
  C   C801      1.0  0.98136  0.34029  0.19241  1.0000
  H   H965      1.0  0.80936  0.47722  0.04822  1.0000
  H   H966      1.0  0.67365  0.42902  0.23161  1.0000
  H   H967      1.0  0.98595  0.15953  0.04060  1.0000
  C   C802      1.0  0.98657  0.24921  0.04039  1.0000
  H   H968      1.0  0.49046  0.12055  0.23213  1.0000
  H   H969      1.0  0.92132  0.05142  0.23214  1.0000
  C   C803      1.0  0.50662  0.46916  0.23871  1.0000
  S   S214      1.0  0.71859  0.44806  0.44789  1.0000
  S   S215      1.0  0.77638  0.47683  0.47110  1.0000
  H   H970      1.0  0.53381  0.17746  0.41237  1.0000
  S   S216      1.0  0.74661  0.06064  0.46794  1.0000
  C   C804      1.0  0.85289  0.03067  0.46621  1.0000
  Fe  Fe107     1.0  0.55793  0.27262  0.42153  1.0000
  S   S217      1.0  0.57948  0.31951  0.41473  1.0000
  S   S218      1.0  0.51758  0.28245  0.42624  1.0000
  Fe  Fe108     1.0  0.60417  0.22021  0.42332  1.0000
  S   S219      1.0  0.62914  0.26278  0.41651  1.0000
  S   S220      1.0  0.61622  0.16034  0.42659  1.0000
  Fe  Fe109     1.0  0.61116  0.30067  0.42999  1.0000
  S   S221      1.0  0.62973  0.33604  0.44613  1.0000
  Fe  Fe110     1.0  0.59575  0.27834  0.40174  1.0000
  S   S222      1.0  0.60101  0.29377  0.38080  1.0000
  S   S223      1.0  0.58832  0.25652  0.43778  1.0000
  S   S224      1.0  0.57208  0.23293  0.40751  1.0000
  Fe  Fe111     1.0  0.53468  0.18788  0.28310  1.0000
  S   S225      1.0  0.56986  0.19330  0.27323  1.0000
  H   H971      1.0  0.54691  0.33390  0.36724  1.0000
  Fe  Fe112     1.0  0.55968  0.21893  0.30874  1.0000
  S   S226      1.0  0.59622  0.22739  0.30055  1.0000
  S   S227      1.0  0.54938  0.22117  0.32953  1.0000
  Fe  Fe113     1.0  0.57224  0.24931  0.28234  1.0000
  S   S228      1.0  0.57857  0.29823  0.26870  1.0000
  Fe  Fe114     1.0  0.59115  0.17104  0.29219  1.0000
  S   S229      1.0  0.62505  0.13030  0.29691  1.0000
  S   S230      1.0  0.53593  0.24443  0.29121  1.0000
  S   S231      1.0  0.55592  0.16213  0.30128  1.0000
  S   S232      1.0  0.59593  0.47074  0.27225  1.0000
  C   C805      1.0  0.62890  0.08191  0.29546  1.0000
  C   C806      1.0  0.61048  0.06102  0.28876  1.0000
  C   C807      1.0  0.66732  0.10852  0.27345  1.0000
  S   S233      1.0  0.68253  0.10415  0.47889  1.0000
  H   H972      1.0  0.72851  0.36582  0.45292  1.0000
  C   C808      1.0  0.65170  0.06418  0.30082  1.0000
  H   H973      1.0  0.59290  0.07411  0.28453  1.0000
  C   C809      1.0  0.80952  0.01945  0.45972  1.0000
  H   H974      1.0  0.60075  0.00748  0.28192  1.0000
  H   H975      1.0  0.66618  0.07997  0.30596  1.0000
  C   C810      1.0  0.58326  0.34622  0.27002  1.0000
  C   C811      1.0  0.58805  0.36321  0.28203  1.0000
  C   C812      1.0  0.59174  0.40121  0.28249  1.0000
  C   C813      1.0  0.59041  0.42297  0.27099  1.0000
  C   C814      1.0  0.58538  0.40607  0.25898  1.0000
  C   C815      1.0  0.58208  0.36800  0.25852  1.0000
  H   H976      1.0  0.58906  0.34704  0.29097  1.0000
  H   H977      1.0  0.59564  0.41381  0.29185  1.0000
  H   H978      1.0  0.58401  0.42220  0.25004  1.0000
  H   H979      1.0  0.57824  0.35530  0.24917  1.0000
  C   C816      1.0  0.58767  0.27153  0.36673  1.0000
  C   C817      1.0  0.59480  0.28149  0.35449  1.0000
  C   C818      1.0  0.58392  0.26543  0.34301  1.0000
  C   C819      1.0  0.56548  0.23971  0.34367  1.0000
  C   C820      1.0  0.55864  0.22939  0.35592  1.0000
  C   C821      1.0  0.56985  0.24491  0.36742  1.0000
  H   H980      1.0  0.60861  0.30203  0.35389  1.0000
  H   H981      1.0  0.58921  0.27380  0.33363  1.0000
  H   H982      1.0  0.54435  0.20955  0.35650  1.0000
  H   H983      1.0  0.56442  0.23668  0.37676  1.0000
  C   C822      1.0  0.66566  0.12033  0.46398  1.0000
  C   C823      1.0  0.66417  0.09947  0.45274  1.0000
  C   C824      1.0  0.64909  0.11213  0.44131  1.0000
  C   C825      1.0  0.63592  0.14610  0.44092  1.0000
  C   C826      1.0  0.63777  0.16721  0.45209  1.0000
  C   C827      1.0  0.65232  0.15414  0.46361  1.0000
  H   H984      1.0  0.67427  0.07333  0.45292  1.0000
  H   H985      1.0  0.64774  0.09562  0.43272  1.0000
  H   H986      1.0  0.62774  0.19341  0.45193  1.0000
  H   H987      1.0  0.65336  0.17045  0.47225  1.0000
  C   C828      1.0  0.69273  0.41887  0.44735  1.0000
  C   C829      1.0  0.68018  0.41230  0.45825  1.0000
  C   C830      1.0  0.66092  0.38698  0.45765  1.0000
  C   C831      1.0  0.65388  0.36802  0.44615  1.0000
  C   C832      1.0  0.66640  0.37465  0.43524  1.0000
  C   C833      1.0  0.68573  0.39989  0.43586  1.0000
  H   H988      1.0  0.68530  0.42663  0.46716  1.0000
  H   H989      1.0  0.65132  0.38209  0.46613  1.0000
  H   H990      1.0  0.66124  0.36027  0.42634  1.0000
  H   H991      1.0  0.69540  0.40459  0.42738  1.0000
  H   H992      1.0  0.72078  0.33036  0.46353  1.0000
  C   C834      1.0  0.76879  0.32599  0.47824  1.0000
  H   H993      1.0  0.87160  0.02009  0.47083  1.0000
  S   S234      1.0  0.49555  0.16633  0.27710  1.0000
  H   H994      1.0  0.56804  0.11640  0.43853  1.0000
  N   N56       1.0  0.50995  0.31862  0.38276  1.0000
  C   C835      1.0  0.73687  0.34297  0.45946  1.0000
  H   H995      1.0  0.65502  0.02583  0.26115  1.0000
  C   C836      1.0  0.77427  0.37671  0.46339  1.0000
  C   C837      1.0  0.54712  0.11844  0.43822  1.0000
  H   H996      1.0  0.52622  0.33246  0.27500  1.0000
  N   N57       1.0  0.65950  0.44264  0.24981  1.0000
  C   C838      1.0  0.52455  0.39020  0.27835  1.0000
  H   H997      1.0  0.51653  0.33978  0.25117  1.0000
  H   H998      1.0  0.64344  0.43816  0.26801  1.0000
  H   H999      1.0  0.55159  0.47379  0.25328  1.0000
  H   H1000     1.0  0.54670  0.18429  0.44871  1.0000
  C   C839      1.0  0.63477  0.45416  0.24269  1.0000
  H   H1001     1.0  0.53689  0.36154  0.38477  1.0000
  H   H1002     1.0  0.62409  0.47232  0.24876  1.0000
  H   H1003     1.0  0.52245  0.45634  0.23410  1.0000
  H   H1004     1.0  0.50769  0.03124  0.25932  1.0000
  H   H1005     1.0  0.72403  0.06544  0.28156  1.0000
  H   H1006     1.0  0.54299  0.21018  0.43346  1.0000
  H   H1007     1.0  0.62304  0.43043  0.24008  1.0000
  H   H1008     1.0  0.51251  0.14949  0.25165  1.0000
  H   H1009     1.0  0.69220  0.41058  0.24608  1.0000
  H   H1010     1.0  0.50367  0.22820  0.40640  1.0000
  H   H1011     1.0  0.52456  0.26381  0.38708  1.0000
  H   H1012     1.0  0.50181  0.10622  0.42025  1.0000
  C   C840      1.0  0.51072  0.30036  0.34160  1.0000
  H   H1013     1.0  0.66275  0.39132  0.24010  1.0000
  H   H1014     1.0  0.51909  0.05069  0.28094  1.0000
  C   C841      1.0  0.68280  0.49599  0.24227  1.0000
  C   C842      1.0  0.51713  0.35621  0.38629  1.0000
  C   C843      1.0  0.54956  0.18344  0.43822  1.0000
  Fe  Fe115     1.0  0.73464  0.48294  0.46468  1.0000
  H   H1015     1.0  0.54253  0.11692  0.44845  1.0000
  C   C844      1.0  0.53062  0.31700  0.34873  1.0000
  H   H1016     1.0  0.52316  0.44806  0.27908  1.0000
  H   H1017     1.0  0.54695  0.32389  0.34404  1.0000
  H   H1018     1.0  0.49643  0.05706  0.29218  1.0000
  H   H1019     1.0  0.53945  0.49202  0.26728  1.0000
  C   C845      1.0  0.61504  0.02317  0.28726  1.0000
  C   C846      1.0  0.70473  0.06892  0.27720  1.0000
  C   C847      1.0  0.51535  0.43062  0.25894  1.0000
  H   H1020     1.0  0.80339  0.04023  0.46652  1.0000
  H   H1021     1.0  0.72512  0.02560  0.25365  1.0000
  C   C848      1.0  0.53504  0.48837  0.25661  1.0000
  H   H1022     1.0  0.51168  0.29422  0.33143  1.0000
  H   H1023     1.0  0.53983  0.09383  0.43321  1.0000
  H   H1024     1.0  0.57030  0.18100  0.43795  1.0000
  H   H1025     1.0  0.63458  0.08485  0.26363  1.0000
  H   H1026     1.0  0.67466  0.47498  0.27395  1.0000
  C   C849      1.0  0.63794  0.00548  0.29250  1.0000
  H   H1027     1.0  0.50608  0.20533  0.44281  1.0000
  C   C850      1.0  0.69226  0.03997  0.27058  1.0000
  H   H1028     1.0  0.78561  0.35838  0.45768  1.0000
  C   C851      1.0  0.52097  0.42521  0.27266  1.0000
  H   H1029     1.0  0.49430  0.49121  0.26912  1.0000
  C   C852      1.0  0.49298  0.14286  0.25144  1.0000
  H   H1030     1.0  0.52955  0.38671  0.28880  1.0000
  H   H1031     1.0  0.81009  0.03421  0.45025  1.0000
  H   H1032     1.0  0.74324  0.02555  0.26950  1.0000
  C   C853      1.0  0.68076  0.48809  0.26547  1.0000
  H   H1033     1.0  0.74547  0.32321  0.45308  1.0000
  C   C854      1.0  0.50936  0.31363  0.36853  1.0000
  C   C855      1.0  0.49628  0.18348  0.43783  1.0000
  C   C856      1.0  0.53023  0.32306  0.36202  1.0000
  N   N58       1.0  0.61625  0.14726  0.33927  1.0000
  C   C857      1.0  0.63465  0.11796  0.33655  1.0000
  C   C858      1.0  0.59047  0.13422  0.33593  1.0000
  C   C859      1.0  0.61925  0.17863  0.33034  1.0000
  C   C860      1.0  0.62011  0.15639  0.35327  1.0000
  C   C861      1.0  0.62609  0.19190  0.35766  1.0000
  C   C862      1.0  0.61776  0.12928  0.36304  1.0000
  C   C863      1.0  0.62940  0.19952  0.37096  1.0000
  C   C864      1.0  0.62100  0.13728  0.37631  1.0000
  C   C865      1.0  0.62674  0.17238  0.38026  1.0000
  H   H1034     1.0  0.63274  0.11137  0.32597  1.0000
  H   H1035     1.0  0.65428  0.12632  0.33929  1.0000
  H   H1036     1.0  0.63219  0.09203  0.34190  1.0000
  H   H1037     1.0  0.58730  0.10843  0.34119  1.0000
  H   H1038     1.0  0.58647  0.12884  0.32532  1.0000
  H   H1039     1.0  0.57610  0.15493  0.33836  1.0000
  H   H1040     1.0  0.60509  0.20109  0.33133  1.0000
  H   H1041     1.0  0.63844  0.18946  0.33201  1.0000
  H   H1042     1.0  0.61645  0.17067  0.31994  1.0000
  H   H1043     1.0  0.62797  0.21452  0.35103  1.0000
  H   H1044     1.0  0.61323  0.10172  0.36045  1.0000
  H   H1045     1.0  0.63364  0.22694  0.37409  1.0000
  H   H1046     1.0  0.61898  0.11627  0.38362  1.0000
  H   H1047     1.0  0.62905  0.17867  0.39056  1.0000
  H   H1048     1.0  0.63658  0.46950  0.23345  1.0000
  H   H1049     1.0  0.76822  0.22225  0.23349  1.0000
  H   H1050     1.0  0.53620  0.12854  0.41255  1.0000
  C   C866      1.0  0.72924  0.01040  0.26315  1.0000
  H   H1051     1.0  0.51606  0.36122  0.39683  1.0000
  H   H1052     1.0  0.78746  0.39124  0.47042  1.0000
  H   H1053     1.0  0.48893  0.45548  0.23535  1.0000
  H   H1054     1.0  0.50461  0.37697  0.38048  1.0000
  C   C867      1.0  0.51723  0.36385  0.25713  1.0000
  C   C868      1.0  0.50888  0.15508  0.43163  1.0000
  H   H1055     1.0  0.85549  0.04329  0.45658  1.0000
  H   H1056     1.0  0.50425  0.49777  0.23471  1.0000
  H   H1057     1.0  0.65756  0.13437  0.27482  1.0000
  H   H1058     1.0  0.54816  0.29719  0.38707  1.0000
  C   C869      1.0  0.65619  0.02629  0.29940  1.0000
  H   H1059     1.0  0.70212  0.12422  0.28383  1.0000
  C   C870      1.0  0.69240  0.10267  0.27856  1.0000
  C   C871      1.0  0.54266  0.15302  0.41791  1.0000
  H   H1060     1.0  0.84677  0.05289  0.47252  1.0000
  C   C872      1.0  0.66648  0.04661  0.26575  1.0000
  Fe  Fe116     1.0  0.71423  0.06083  0.47989  1.0000
  N   N59       1.0  0.75576  0.35592  0.46989  1.0000
  C   C873      1.0  0.51358  0.39875  0.25130  1.0000
  C   C874      1.0  0.65439  0.08055  0.26711  1.0000
  C   C875      1.0  0.52265  0.35959  0.27060  1.0000
  H   H1061     1.0  0.52970  0.29456  0.40039  1.0000
  H   H1062     1.0  0.67270  0.41224  0.26759  1.0000
  N   N60       1.0  0.53653  0.15277  0.43156  1.0000
  C   C876      1.0  0.67450  0.47529  0.25262  1.0000
  H   H1063     1.0  0.76482  0.39833  0.45654  1.0000
  H   H1064     1.0  0.64371  0.39710  0.25931  1.0000
  H   H1065     1.0  0.67379  0.01328  0.30362  1.0000
  C   C877      1.0  0.67264  0.41736  0.24156  1.0000
  C   C878      1.0  0.52890  0.29240  0.38962  1.0000
  H   H1066     1.0  0.56334  0.15351  0.41746  1.0000
  C   C879      1.0  0.65480  0.42169  0.26172  1.0000
  C   C880      1.0  0.49904  0.05861  0.28165  1.0000
  N   N61       1.0  0.51192  0.46808  0.25317  1.0000
  C   C881      1.0  0.49000  0.29054  0.34768  1.0000
  C   C882      1.0  0.49360  0.12866  0.42513  1.0000
  C   C883      1.0  0.49069  0.48766  0.25840  1.0000
  H   H1067     1.0  0.49651  0.08767  0.27825  1.0000
  C   C884      1.0  0.48916  0.29708  0.36093  1.0000
  C   C885      1.0  0.48847  0.26448  0.41986  1.0000
  H   H1068     1.0  0.73233  0.40389  0.47211  1.0000
  H   H1069     1.0  0.50981  0.39992  0.24081  1.0000
  C   C886      1.0  0.76191  0.28894  0.47721  1.0000
  N   N62       1.0  0.70583  0.00458  0.26921  1.0000
  H   H1070     1.0  0.74660  0.28048  0.47032  1.0000
  C   C887      1.0  0.74257  0.38118  0.47809  1.0000
  H   H1071     1.0  0.96813  0.04149  0.23635  1.0000
  H   H1072     1.0  0.72497  0.00410  0.28890  1.0000
  C   C888      1.0  0.48745  0.03769  0.26006  1.0000
  Fe  Fe117     1.0  0.92729  0.23441  0.54305  1.0000
  S   S235      1.0  0.91960  0.29176  0.54914  1.0000
  S   S236      1.0  0.96570  0.20868  0.54009  1.0000
  Fe  Fe118     1.0  0.87137  0.21590  0.54147  1.0000
  S   S237      1.0  0.85999  0.27220  0.54749  1.0000
  S   S238      1.0  0.83983  0.17582  0.53976  1.0000
  Fe  Fe119     1.0  0.88604  0.29242  0.53370  1.0000
  S   S239      1.0  0.87912  0.33895  0.51854  1.0000
  Fe  Fe120     1.0  0.89417  0.26629  0.56237  1.0000
  S   S240      1.0  0.89223  0.28621  0.58290  1.0000
  S   S241      1.0  0.89534  0.23626  0.52665  1.0000
  S   S242      1.0  0.90398  0.20880  0.55735  1.0000
  Fe  Fe121     1.0  0.92245  0.19315  0.68261  1.0000
  S   S243      1.0  0.88631  0.20408  0.69130  1.0000
  H   H1073     1.0  0.97908  0.32715  0.69586  1.0000
  Fe  Fe122     1.0  0.89600  0.19844  0.65471  1.0000
  S   S244      1.0  0.85818  0.21044  0.66144  1.0000
  S   S245      1.0  0.90274  0.18416  0.63397  1.0000
  Fe  Fe123     1.0  0.87826  0.24866  0.67581  1.0000
  S   S246      1.0  0.85903  0.30349  0.68063  1.0000
  Fe  Fe124     1.0  0.86905  0.16510  0.67635  1.0000
  S   S247      1.0  0.83890  0.12559  0.68117  1.0000
  S   S248      1.0  0.91531  0.23977  0.66782  1.0000
  S   S249      1.0  0.90595  0.15111  0.66893  1.0000
  S   S250      1.0  0.89541  0.45688  0.70368  1.0000
  Fe  Fe125     1.0  0.76571  0.47838  0.49147  1.0000
  H   H1074     1.0  0.68583  0.05386  0.51956  1.0000
  S   S251      1.0  0.77733  0.43754  0.50827  1.0000
  C   C889      1.0  0.82466  0.00507  0.67081  1.0000
  C   C890      1.0  0.61867  0.04235  0.72725  1.0000
  S   S252      1.0  0.73931  0.05632  0.49904  1.0000
  C   C891      1.0  0.83403  0.07913  0.67697  1.0000
  C   C892      1.0  0.81219  0.06251  0.68019  1.0000
  H   H1075     1.0  0.94935  0.27006  0.62142  1.0000
  H   H1076     1.0  0.93557  0.32312  0.49642  1.0000
  C   C893      1.0  0.95331  0.35075  0.51866  1.0000
  C   C894      1.0  0.85114  0.05843  0.67060  1.0000
  H   H1077     1.0  0.79882  0.07816  0.68514  1.0000
  H   H1078     1.0  0.85190  0.37090  0.65658  1.0000
  H   H1079     1.0  0.86803  0.07064  0.66806  1.0000
  C   C895      1.0  0.86946  0.34636  0.68671  1.0000
  C   C896      1.0  0.89466  0.35570  0.68766  1.0000
  C   C897      1.0  0.90207  0.38961  0.69280  1.0000
  C   C898      1.0  0.88449  0.41478  0.69711  1.0000
  C   C899      1.0  0.85919  0.40571  0.69599  1.0000
  C   C900      1.0  0.85176  0.37184  0.69078  1.0000
  H   H1080     1.0  0.90843  0.33696  0.68431  1.0000
  H   H1081     1.0  0.92163  0.39640  0.69343  1.0000
  H   H1082     1.0  0.84533  0.42471  0.69915  1.0000
  H   H1083     1.0  0.83215  0.36519  0.68999  1.0000
  C   C901      1.0  0.85071  0.36620  0.51583  1.0000
  C   C902      1.0  0.83127  0.36234  0.52364  1.0000
  C   C903      1.0  0.80902  0.38441  0.52119  1.0000
  C   C904      1.0  0.80586  0.41061  0.51092  1.0000
  C   C905      1.0  0.82523  0.41439  0.50305  1.0000
  C   C906      1.0  0.84751  0.39231  0.50551  1.0000
  H   H1084     1.0  0.83341  0.34241  0.53160  1.0000
  H   H1085     1.0  0.79416  0.38116  0.52731  1.0000
  H   H1086     1.0  0.82313  0.43446  0.49513  1.0000
  H   H1087     1.0  0.86240  0.39558  0.49941  1.0000
  C   C907      1.0  0.89987  0.21332  0.62000  1.0000
  C   C908      1.0  0.89208  0.25005  0.62038  1.0000
  C   C909      1.0  0.89001  0.27214  0.60895  1.0000
  C   C910      1.0  0.89562  0.25769  0.59707  1.0000
  C   C911      1.0  0.90354  0.22103  0.59672  1.0000
  C   C912      1.0  0.90557  0.19893  0.60813  1.0000
  H   H1088     1.0  0.88765  0.26139  0.62947  1.0000
  H   H1089     1.0  0.88393  0.30054  0.60931  1.0000
  H   H1090     1.0  0.90816  0.20970  0.58770  1.0000
  H   H1091     1.0  0.91176  0.17058  0.60780  1.0000
  C   C913      1.0  0.83106  0.15053  0.52560  1.0000
  C   C914      1.0  0.80954  0.12962  0.52510  1.0000
  C   C915      1.0  0.80219  0.10850  0.51416  1.0000
  C   C916      1.0  0.81646  0.10782  0.50365  1.0000
  C   C917      1.0  0.83795  0.12883  0.50413  1.0000
  C   C918      1.0  0.84517  0.15026  0.51502  1.0000
  H   H1092     1.0  0.79853  0.12960  0.53323  1.0000
  H   H1093     1.0  0.78569  0.09236  0.51396  1.0000
  H   H1094     1.0  0.84912  0.12847  0.49606  1.0000
  H   H1095     1.0  0.86181  0.16615  0.51529  1.0000
  H   H1096     1.0  0.87918  0.34964  0.71391  1.0000
  H   H1097     1.0  0.61935  0.06876  0.50472  1.0000
  N   N63       1.0  0.61055  0.06695  0.71587  1.0000
  H   H1098     1.0  0.96526  0.18072  0.56764  1.0000
  H   H1099     1.0  0.94507  0.17767  0.58033  1.0000
  H   H1100     1.0  0.70621  0.47205  0.54108  1.0000
  H   H1101     1.0  0.85034  0.49535  0.69082  1.0000
  C   C919      1.0  0.61262  0.16818  0.72414  1.0000
  H   H1102     1.0  0.72857  0.36671  0.48323  1.0000
  H   H1103     1.0  0.94587  0.22143  0.72208  1.0000
  H   H1104     1.0  0.67856  0.48453  0.51988  1.0000
  H   H1105     1.0  0.96211  0.37450  0.51441  1.0000
  C   C920      1.0  0.78878  0.33358  0.48797  1.0000
  C   C921      1.0  0.95809  0.24648  0.61733  1.0000
  N   N64       1.0  0.96245  0.31562  0.51361  1.0000
  H   H1106     1.0  0.62426  0.19131  0.72299  1.0000
  C   C922      1.0  0.61862  0.13450  0.71889  1.0000
  C   C923      1.0  0.97995  0.09569  0.71368  1.0000
  H   H1107     1.0  0.96667  0.33803  0.49463  1.0000
  C   C924      1.0  0.97187  0.21549  0.59834  1.0000
  H   H1108     1.0  0.96041  0.29029  0.49481  1.0000
  H   H1109     1.0  0.76935  0.23327  0.48424  1.0000
  C   C925      1.0  0.84647  0.02170  0.66757  1.0000
  C   C926      1.0  0.96176  0.24680  0.60413  1.0000
  H   H1110     1.0  0.89248  0.40009  0.66169  1.0000
  C   C927      1.0  0.92194  0.30979  0.71545  1.0000
  H   H1111     1.0  0.62473  0.01487  0.72413  1.0000
  C   C928      1.0  0.92838  0.28585  0.70557  1.0000
  H   H1112     1.0  0.59312  0.02493  0.70396  1.0000
  H   H1113     1.0  0.82426  0.00581  0.48430  1.0000
  H   H1114     1.0  0.80463  0.24831  0.50064  1.0000
  C   C929      1.0  0.97845  0.15403  0.70186  1.0000
  C   C930      1.0  0.96447  0.21537  0.62514  1.0000
  C   C931      1.0  0.95604  0.31680  0.49924  1.0000
  H   H1115     1.0  0.96932  0.36941  0.71317  1.0000
  C   C932      1.0  0.94887  0.29208  0.69870  1.0000
  H   H1116     1.0  0.93256  0.35532  0.51616  1.0000
  C   C933      1.0  0.63123  0.06679  0.70743  1.0000
  H   H1117     1.0  0.97587  0.15557  0.58214  1.0000
  C   C934      1.0  0.63983  0.07099  0.50765  1.0000
  N   N65       1.0  0.65400  0.03574  0.50683  1.0000
  H   H1118     1.0  0.58063  0.07058  0.70000  1.0000
  C   C935      1.0  0.88351  0.27550  0.71744  1.0000
  H   H1119     1.0  0.48910  0.22574  0.72157  1.0000
  H   H1120     1.0  0.62650  0.08531  0.69875  1.0000
  C   C936      1.0  0.82981  0.41939  0.65985  1.0000
  H   H1121     1.0  0.63503  0.13332  0.71376  1.0000
  C   C937      1.0  0.97923  0.18484  0.60675  1.0000
  H   H1122     1.0  0.65746  0.04178  0.48624  1.0000
  H   H1123     1.0  0.92768  0.29243  0.51769  1.0000
  H   H1124     1.0  0.74386  0.49573  0.51412  1.0000
  H   H1125     1.0  0.81208  0.40615  0.65782  1.0000
  C   C938      1.0  0.60400  0.10354  0.72059  1.0000
  C   C939      1.0  0.85222  0.39951  0.65907  1.0000
  C   C940      1.0  0.69562  0.49335  0.51568  1.0000
  H   H1126     1.0  0.81607  0.07520  0.64689  1.0000
  N   N66       1.0  0.82435  0.20557  0.57812  1.0000
  C   C941      1.0  0.80417  0.19951  0.56731  1.0000
  C   C942      1.0  0.82588  0.24566  0.57969  1.0000
  C   C943      1.0  0.84830  0.19112  0.57404  1.0000
  C   C944      1.0  0.82033  0.18761  0.59066  1.0000
  C   C945      1.0  0.80096  0.16267  0.59180  1.0000
  C   C946      1.0  0.83670  0.19389  0.60217  1.0000
  C   C947      1.0  0.79809  0.14577  0.60380  1.0000
  C   C948      1.0  0.83375  0.17677  0.61408  1.0000
  C   C949      1.0  0.81440  0.15288  0.61492  1.0000
  H   H1127     1.0  0.78545  0.20936  0.56977  1.0000
  H   H1128     1.0  0.80759  0.21418  0.55814  1.0000
  H   H1129     1.0  0.80344  0.17023  0.56468  1.0000
  H   H1130     1.0  0.80910  0.25724  0.58379  1.0000
  H   H1131     1.0  0.82729  0.26020  0.57023  1.0000
  H   H1132     1.0  0.84285  0.25320  0.58617  1.0000
  H   H1133     1.0  0.84765  0.16136  0.57214  1.0000
  H   H1134     1.0  0.85251  0.20496  0.56491  1.0000
  H   H1135     1.0  0.86448  0.19511  0.58149  1.0000
  H   H1136     1.0  0.78785  0.15569  0.58357  1.0000
  H   H1137     1.0  0.85212  0.21191  0.60205  1.0000
  H   H1138     1.0  0.78316  0.12693  0.60450  1.0000
  H   H1139     1.0  0.84669  0.18201  0.62271  1.0000
  H   H1140     1.0  0.81213  0.13984  0.62421  1.0000
  C   C950      1.0  0.64530  0.00838  0.51588  1.0000
  H   H1141     1.0  0.97019  0.07289  0.71719  1.0000
  C   C951      1.0  0.88515  0.33783  0.72380  1.0000
  H   H1142     1.0  0.84757  0.08280  0.63148  1.0000
  C   C952      1.0  0.80748  0.02580  0.67712  1.0000
  H   H1143     1.0  0.68702  0.06361  0.50274  1.0000
  H   H1144     1.0  0.81697  0.31232  0.50314  1.0000
  H   H1145     1.0  0.60676  0.00877  0.50626  1.0000
  C   C953      1.0  0.96619  0.12373  0.70608  1.0000
  H   H1146     1.0  0.70374  0.46887  0.51122  1.0000
  S   S253      1.0  0.80846  0.08040  0.48994  1.0000
  C   C954      1.0  0.58314  0.10857  0.72777  1.0000
  S   S254      1.0  0.96167  0.19251  0.69396  1.0000
  H   H1147     1.0  0.64930  0.07466  0.71289  1.0000
  H   H1148     1.0  0.87622  0.28259  0.70710  1.0000
  C   C955      1.0  0.93777  0.33957  0.71820  1.0000
  H   H1149     1.0  0.63501  0.03897  0.70371  1.0000
  C   C956      1.0  0.95803  0.34580  0.71116  1.0000
  N   N67       1.0  0.90063  0.30359  0.72308  1.0000
  H   H1150     1.0  0.94601  0.12246  0.70383  1.0000
  C   C957      1.0  0.94836  0.28627  0.51918  1.0000
  C   C958      1.0  0.83514  0.06009  0.63050  1.0000
  H   H1151     1.0  0.86675  0.27289  0.72278  1.0000
  H   H1152     1.0  0.89417  0.46284  0.66843  1.0000
  H   H1153     1.0  0.86775  0.33330  0.72844  1.0000
  H   H1154     1.0  0.57183  0.08597  0.73003  1.0000
  C   C959      1.0  0.77480  0.26138  0.48521  1.0000
  H   H1155     1.0  0.81236  0.46993  0.66422  1.0000
  C   C960      1.0  0.80187  0.02588  0.63830  1.0000
  H   H1156     1.0  0.62937  0.02137  0.48965  1.0000
  C   C961      1.0  0.79466  0.26977  0.49448  1.0000
  C   C962      1.0  0.59200  0.17210  0.73112  1.0000
  H   H1157     1.0  0.95142  0.25932  0.51476  1.0000
  C   C963      1.0  0.64963  0.02299  0.49322  1.0000
  H   H1158     1.0  0.95325  0.27349  0.69115  1.0000
  C   C964      1.0  0.68116  0.04282  0.50965  1.0000
  C   C965      1.0  0.72211  0.47975  0.53568  1.0000
  H   H1159     1.0  0.91778  0.26227  0.70279  1.0000
  H   H1160     1.0  0.85158  0.03767  0.61427  1.0000
  H   H1161     1.0  0.95576  0.27158  0.59862  1.0000
  H   H1162     1.0  0.97139  0.27208  0.57924  1.0000
  C   C966      1.0  0.83022  0.45585  0.66356  1.0000
  C   C967      1.0  0.87510  0.41603  0.66197  1.0000
  H   H1163     1.0  0.57296  0.04616  0.71421  1.0000
  N   N68       1.0  0.97529  0.21441  0.58431  1.0000
  H   H1164     1.0  0.95688  0.35121  0.52950  1.0000
  H   H1165     1.0  0.64237  0.08134  0.51776  1.0000
  H   H1166     1.0  0.64633  0.09231  0.50106  1.0000
  C   C968      1.0  0.87575  0.45237  0.66581  1.0000
  C   C969      1.0  0.85322  0.47349  0.66670  1.0000
  C   C970      1.0  0.96351  0.32216  0.70139  1.0000
  Fe  Fe126     1.0  0.77132  0.05180  0.48701  1.0000
  H   H1167     1.0  0.72930  0.45472  0.53112  1.0000
  C   C971      1.0  0.96453  0.21555  0.72710  1.0000
  C   C972      1.0  0.83741  0.03456  0.62085  1.0000
  H   H1168     1.0  0.96365  0.24295  0.56595  1.0000
  H   H1169     1.0  0.93446  0.35868  0.72570  1.0000
  H   H1170     1.0  0.95421  0.28264  0.52982  1.0000
  C   C973      1.0  0.81732  0.05586  0.63914  1.0000
  H   H1171     1.0  0.79459  0.36116  0.48959  1.0000
  H   H1172     1.0  0.73770  0.48801  0.54294  1.0000
  C   C974      1.0  0.58833  0.05169  0.70819  1.0000
  S   S255      1.0  0.72398  0.48116  0.48501  1.0000
  H   H1173     1.0  0.96059  0.21476  0.63523  1.0000
  H   H1174     1.0  0.94223  0.24835  0.57784  1.0000
  H   H1175     1.0  0.78929  0.02364  0.64570  1.0000
  C   C975      1.0  0.96258  0.24587  0.57657  1.0000
  H   H1176     1.0  0.69309  0.01765  0.50876  1.0000
  C   C976      1.0  0.97524  0.18473  0.61990  1.0000
  H   H1177     1.0  0.98014  0.16060  0.62606  1.0000
  C   C977      1.0  0.80159  0.30582  0.49587  1.0000
  H   H1178     1.0  0.79062  0.01357  0.67968  1.0000
  H   H1179     1.0  0.89289  0.24786  0.71781  1.0000
  H   H1180     1.0  0.97720  0.26953  0.72407  1.0000
  H   H1181     1.0  0.95735  0.15944  0.73095  1.0000
  H   H1182     1.0  0.75576  0.39402  0.48563  1.0000
  H   H1183     1.0  0.89517  0.35921  0.72956  1.0000
  C   C978      1.0  0.96491  0.18067  0.57843  1.0000
  C   C979      1.0  0.98230  0.24239  0.72807  1.0000
  H   H1184     1.0  0.98638  0.27634  0.55116  1.0000
  H   H1185     1.0  0.85988  0.00606  0.66265  1.0000
  C   C980      1.0  0.82198  0.00454  0.61989  1.0000
  C   C981      1.0  0.97109  0.18049  0.73205  1.0000
  C   C982      1.0  0.91069  0.29138  0.73650  1.0000
  S   S256      1.0  0.72755  0.43141  0.96217  1.0000
  S   S257      1.0  0.65972  0.40497  0.97133  1.0000
  H   H1186     1.0  0.56358  0.34319  0.86144  1.0000
  S   S258      1.0  0.65785  0.03731  0.97074  1.0000
  H   H1187     1.0  0.66339  0.44439  0.90463  1.0000
  Fe  Fe127     1.0  0.59471  0.27108  0.91791  1.0000
  S   S259      1.0  0.60496  0.22902  0.90365  1.0000
  S   S260      1.0  0.62711  0.30925  0.92193  1.0000
  Fe  Fe128     1.0  0.54430  0.23618  0.92068  1.0000
  S   S261      1.0  0.55229  0.19117  0.90712  1.0000
  S   S262      1.0  0.50888  0.23393  0.93118  1.0000
  Fe  Fe129     1.0  0.59164  0.18842  0.91759  1.0000
  S   S263      1.0  0.61627  0.13624  0.92093  1.0000
  Fe  Fe130     1.0  0.56510  0.23576  0.89442  1.0000
  S   S264      1.0  0.54989  0.23474  0.87286  1.0000
  S   S265      1.0  0.58313  0.22998  0.93226  1.0000
  S   S266      1.0  0.55535  0.28129  0.90753  1.0000
  Fe  Fe131     1.0  0.59829  0.33425  0.78018  1.0000
  S   S267      1.0  0.57147  0.34191  0.79511  1.0000
  S   S268      1.0  0.62467  0.37823  0.77434  1.0000
  Fe  Fe132     1.0  0.58758  0.25049  0.77774  1.0000
  S   S269      1.0  0.56027  0.25381  0.79273  1.0000
  S   S270      1.0  0.60426  0.19727  0.76995  1.0000
  Fe  Fe133     1.0  0.54592  0.30671  0.78218  1.0000
  Fe  Fe134     1.0  0.72906  0.49236  0.96403  1.0000
  Fe  Fe135     1.0  0.58807  0.28890  0.80414  1.0000
  S   S271      1.0  0.60648  0.28493  0.82511  1.0000
  S   S272      1.0  0.57179  0.30177  0.76650  1.0000
  S   S273      1.0  0.61626  0.28278  0.78988  1.0000
  S   S274      1.0  0.57379  0.03308  0.75585  1.0000
  C   C983      1.0  0.63162  0.42247  0.78043  1.0000
  C   C984      1.0  0.65243  0.44025  0.77647  1.0000
  C   C985      1.0  0.68409  0.16368  0.95398  1.0000
  H   H1188     1.0  0.67311  0.16036  0.94462  1.0000
  C   C986      1.0  0.62503  0.47356  0.79459  1.0000
  C   C987      1.0  0.61767  0.43975  0.78936  1.0000
  H   H1189     1.0  0.66332  0.42737  0.76951  1.0000
  C   C988      1.0  0.50879  0.31929  0.84428  1.0000
  H   H1190     1.0  0.54402  0.17575  0.93598  1.0000
  H   H1191     1.0  0.60139  0.42687  0.79237  1.0000
  C   C989      1.0  0.59532  0.15166  0.76621  1.0000
  C   C990      1.0  0.57115  0.13953  0.76728  1.0000
  C   C991      1.0  0.56513  0.10320  0.76422  1.0000
  C   C992      1.0  0.58304  0.07830  0.76002  1.0000
  C   C993      1.0  0.60730  0.09031  0.75911  1.0000
  C   C994      1.0  0.61333  0.12664  0.76217  1.0000
  H   H1192     1.0  0.55701  0.15820  0.77036  1.0000
  H   H1193     1.0  0.54631  0.09436  0.76499  1.0000
  H   H1194     1.0  0.62143  0.07165  0.75605  1.0000
  H   H1195     1.0  0.63211  0.13549  0.76132  1.0000
  C   C995      1.0  0.56618  0.24837  0.85975  1.0000
  C   C996      1.0  0.55451  0.24535  0.84691  1.0000
  C   C997      1.0  0.56675  0.25602  0.83618  1.0000
  C   C998      1.0  0.59071  0.27010  0.83825  1.0000
  C   C999      1.0  0.60251  0.27280  0.85107  1.0000
  C   C1000     1.0  0.59030  0.26200  0.86179  1.0000
  H   H1196     1.0  0.53589  0.23468  0.84527  1.0000
  H   H1197     1.0  0.55766  0.25349  0.82636  1.0000
  H   H1198     1.0  0.62110  0.28355  0.85273  1.0000
  H   H1199     1.0  0.59946  0.26434  0.87164  1.0000
  C   C1001     1.0  0.64918  0.06766  0.95722  1.0000
  C   C1002     1.0  0.63266  0.09778  0.95854  1.0000
  C   C1003     1.0  0.62339  0.12036  0.94768  1.0000
  C   C1004     1.0  0.62994  0.11226  0.93530  1.0000
  C   C1005     1.0  0.64693  0.08273  0.93405  1.0000
  C   C1006     1.0  0.65667  0.06071  0.94496  1.0000
  H   H1200     1.0  0.62671  0.10323  0.96799  1.0000
  H   H1201     1.0  0.61055  0.14313  0.94884  1.0000
  H   H1202     1.0  0.65214  0.07626  0.92452  1.0000
  H   H1203     1.0  0.66917  0.03746  0.94378  1.0000
  C   C1007     1.0  0.65167  0.37614  0.95805  1.0000
  C   C1008     1.0  0.62829  0.35957  0.95686  1.0000
  C   C1009     1.0  0.62071  0.33804  0.94606  1.0000
  C   C1010     1.0  0.63633  0.33350  0.93622  1.0000
  C   C1011     1.0  0.65991  0.34948  0.93753  1.0000
  C   C1012     1.0  0.66768  0.37028  0.94848  1.0000
  H   H1204     1.0  0.61583  0.36385  0.96427  1.0000
  H   H1205     1.0  0.60252  0.32592  0.94515  1.0000
  H   H1206     1.0  0.67214  0.34600  0.92999  1.0000
  H   H1207     1.0  0.68593  0.38211  0.94947  1.0000
  C   C1013     1.0  0.66994  0.31996  0.82215  1.0000
  C   C1014     1.0  0.58627  0.02806  0.95559  1.0000
  C   C1015     1.0  0.53774  0.34099  0.82977  1.0000
  C   C1016     1.0  0.67289  0.35018  0.80162  1.0000
  H   H1208     1.0  0.80160  0.12074  0.97359  1.0000
  H   H1209     1.0  0.57125  0.16733  0.80125  1.0000
  C   C1017     1.0  0.63801  0.36435  0.81374  1.0000
  H   H1210     1.0  0.52331  0.13706  0.95675  1.0000
  H   H1211     1.0  0.68216  0.49639  0.94746  1.0000
  C   C1018     1.0  0.56723  0.04173  0.96246  1.0000
  C   C1019     1.0  0.60263  0.17310  0.84972  1.0000
  C   C1020     1.0  0.55523  0.34735  0.84055  1.0000
  H   H1212     1.0  0.62386  0.10617  0.81697  1.0000
  H   H1213     1.0  0.59324  0.47479  0.76051  1.0000
  H   H1214     1.0  0.71847  0.40797  0.84844  1.0000
  H   H1215     1.0  0.67718  0.21520  0.93379  1.0000
  H   H1216     1.0  0.56553  0.03056  0.97210  1.0000
  H   H1217     1.0  0.50393  0.10558  0.94710  1.0000
  C   C1021     1.0  0.57285  0.07129  0.93791  1.0000
  C   C1022     1.0  0.52761  0.11316  0.92555  1.0000
  H   H1218     1.0  0.52474  0.29632  0.80881  1.0000
  C   C1023     1.0  0.70475  0.44565  0.83282  1.0000
  H   H1219     1.0  0.59950  0.00685  0.95994  1.0000
  C   C1024     1.0  0.61447  0.19702  0.81013  1.0000
  C   C1025     1.0  0.70042  0.19957  0.97228  1.0000
  C   C1026     1.0  0.61159  0.17251  0.83754  1.0000
  Fe  Fe136     1.0  0.69569  0.00594  0.97523  1.0000
  H   H1220     1.0  0.63085  0.20591  0.81674  1.0000
  C   C1027     1.0  0.57227  0.14841  0.82807  1.0000
  H   H1221     1.0  0.56345  0.15515  0.94972  1.0000
  S   S275      1.0  0.69570  0.49642  0.97538  1.0000
  H   H1222     1.0  0.66324  0.32708  0.79663  1.0000
  S   S276      1.0  0.73096  0.02545  0.96830  1.0000
  H   H1223     1.0  0.63154  0.36833  0.82349  1.0000
  H   H1224     1.0  0.55949  0.13868  0.82015  1.0000
  H   H1225     1.0  0.63271  0.38950  0.80780  1.0000
  C   C1028     1.0  0.61190  0.40130  0.91183  1.0000
  H   H1226     1.0  0.69019  0.31118  0.82325  1.0000
  N   N69       1.0  0.66539  0.35544  0.81488  1.0000
  C   C1029     1.0  0.67477  0.26447  0.96110  1.0000
  C   C1030     1.0  0.51387  0.32699  0.83129  1.0000
  H   H1227     1.0  0.59829  0.38250  0.90758  1.0000
  C   C1031     1.0  0.49747  0.35017  0.75492  1.0000
  N   N70       1.0  0.60667  0.15994  0.81352  1.0000
  C   C1032     1.0  0.70693  0.41147  0.83911  1.0000
  H   H1228     1.0  0.66322  0.32118  0.83195  1.0000
  C   C1033     1.0  0.66696  0.47876  0.94333  1.0000
  C   C1034     1.0  0.78790  0.06458  0.96109  1.0000
  H   H1229     1.0  0.61989  0.19877  0.80003  1.0000
  H   H1230     1.0  0.54234  0.11094  0.91885  1.0000
  H   H1231     1.0  0.57672  0.08286  0.92867  1.0000
  H   H1232     1.0  0.64441  0.14241  0.82156  1.0000
  Fe  Fe137     1.0  0.75326  0.42827  0.98116  1.0000
  H   H1233     1.0  0.59892  0.21756  0.81079  1.0000
  C   C1035     1.0  0.67919  0.38585  0.82120  1.0000
  C   C1036     1.0  0.69434  0.38188  0.83346  1.0000
  C   C1037     1.0  0.67741  0.42107  0.81511  1.0000
  H   H1234     1.0  0.60336  0.03833  0.73349  1.0000
  C   C1038     1.0  0.68996  0.45043  0.82085  1.0000
  H   H1235     1.0  0.63352  0.24869  0.94676  1.0000
  H   H1236     1.0  0.66787  0.37431  0.79503  1.0000
  H   H1237     1.0  0.69354  0.34483  0.80200  1.0000
  H   H1238     1.0  0.69675  0.35629  0.83889  1.0000
  H   H1239     1.0  0.66619  0.42627  0.80584  1.0000
  H   H1240     1.0  0.61431  0.48629  0.80164  1.0000
  S   S277      1.0  0.50371  0.32013  0.78010  1.0000
  H   H1241     1.0  0.61407  0.18344  0.85812  1.0000
  H   H1242     1.0  0.54476  0.14049  0.84148  1.0000
  N   N71       1.0  0.53819  0.11881  0.93929  1.0000
  C   C1039     1.0  0.58885  0.04251  0.94327  1.0000
  C   C1040     1.0  0.61096  0.41272  0.92455  1.0000
  C   C1041     1.0  0.55093  0.07034  0.95713  1.0000
  H   H1243     1.0  0.69498  0.10633  0.95538  1.0000
  C   C1042     1.0  0.82603  0.03428  0.95637  1.0000
  H   H1244     1.0  0.77667  0.04492  0.95496  1.0000
  C   C1043     1.0  0.55340  0.08622  0.94468  1.0000
  H   H1245     1.0  0.63664  0.13287  0.80469  1.0000
  C   C1044     1.0  0.51677  0.12861  0.94667  1.0000
  H   H1246     1.0  0.50528  0.15252  0.94204  1.0000
  H   H1247     1.0  0.62692  0.34233  0.80894  1.0000
  H   H1248     1.0  0.63159  0.40378  0.89494  1.0000
  C   C1045     1.0  0.55468  0.15030  0.93962  1.0000
  H   H1249     1.0  0.51661  0.08801  0.92473  1.0000
  C   C1046     1.0  0.56353  0.14912  0.84033  1.0000
  C   C1047     1.0  0.59667  0.16025  0.82631  1.0000
  C   C1048     1.0  0.50692  0.28889  0.81255  1.0000
  C   C1049     1.0  0.71067  0.13466  0.97217  1.0000
  H   H1250     1.0  0.57015  0.14613  0.93345  1.0000
  C   C1050     1.0  0.62924  0.43530  0.93040  1.0000
  H   H1251     1.0  0.57158  0.16279  0.86054  1.0000
  H   H1252     1.0  0.68814  0.47711  0.81595  1.0000
  H   H1253     1.0  0.51493  0.13663  0.92158  1.0000
  C   C1051     1.0  0.62887  0.13428  0.81424  1.0000
  H   H1254     1.0  0.58243  0.12009  0.80405  1.0000
  H   H1255     1.0  0.69475  0.27231  0.96265  1.0000
  H   H1256     1.0  0.63022  0.18221  0.83697  1.0000
  H   H1257     1.0  0.71994  0.11027  0.97694  1.0000
  H   H1258     1.0  0.54339  0.34608  0.82021  1.0000
  C   C1052     1.0  0.69655  0.13251  0.96003  1.0000
  C   C1053     1.0  0.49189  0.35188  0.81085  1.0000
  H   H1259     1.0  0.51105  0.26406  0.81894  1.0000
  H   H1260     1.0  0.92265  0.31219  0.74154  1.0000
  H   H1261     1.0  0.69872  0.44947  0.91874  1.0000
  C   C1054     1.0  0.64902  0.44749  0.92353  1.0000
  N   N72       1.0  0.49609  0.31915  0.81968  1.0000
  H   H1262     1.0  0.49394  0.28141  0.80385  1.0000
  H   H1263     1.0  0.83152  0.05747  0.95033  1.0000
  H   H1264     1.0  0.69508  0.42468  0.93351  1.0000
  H   H1265     1.0  0.55763  0.49531  0.77209  1.0000
  C   C1055     1.0  0.58823  0.14858  0.80261  1.0000
  H   H1266     1.0  0.49181  0.37322  0.73534  1.0000
  C   C1056     1.0  0.52651  0.32554  0.85498  1.0000
  C   C1057     1.0  0.68548  0.19821  0.95995  1.0000
  C   C1058     1.0  0.65964  0.47425  0.78160  1.0000
  H   H1267     1.0  0.67146  0.26282  0.93562  1.0000
  H   H1268     1.0  0.64020  0.20162  0.94425  1.0000
  H   H1269     1.0  0.65936  0.29783  0.81700  1.0000
  H   H1270     1.0  0.59635  0.14904  0.79317  1.0000
  H   H1271     1.0  0.51718  0.34324  0.75459  1.0000
  H   H1272     1.0  0.59653  0.40276  0.93010  1.0000
  C   C1059     1.0  0.57866  0.16142  0.85112  1.0000
  C   C1060     1.0  0.68094  0.23789  0.94064  1.0000
  H   H1273     1.0  0.85902  0.03314  0.98060  1.0000
  H   H1274     1.0  0.57362  0.35696  0.83912  1.0000
  N   N73       1.0  0.67177  0.23072  0.95343  1.0000
  H   H1275     1.0  0.70954  0.46800  0.93402  1.0000
  H   H1276     1.0  0.53694  0.08002  0.96309  1.0000
  C   C1061     1.0  0.63082  0.41310  0.90478  1.0000
  C   C1062     1.0  0.64611  0.49102  0.79080  1.0000
  H   H1277     1.0  0.63699  0.21676  0.96042  1.0000
  N   N74       1.0  0.81225  0.04762  0.96711  1.0000
  H   H1278     1.0  0.67592  0.48717  0.77858  1.0000
  H   H1279     1.0  0.79074  0.08840  0.95466  1.0000
  C   C1063     1.0  0.69409  0.45239  0.92887  1.0000
  H   H1280     1.0  0.89529  0.28613  0.74258  1.0000
  C   C1064     1.0  0.64903  0.43608  0.91047  1.0000
  H   H1281     1.0  0.71449  0.46855  0.83721  1.0000
  H   H1282     1.0  0.67157  0.50289  0.91186  1.0000
  Fe  Fe138     1.0  0.69633  0.43497  0.97482  1.0000
  N   N75       1.0  0.66908  0.47075  0.92946  1.0000
  H   H1283     1.0  0.81435  0.01605  0.94982  1.0000
  H   H1284     1.0  0.66854  0.45337  0.94952  1.0000
  H   H1285     1.0  0.50900  0.35900  0.80636  1.0000
  H   H1286     1.0  0.70156  0.24192  0.94183  1.0000
  C   C1065     1.0  0.71273  0.16812  0.97824  1.0000
  H   H1287     1.0  0.92246  0.26574  0.73643  1.0000
  C   C1066     1.0  0.54964  0.33958  0.85312  1.0000
  C   C1067     1.0  0.80648  0.01582  0.97518  1.0000
  H   H1288     1.0  0.52268  0.31816  0.86478  1.0000
  H   H1289     1.0  0.60412  0.03246  0.93811  1.0000
  C   C1068     1.0  0.64448  0.22408  0.95114  1.0000
  H   H1290     1.0  0.58784  0.19793  0.73551  1.0000
  H   H1291     1.0  0.66406  0.28827  0.95603  1.0000
  H   H1292     1.0  0.62782  0.44180  0.94046  1.0000
  H   H1293     1.0  0.64899  0.49377  0.94455  1.0000
  H   H1294     1.0  0.84340  0.01794  0.96002  1.0000
  H   H1295     1.0  0.56147  0.14534  0.73851  1.0000
  H   H1296     1.0  0.66753  0.26146  0.97073  1.0000
  C   C1069     1.0  0.59284  0.50187  0.76455  1.0000
  C   C1070     1.0  0.81985  0.10936  0.97752  1.0000
  C   C1071     1.0  0.82788  0.07282  0.97531  1.0000
  H   H1297     1.0  0.70284  0.22448  0.97759  1.0000
  H   H1298     1.0  0.77596  0.07361  0.96867  1.0000
  H   H1299     1.0  0.49154  0.30761  0.84648  1.0000
  H   H1300     1.0  0.63478  0.05338  0.73356  1.0000
  C   C1072     1.0  0.57714  0.14246  0.73280  1.0000
  S   S278      1.0  0.75740  0.48918  0.98184  1.0000
  C   C1073     1.0  0.85186  0.06074  0.98160  1.0000
  C   C1074     1.0  0.50572  0.63822  0.19958  1.0000
  C   C1075     1.0  0.78848  0.50727  0.02521  1.0000
  S   S279      1.0  0.72656  0.52475  0.01105  1.0000
  Fe  Fe139     1.0  0.60632  0.71350  0.05605  1.0000
  S   S280      1.0  0.63444  0.75330  0.06450  1.0000
  S   S281      1.0  0.56776  0.70637  0.06301  1.0000
  Fe  Fe140     1.0  0.64278  0.68074  0.03850  1.0000
  S   S282      1.0  0.67376  0.71811  0.04532  1.0000
  S   S283      1.0  0.64002  0.63994  0.02216  1.0000
  Fe  Fe141     1.0  0.66312  0.70653  0.06559  1.0000
  S   S284      1.0  0.69550  0.70418  0.08219  1.0000
  Fe  Fe142     1.0  0.64350  0.76251  0.04393  1.0000
  S   S285      1.0  0.64412  0.82144  0.03646  1.0000
  S   S286      1.0  0.63439  0.66568  0.05874  1.0000
  S   S287      1.0  0.61307  0.72641  0.03551  1.0000
  Fe  Fe143     1.0  0.72463  0.94684  0.99318  1.0000
  S   S288      1.0  0.72727  0.89609  0.00661  1.0000
  S   S289      1.0  0.79551  0.93522  0.23006  1.0000
  S   S290      1.0  0.63385  0.53496  0.21702  1.0000
  C   C1076     1.0  0.49877  0.76132  0.22938  1.0000
  S   S291      1.0  0.89650  0.92573  0.20864  1.0000
  H   H1301     1.0  0.56699  0.67313  0.03695  1.0000
  C   C1077     1.0  0.50266  0.60014  0.21885  1.0000
  S   S292      1.0  0.83597  0.93304  0.20295  1.0000
  Fe  Fe144     1.0  0.86463  0.88713  0.20805  1.0000
  S   S293      1.0  0.86732  0.82889  0.20065  1.0000
  Fe  Fe145     1.0  0.86758  0.97263  0.20576  1.0000
  H   H1302     1.0  0.77290  0.77000  0.21166  1.0000
  H   H1303     1.0  0.78335  0.51169  0.01452  1.0000
  Fe  Fe146     1.0  0.74836  0.61293  0.18382  1.0000
  S   S294      1.0  0.78993  0.62194  0.18517  1.0000
  S   S295      1.0  0.72950  0.61665  0.20243  1.0000
  Fe  Fe147     1.0  0.74168  0.61826  0.15372  1.0000
  S   S296      1.0  0.78271  0.62775  0.15308  1.0000
  S   S297      1.0  0.70975  0.61562  0.13689  1.0000
  Fe  Fe148     1.0  0.78965  0.58229  0.16858  1.0000
  S   S298      1.0  0.82140  0.53876  0.16698  1.0000
  Fe  Fe149     1.0  0.77983  0.66621  0.16981  1.0000
  S   S299      1.0  0.78670  0.72766  0.17006  1.0000
  S   S300      1.0  0.74855  0.57071  0.16827  1.0000
  S   S301      1.0  0.73830  0.65894  0.16936  1.0000
  C   C1078     1.0  0.84380  0.80114  0.19284  1.0000
  C   C1079     1.0  0.84801  0.76297  0.19320  1.0000
  C   C1080     1.0  0.83040  0.73992  0.18668  1.0000
  C   C1081     1.0  0.80855  0.75486  0.17946  1.0000
  C   C1082     1.0  0.80420  0.79302  0.17924  1.0000
  C   C1083     1.0  0.82158  0.81603  0.18597  1.0000
  H   H1304     1.0  0.86518  0.75116  0.19844  1.0000
  H   H1305     1.0  0.83410  0.71069  0.18689  1.0000
  H   H1306     1.0  0.78746  0.80491  0.17361  1.0000
  H   H1307     1.0  0.81822  0.84532  0.18545  1.0000
  C   C1084     1.0  0.66054  0.55766  0.21314  1.0000
  C   C1085     1.0  0.66953  0.58740  0.22026  1.0000
  C   C1086     1.0  0.69097  0.60474  0.21697  1.0000
  C   C1087     1.0  0.70340  0.59275  0.20649  1.0000
  C   C1088     1.0  0.69470  0.56252  0.19955  1.0000
  C   C1089     1.0  0.67326  0.54514  0.20284  1.0000
  H   H1308     1.0  0.69777  0.62793  0.22246  1.0000
  H   H1309     1.0  0.70462  0.55244  0.19173  1.0000
  H   H1310     1.0  0.72843  0.60707  0.99064  1.0000
  C   C1090     1.0  0.69876  0.67963  0.09742  1.0000
  C   C1091     1.0  0.68073  0.65567  0.10082  1.0000
  C   C1092     1.0  0.68440  0.63643  0.11293  1.0000
  C   C1093     1.0  0.70602  0.64096  0.12182  1.0000
  C   C1094     1.0  0.72392  0.66516  0.11847  1.0000
  C   C1095     1.0  0.72031  0.68428  0.10634  1.0000
  H   H1311     1.0  0.66409  0.65173  0.09408  1.0000
  H   H1312     1.0  0.67045  0.61774  0.11539  1.0000
  H   H1313     1.0  0.74063  0.66898  0.12519  1.0000
  H   H1314     1.0  0.73441  0.70269  0.10386  1.0000
  C   C1096     1.0  0.66642  0.84033  0.02707  1.0000
  C   C1097     1.0  0.68867  0.82124  0.02507  1.0000
  C   C1098     1.0  0.70681  0.83843  0.01848  1.0000
  C   C1099     1.0  0.70268  0.87452  0.01356  1.0000
  C   C1100     1.0  0.68006  0.89317  0.01520  1.0000
  C   C1101     1.0  0.66215  0.87625  0.02203  1.0000
  H   H1315     1.0  0.69218  0.79359  0.02885  1.0000
  H   H1316     1.0  0.72432  0.82389  0.01733  1.0000
  H   H1317     1.0  0.67673  0.92101  0.01155  1.0000
  H   H1318     1.0  0.64503  0.89130  0.02354  1.0000
  C   C1102     1.0  0.70252  0.55716  0.01386  1.0000
  C   C1103     1.0  0.67991  0.56070  0.00560  1.0000
  C   C1104     1.0  0.66105  0.58632  0.00825  1.0000
  C   C1105     1.0  0.66463  0.60876  0.01913  1.0000
  C   C1106     1.0  0.68732  0.60544  0.02735  1.0000
  C   C1107     1.0  0.70616  0.57969  0.02472  1.0000
  S   S302      1.0  0.86320  0.88882  0.22970  1.0000
  H   H1319     1.0  0.64357  0.58871  0.00184  1.0000
  H   H1320     1.0  0.69028  0.62249  0.03578  1.0000
  H   H1321     1.0  0.72358  0.57712  0.03118  1.0000
  H   H1322     1.0  0.75610  0.83286  0.20817  1.0000
  H   H1323     1.0  0.52819  0.65612  0.04269  1.0000
  C   C1108     1.0  0.51733  0.61804  0.21055  1.0000
  H   H1324     1.0  0.50576  0.76386  0.02871  1.0000
  H   H1325     1.0  0.53761  0.61632  0.21258  1.0000
  H   H1326     1.0  0.92751  0.99664  0.20269  1.0000
  C   C1109     1.0  0.51622  0.71070  0.06175  1.0000
  C   C1110     1.0  0.53716  0.71936  0.05542  1.0000
  C   C1111     1.0  0.53316  0.73741  0.04326  1.0000
  C   C1112     1.0  0.50859  0.74871  0.03790  1.0000
  H   H1327     1.0  0.56126  0.58065  0.05082  1.0000
  H   H1328     1.0  0.51908  0.69575  0.07098  1.0000
  H   H1329     1.0  0.54896  0.74293  0.03805  1.0000
  H   H1330     1.0  0.74119  0.78985  0.22253  1.0000
  H   H1331     1.0  0.59686  0.65167  0.03546  1.0000
  N   N76       1.0  0.78828  0.81665  0.22202  1.0000
  H   H1332     1.0  0.58902  0.61006  0.18619  1.0000
  H   H1333     1.0  0.76945  0.70307  0.98611  1.0000
  H   H1334     1.0  0.56185  0.62857  0.05418  1.0000
  H   H1335     1.0  0.77234  0.86990  0.21607  1.0000
  C   C1113     1.0  0.77495  0.84225  0.21200  1.0000
  H   H1336     1.0  0.58205  0.59358  0.01736  1.0000
  Fe  Fe150     1.0  0.89303  0.93023  0.22996  1.0000
  H   H1337     1.0  0.74157  0.66792  0.99798  1.0000
  C   C1114     1.0  0.49660  0.64107  0.02988  1.0000
  C   C1115     1.0  0.79104  0.78018  0.21622  1.0000
  H   H1338     1.0  0.67683  0.54349  0.99723  1.0000
  H   H1339     1.0  0.56850  0.83095  0.01699  1.0000
  H   H1340     1.0  0.57591  0.55929  0.02943  1.0000
  H   H1341     1.0  0.81330  0.85845  0.22902  1.0000
  H   H1342     1.0  0.80668  0.52027  0.02801  1.0000
  H   H1343     1.0  0.53428  0.86800  0.01845  1.0000
  H   H1344     1.0  0.59035  0.60417  0.05242  1.0000
  C   C1116     1.0  0.94301  0.99245  0.21085  1.0000
  H   H1345     1.0  0.60240  0.58772  0.03211  1.0000
  C   C1117     1.0  0.52968  0.59393  0.01861  1.0000
  Fe  Fe151     1.0  0.83545  0.93589  0.22472  1.0000
  N   N77       1.0  0.56801  0.83614  0.03788  1.0000
  C   C1118     1.0  0.57929  0.87240  0.03741  1.0000
  C   C1119     1.0  0.58046  0.81610  0.04970  1.0000
  C   C1120     1.0  0.57392  0.81546  0.02632  1.0000
  C   C1121     1.0  0.54040  0.84097  0.03767  1.0000
  C   C1122     1.0  0.52566  0.85782  0.02668  1.0000
  C   C1123     1.0  0.52732  0.82901  0.04811  1.0000
  S   S303      1.0  0.76228  0.96416  0.98781  1.0000
  H   H1346     1.0  0.54141  0.57543  0.01373  1.0000
  H   H1347     1.0  0.80348  0.78061  0.20830  1.0000
  H   H1348     1.0  0.57487  0.88914  0.04578  1.0000
  H   H1349     1.0  0.60017  0.86982  0.03778  1.0000
  H   H1350     1.0  0.57247  0.88819  0.02830  1.0000
  H   H1351     1.0  0.57787  0.83093  0.05877  1.0000
  H   H1352     1.0  0.60112  0.81276  0.04950  1.0000
  H   H1353     1.0  0.57340  0.78809  0.05055  1.0000
  H   H1354     1.0  0.59442  0.80882  0.02662  1.0000
  H   H1355     1.0  0.56413  0.78927  0.02568  1.0000
  C   C1124     1.0  0.81396  0.83006  0.22543  1.0000
  H   H1356     1.0  0.57440  0.65855  0.02127  1.0000
  H   H1357     1.0  0.53674  0.81546  0.05682  1.0000
  H   H1358     1.0  0.49684  0.79045  0.22762  1.0000
  H   H1359     1.0  0.66653  0.52187  0.19740  1.0000
  H   H1360     1.0  0.65996  0.59706  0.22828  1.0000
  N   N78       1.0  0.66127  0.62950  0.16546  1.0000
  C   C1125     1.0  0.64747  0.61574  0.15333  1.0000
  C   C1126     1.0  0.67074  0.66569  0.16220  1.0000
  C   C1127     1.0  0.68300  0.60391  0.16939  1.0000
  C   C1128     1.0  0.64585  0.63251  0.17643  1.0000
  C   C1129     1.0  0.62116  0.61917  0.17589  1.0000
  C   C1130     1.0  0.65594  0.64763  0.18838  1.0000
  C   C1131     1.0  0.60760  0.62104  0.18667  1.0000
  C   C1132     1.0  0.64207  0.64985  0.19901  1.0000
  C   C1133     1.0  0.61805  0.63629  0.19820  1.0000
  H   H1361     1.0  0.63067  0.63363  0.14989  1.0000
  H   H1362     1.0  0.65951  0.61495  0.14520  1.0000
  H   H1363     1.0  0.64164  0.58725  0.15469  1.0000
  H   H1364     1.0  0.65499  0.68619  0.15975  1.0000
  H   H1365     1.0  0.68185  0.66434  0.15371  1.0000
  H   H1366     1.0  0.68364  0.67649  0.17031  1.0000
  H   H1367     1.0  0.67669  0.57672  0.17233  1.0000
  H   H1368     1.0  0.69476  0.59969  0.16133  1.0000
  H   H1369     1.0  0.69565  0.61401  0.17774  1.0000
  H   H1370     1.0  0.61204  0.60662  0.16734  1.0000
  H   H1371     1.0  0.67502  0.65680  0.18977  1.0000
  H   H1372     1.0  0.93920  0.96748  0.21652  1.0000
  H   H1373     1.0  0.65039  0.66099  0.20809  1.0000
  H   H1374     1.0  0.60771  0.63697  0.20662  1.0000
  C   C1134     1.0  0.50111  0.83275  0.04731  1.0000
  H   H1375     1.0  0.51722  0.65189  0.19319  1.0000
  N   N79       1.0  0.72285  0.79851  0.06533  1.0000
  C   C1135     1.0  0.72882  0.76436  0.05864  1.0000
  C   C1136     1.0  0.73599  0.79650  0.07881  1.0000
  C   C1137     1.0  0.69539  0.79998  0.06630  1.0000
  C   C1138     1.0  0.73128  0.83019  0.05809  1.0000
  C   C1139     1.0  0.75689  0.83219  0.05592  1.0000
  C   C1140     1.0  0.71457  0.85911  0.05267  1.0000
  C   C1141     1.0  0.76503  0.86054  0.04838  1.0000
  C   C1142     1.0  0.72300  0.88749  0.04526  1.0000
  C   C1143     1.0  0.74804  0.88791  0.04295  1.0000
  H   H1376     1.0  0.74935  0.75880  0.05878  1.0000
  H   H1377     1.0  0.72157  0.74002  0.06340  1.0000
  H   H1378     1.0  0.72034  0.76557  0.04826  1.0000
  H   H1379     1.0  0.75667  0.79220  0.07903  1.0000
  H   H1380     1.0  0.72954  0.77325  0.08456  1.0000
  H   H1381     1.0  0.73245  0.82200  0.08409  1.0000
  H   H1382     1.0  0.68432  0.79990  0.05649  1.0000
  H   H1383     1.0  0.68964  0.77595  0.07183  1.0000
  H   H1384     1.0  0.68957  0.82446  0.07156  1.0000
  H   H1385     1.0  0.77071  0.81138  0.05981  1.0000
  H   H1386     1.0  0.69469  0.85993  0.05359  1.0000
  H   H1387     1.0  0.78450  0.86098  0.04650  1.0000
  H   H1388     1.0  0.70979  0.90853  0.04080  1.0000
  H   H1389     1.0  0.75412  0.90917  0.03669  1.0000
  N   N80       1.0  0.56656  0.61482  0.03423  1.0000
  C   C1144     1.0  0.57005  0.60663  0.04850  1.0000
  C   C1145     1.0  0.58218  0.58749  0.02798  1.0000
  C   C1146     1.0  0.57651  0.65116  0.03187  1.0000
  C   C1147     1.0  0.53949  0.61537  0.02921  1.0000
  C   C1148     1.0  0.49160  0.72131  0.05626  1.0000
  C   C1149     1.0  0.52210  0.63888  0.03470  1.0000
  S   S304      1.0  0.86499  0.97839  0.22720  1.0000
  H   H1390     1.0  0.79943  0.75955  0.22369  1.0000
  C   C1150     1.0  0.50405  0.59611  0.01391  1.0000
  H   H1391     1.0  0.78569  0.84550  0.20346  1.0000
  H   H1392     1.0  0.82468  0.83102  0.21681  1.0000
  H   H1393     1.0  0.49134  0.82198  0.05508  1.0000
  C   C1151     1.0  0.74083  0.62251  0.98520  1.0000
  H   H1394     1.0  0.49690  0.57962  0.00581  1.0000
  H   H1395     1.0  0.77353  0.52270  0.02972  1.0000
  C   C1152     1.0  0.49945  0.86121  0.02597  1.0000
  H   H1396     1.0  0.49413  0.75813  0.09932  1.0000
  C   C1153     1.0  0.74835  0.65678  0.98933  1.0000
  H   H1397     1.0  0.48848  0.87327  0.01734  1.0000
  H   H1398     1.0  0.96055  0.98595  0.20649  1.0000
  H   H1399     1.0  0.48981  0.73228  0.08467  1.0000
  C   C1154     1.0  0.74935  0.79949  0.23184  1.0000
  H   H1400     1.0  0.88676  0.50457  0.14467  1.0000
  C   C1155     1.0  0.48771  0.74139  0.04449  1.0000
  C   C1156     1.0  0.48757  0.61968  0.01951  1.0000
  H   H1401     1.0  0.91751  0.00356  0.23091  1.0000
  C   C1157     1.0  0.76446  0.67672  0.98238  1.0000
  H   H1402     1.0  0.97768  0.68755  0.39717  1.0000
  H   H1403     1.0  0.77508  0.83465  0.26577  1.0000
  S   S305      1.0  0.80566  0.57630  0.46687  1.0000
  Fe  Fe152     1.0  0.86937  0.77791  0.41135  1.0000
  S   S306      1.0  0.84013  0.75239  0.39712  1.0000
  S   S307      1.0  0.90981  0.78554  0.40661  1.0000
  Fe  Fe153     1.0  0.82899  0.80719  0.42784  1.0000
  S   S308      1.0  0.79715  0.78492  0.41472  1.0000
  S   S309      1.0  0.82346  0.83454  0.44688  1.0000
  Fe  Fe154     1.0  0.82252  0.73445  0.41501  1.0000
  S   S310      1.0  0.80232  0.68124  0.41651  1.0000
  Fe  Fe155     1.0  0.81681  0.80438  0.39792  1.0000
  S   S311      1.0  0.79996  0.84044  0.38041  1.0000
  S   S312      1.0  0.85353  0.75565  0.42913  1.0000
  S   S313      1.0  0.84683  0.83113  0.41123  1.0000
  C   C1158     1.0  0.72085  0.86515  0.43570  1.0000
  C   C1159     1.0  0.86519  0.95177  0.45993  1.0000
  H   H1404     1.0  0.71125  0.73697  0.33312  1.0000
  S   S314      1.0  0.92970  0.93402  0.24349  1.0000
  S   S315      1.0  0.57093  0.57012  0.26059  1.0000
  H   H1405     1.0  0.74388  0.79646  0.46872  1.0000
  H   H1406     1.0  0.75042  0.82886  0.41154  1.0000
  S   S316      1.0  0.62818  0.55262  0.25465  1.0000
  C   C1160     1.0  0.95050  0.83710  0.43163  1.0000
  Fe  Fe156     1.0  0.60333  0.60344  0.25577  1.0000
  S   S317      1.0  0.60960  0.65263  0.26903  1.0000
  H   H1407     1.0  0.73912  0.98411  0.26128  1.0000
  H   H1408     1.0  0.67403  0.97012  0.26562  1.0000
  Fe  Fe157     1.0  0.70476  0.85839  0.31435  1.0000
  S   S318      1.0  0.66695  0.85609  0.30204  1.0000
  S   S319      1.0  0.71026  0.82828  0.33425  1.0000
  Fe  Fe158     1.0  0.72865  0.89274  0.29186  1.0000
  S   S320      1.0  0.69327  0.89185  0.27799  1.0000
  S   S321      1.0  0.76612  0.91323  0.28741  1.0000
  Fe  Fe159     1.0  0.67421  0.91328  0.29486  1.0000
  S   S322      1.0  0.64265  0.95769  0.28988  1.0000
  Fe  Fe160     1.0  0.68869  0.83528  0.28615  1.0000
  S   S323      1.0  0.68368  0.78618  0.27277  1.0000
  S   S324      1.0  0.71016  0.91696  0.30845  1.0000
  S   S325      1.0  0.72593  0.83497  0.29874  1.0000
  C   C1161     1.0  0.96478  0.73722  0.36851  1.0000
  C   C1162     1.0  0.77437  0.91680  0.27139  1.0000
  C   C1163     1.0  0.79911  0.92504  0.26954  1.0000
  C   C1164     1.0  0.80608  0.92969  0.25691  1.0000
  C   C1165     1.0  0.78816  0.92688  0.24604  1.0000
  C   C1166     1.0  0.76345  0.91836  0.24788  1.0000
  C   C1167     1.0  0.75664  0.91285  0.26050  1.0000
  H   H1409     1.0  0.81294  0.92801  0.27793  1.0000
  H   H1410     1.0  0.82515  0.93627  0.25559  1.0000
  H   H1411     1.0  0.80040  0.83952  0.24794  1.0000
  H   H1412     1.0  0.73768  0.90586  0.26180  1.0000
  C   C1168     1.0  0.98010  0.71734  0.37862  1.0000
  C   C1169     1.0  0.62945  0.69064  0.26915  1.0000
  C   C1170     1.0  0.62517  0.71991  0.27735  1.0000
  C   C1171     1.0  0.64104  0.74987  0.27830  1.0000
  C   C1172     1.0  0.66177  0.75063  0.27123  1.0000
  C   C1173     1.0  0.66592  0.72153  0.26295  1.0000
  C   C1174     1.0  0.64986  0.69178  0.26187  1.0000
  H   H1413     1.0  0.60946  0.71934  0.28304  1.0000
  H   H1414     1.0  0.63732  0.77216  0.28459  1.0000
  H   H1415     1.0  0.68184  0.72180  0.25740  1.0000
  H   H1416     1.0  0.65352  0.66949  0.25556  1.0000
  C   C1175     1.0  0.77639  0.83421  0.36707  1.0000
  C   C1176     1.0  0.77274  0.86103  0.35701  1.0000
  C   C1177     1.0  0.75314  0.85898  0.34668  1.0000
  C   C1178     1.0  0.73656  0.83040  0.34643  1.0000
  C   C1179     1.0  0.74021  0.80349  0.35649  1.0000
  C   C1180     1.0  0.76018  0.80509  0.36667  1.0000
  H   H1417     1.0  0.78514  0.88367  0.35720  1.0000
  H   H1418     1.0  0.75060  0.87992  0.33905  1.0000
  H   H1419     1.0  0.72746  0.78132  0.35644  1.0000
  H   H1420     1.0  0.76269  0.78427  0.37434  1.0000
  C   C1181     1.0  0.80195  0.87192  0.44738  1.0000
  C   C1182     1.0  0.79802  0.88640  0.45949  1.0000
  C   C1183     1.0  0.78108  0.91632  0.46023  1.0000
  C   C1184     1.0  0.76819  0.93222  0.44883  1.0000
  C   C1185     1.0  0.77245  0.91809  0.43672  1.0000
  C   C1186     1.0  0.78902  0.88773  0.43598  1.0000
  H   H1421     1.0  0.80809  0.87433  0.46834  1.0000
  H   H1422     1.0  0.77788  0.92683  0.46962  1.0000
  H   H1423     1.0  0.76286  0.93070  0.42788  1.0000
  H   H1424     1.0  0.79210  0.87687  0.42661  1.0000
  C   C1187     1.0  0.80428  0.60537  0.45281  1.0000
  C   C1188     1.0  0.82137  0.63352  0.45264  1.0000
  C   C1189     1.0  0.82082  0.65730  0.44169  1.0000
  C   C1190     1.0  0.80340  0.65276  0.43070  1.0000
  C   C1191     1.0  0.78622  0.62475  0.43092  1.0000
  C   C1192     1.0  0.78650  0.60134  0.44194  1.0000
  H   H1425     1.0  0.83521  0.63686  0.46098  1.0000
  H   H1426     1.0  0.83413  0.67874  0.44166  1.0000
  H   H1427     1.0  0.77272  0.62098  0.42246  1.0000
  H   H1428     1.0  0.77331  0.57972  0.44191  1.0000
  C   C1193     1.0  0.94784  0.89462  0.24977  1.0000
  C   C1194     1.0  0.93854  0.85960  0.24851  1.0000
  H   H1429     1.0  0.91999  0.85604  0.24343  1.0000
  C   C1195     1.0  0.94186  0.70834  0.38913  1.0000
  H   H1430     1.0  0.70338  0.54187  0.23657  1.0000
  C   C1196     1.0  0.96132  0.77917  0.40743  1.0000
  C   C1197     1.0  0.94009  0.76676  0.41281  1.0000
  C   C1198     1.0  0.94363  0.74012  0.42282  1.0000
  C   C1199     1.0  0.96807  0.72610  0.42734  1.0000
  C   C1200     1.0  0.69235  0.69322  0.31237  1.0000
  H   H1431     1.0  0.95877  0.79974  0.39968  1.0000
  H   H1432     1.0  0.92753  0.73025  0.42705  1.0000
  H   H1433     1.0  0.97055  0.70544  0.43506  1.0000
  C   C1201     1.0  0.67708  0.68249  0.30103  1.0000
  C   C1202     1.0  0.66383  0.65039  0.30087  1.0000
  C   C1203     1.0  0.68034  0.63744  0.32330  1.0000
  C   C1204     1.0  0.66547  0.62787  0.31198  1.0000
  H   H1434     1.0  0.73681  0.71203  0.32661  1.0000
  H   H1435     1.0  0.67498  0.69915  0.29221  1.0000
  H   H1436     1.0  0.65199  0.64321  0.29208  1.0000
  H   H1437     1.0  0.68144  0.61990  0.33195  1.0000
  H   H1438     1.0  0.65503  0.60310  0.31181  1.0000
  H   H1439     1.0  0.79451  0.99923  0.45854  1.0000
  Fe  Fe161     1.0  0.61236  0.55408  0.23341  1.0000
  H   H1440     1.0  0.90764  0.73434  0.37980  1.0000
  Fe  Fe162     1.0  0.74357  0.99958  0.46811  1.0000
  C   C1205     1.0  0.78506  0.75047  0.44992  1.0000
  H   H1441     1.0  0.98059  0.87959  0.29483  1.0000
  H   H1442     1.0  0.86531  0.89459  0.43438  1.0000
  C   C1206     1.0  0.71133  0.89779  0.42957  1.0000
  C   C1207     1.0  0.78988  0.75416  0.46335  1.0000
  C   C1208     1.0  0.83802  0.93831  0.43590  1.0000
  C   C1209     1.0  0.69485  0.51918  0.26772  1.0000
  H   H1443     1.0  0.54366  0.70043  0.24387  1.0000
  H   H1444     1.0  0.70444  0.67569  0.33271  1.0000
  C   C1210     1.0  0.76805  0.82441  0.25630  1.0000
  H   H1445     1.0  0.80051  0.77705  0.46714  1.0000
  N   N81       1.0  0.76138  0.66899  0.47624  1.0000
  H   H1446     1.0  0.73206  0.76032  0.32407  1.0000
  C   C1211     1.0  0.77208  0.72077  0.44488  1.0000
  H   H1447     1.0  0.74248  0.81534  0.43384  1.0000
  H   H1448     1.0  0.70959  0.73062  0.29169  1.0000
  H   H1449     1.0  0.72305  0.96055  0.28166  1.0000
  H   H1450     1.0  0.67328  0.75774  0.31829  1.0000
  H   H1451     1.0  0.76912  0.71741  0.43439  1.0000
  C   C1212     1.0  0.97722  0.83309  0.26067  1.0000
  H   H1452     1.0  0.67467  0.75849  0.30098  1.0000
  C   C1213     1.0  0.95310  0.82906  0.25400  1.0000
  C   C1214     1.0  0.78182  0.72798  0.47183  1.0000
  C   C1215     1.0  0.52165  0.74798  0.23607  1.0000
  C   C1216     1.0  0.96082  0.86236  0.42376  1.0000
  H   H1453     1.0  0.97171  0.68286  0.25176  1.0000
  C   C1217     1.0  0.78251  0.82693  0.24589  1.0000
  H   H1454     1.0  0.88981  0.90691  0.45552  1.0000
  H   H1455     1.0  0.71811  0.85953  0.44576  1.0000
  H   H1456     1.0  0.94554  0.80218  0.25309  1.0000
  H   H1457     1.0  0.72704  0.69780  0.47924  1.0000
  H   H1458     1.0  0.69508  0.78555  0.31126  1.0000
  S   S326      1.0  0.73437  0.54455  0.46364  1.0000
  H   H1459     1.0  0.93042  0.83290  0.43026  1.0000
  H   H1460     1.0  0.69915  0.52876  0.27756  1.0000
  C   C1218     1.0  0.68623  0.75867  0.31062  1.0000
  H   H1461     1.0  0.79866  0.64429  0.47797  1.0000
  C   C1219     1.0  0.69084  0.97848  0.26102  1.0000
  C   C1220     1.0  0.72102  0.72951  0.30142  1.0000
  H   H1462     1.0  0.73043  0.64794  0.46358  1.0000
  C   C1221     1.0  0.73456  0.84038  0.42899  1.0000
  H   H1463     1.0  0.79197  0.77023  0.44339  1.0000
  Fe  Fe163     1.0  0.77513  0.53842  0.47163  1.0000
  H   H1464     1.0  0.73425  0.70530  0.30176  1.0000
  N   N82       1.0  0.73642  0.89033  0.39645  1.0000
  C   C1222     1.0  0.73049  0.85969  0.38755  1.0000
  C   C1223     1.0  0.72295  0.92366  0.39034  1.0000
  C   C1224     1.0  0.76376  0.89633  0.39736  1.0000
  C   C1225     1.0  0.72979  0.88147  0.40965  1.0000
  C   C1226     1.0  0.71560  0.90598  0.41673  1.0000
  C   C1227     1.0  0.73900  0.84836  0.41618  1.0000
  S   S327      1.0  0.74649  0.96949  0.44932  1.0000
  H   H1465     1.0  0.73307  0.80819  0.26256  1.0000
  H   H1466     1.0  0.75634  0.85851  0.47491  1.0000
  H   H1467     1.0  0.74308  0.83514  0.39006  1.0000
  H   H1468     1.0  0.71072  0.85156  0.38765  1.0000
  H   H1469     1.0  0.73310  0.86690  0.37727  1.0000
  H   H1470     1.0  0.70220  0.92117  0.38966  1.0000
  H   H1471     1.0  0.72763  0.92865  0.38022  1.0000
  H   H1472     1.0  0.72834  0.94858  0.39580  1.0000
  H   H1473     1.0  0.77523  0.87167  0.40120  1.0000
  H   H1474     1.0  0.76978  0.90286  0.38762  1.0000
  H   H1475     1.0  0.76916  0.91904  0.40396  1.0000
  H   H1476     1.0  0.70829  0.93221  0.41277  1.0000
  H   H1477     1.0  0.70144  0.91759  0.43499  1.0000
  H   H1478     1.0  0.82738  0.93260  0.42663  1.0000
  H   H1479     1.0  0.75511  0.67124  0.44862  1.0000
  C   C1228     1.0  0.76409  0.69426  0.45325  1.0000
  C   C1229     1.0  0.74800  0.63835  0.46972  1.0000
  N   N83       1.0  0.70534  0.72815  0.31236  1.0000
  C   C1230     1.0  0.77364  0.81421  0.23331  1.0000
  C   C1231     1.0  0.73682  0.80887  0.47710  1.0000
  C   C1232     1.0  0.84283  0.97322  0.45605  1.0000
  Fe  Fe164     1.0  0.59446  0.51951  0.25765  1.0000
  H   H1480     1.0  0.97274  0.74881  0.36028  1.0000
  C   C1233     1.0  0.83191  0.98546  0.47776  1.0000
  C   C1234     1.0  0.87316  0.92378  0.45218  1.0000
  C   C1235     1.0  0.96610  0.81598  0.44084  1.0000
  H   H1481     1.0  0.81225  0.98041  0.43989  1.0000
  H   H1482     1.0  0.68464  0.99020  0.25109  1.0000
  C   C1236     1.0  0.82955  0.96588  0.44368  1.0000
  C   C1237     1.0  0.52588  0.71071  0.23872  1.0000
  H   H1483     1.0  0.95803  0.79545  0.44662  1.0000
  H   H1484     1.0  0.53630  0.76660  0.23920  1.0000
  C   C1238     1.0  0.98575  0.76520  0.41197  1.0000
  S   S328      1.0  0.58947  0.60683  0.23421  1.0000
  C   C1239     1.0  0.74435  0.80969  0.25451  1.0000
  C   C1240     1.0  0.69716  0.52668  0.24465  1.0000
  H   H1485     1.0  0.87651  0.95614  0.46908  1.0000
  H   H1486     1.0  0.76014  0.62306  0.46349  1.0000
  C   C1241     1.0  0.76876  0.69707  0.46704  1.0000
  H   H1487     1.0  0.73234  0.75437  0.30165  1.0000
  C   C1242     1.0  0.72207  0.73425  0.32459  1.0000
  C   C1243     1.0  0.69357  0.66968  0.32358  1.0000
  S   S329      1.0  0.70888  0.00031  0.47858  1.0000
  C   C1244     1.0  0.85949  0.91691  0.44023  1.0000
  C   C1245     1.0  0.97203  0.89867  0.25640  1.0000
  H   H1488     1.0  0.93289  0.69794  0.39728  1.0000
  H   H1489     1.0  0.92766  0.75906  0.36126  1.0000
  H   H1490     1.0  0.53345  0.51626  0.25206  1.0000
  H   H1491     1.0  0.71554  0.76333  0.48096  1.0000
  H   H1492     1.0  0.70193  0.95281  0.25969  1.0000
  C   C1246     1.0  0.74383  0.84391  0.48053  1.0000
  H   H1493     1.0  0.71387  0.56256  0.25909  1.0000
  S   S330      1.0  0.58027  0.51807  0.23639  1.0000
  C   C1247     1.0  0.71263  0.98714  0.28228  1.0000
  H   H1494     1.0  0.71649  0.78595  0.24098  1.0000
  H   H1495     1.0  0.97948  0.70770  0.23767  1.0000
  C   C1248     1.0  0.96776  0.70266  0.38893  1.0000
  H   H1496     1.0  0.74958  0.91578  0.23948  1.0000
  H   H1497     1.0  0.82525  0.81209  0.23292  1.0000
  C   C1249     1.0  0.92755  0.72891  0.37927  1.0000
  H   H1498     1.0  0.51070  0.65755  0.23671  1.0000
  C   C1250     1.0  0.70311  0.53833  0.25734  1.0000
  H   H1499     1.0  0.97945  0.92560  0.25736  1.0000
  H   H1500     1.0  0.94855  0.87791  0.41636  1.0000
  H   H1501     1.0  0.69553  0.98184  0.28709  1.0000
  C   C1251     1.0  0.93894  0.74308  0.36891  1.0000
  Fe  Fe165     1.0  0.55869  0.57057  0.23902  1.0000
  H   H1502     1.0  0.50693  0.98862  0.27885  1.0000
  H   H1503     1.0  0.81918  0.96211  0.47697  1.0000
  H   H1504     1.0  0.98056  0.72960  0.25286  1.0000
  C   C1252     1.0  0.73502  0.79724  0.24230  1.0000
  C   C1253     1.0  0.50727  0.68658  0.23468  1.0000
  S   S331      1.0  0.51641  0.57477  0.23285  1.0000
  H   H1505     1.0  0.96152  0.99376  0.23634  1.0000
  H   H1506     1.0  0.74240  0.61801  0.47690  1.0000
  N   N84       1.0  0.83428  0.00171  0.46470  1.0000
  C   C1254     1.0  0.98465  0.70301  0.24832  1.0000
  C   C1255     1.0  0.98674  0.86804  0.26175  1.0000
  C   C1256     1.0  0.98683  0.86671  0.42505  1.0000
  H   H1507     1.0  0.78653  0.73160  0.48217  1.0000
  C   C1257     1.0  0.72058  0.78999  0.48429  1.0000
  S   S332      1.0  0.89036  0.56320  0.70602  1.0000
  C   C1258     1.0  0.78877  0.72467  0.72207  1.0000
  H   H1508     1.0  0.69976  0.81747  0.52076  1.0000
  H   H1509     1.0  0.73831  0.66511  0.49192  1.0000
  C   C1259     1.0  0.78421  0.65336  0.48427  1.0000
  Fe  Fe166     1.0  0.85194  0.58364  0.70988  1.0000
  S   S333      1.0  0.82358  0.61493  0.69507  1.0000
  H   H1510     1.0  0.73084  0.54158  0.51194  1.0000
  C   C1260     1.0  0.49509  0.75916  0.53762  1.0000
  Fe  Fe167     1.0  0.79122  0.91415  0.66853  1.0000
  S   S334      1.0  0.74916  0.91547  0.66297  1.0000
  S   S335      1.0  0.81967  0.95883  0.66636  1.0000
  Fe  Fe168     1.0  0.79327  0.82916  0.67302  1.0000
  S   S336      1.0  0.75171  0.82494  0.66714  1.0000
  S   S337      1.0  0.82256  0.78638  0.68228  1.0000
  Fe  Fe169     1.0  0.75603  0.86595  0.65089  1.0000
  S   S338      1.0  0.74371  0.86986  0.62876  1.0000
  Fe  Fe170     1.0  0.74804  0.87447  0.67954  1.0000
  S   S339      1.0  0.72587  0.86989  0.69700  1.0000
  S   S340      1.0  0.79810  0.86618  0.65595  1.0000
  S   S341      1.0  0.78952  0.87709  0.68594  1.0000
  S   S342      1.0  0.62465  0.95776  0.70514  1.0000
  Fe  Fe171     1.0  0.64685  0.81310  0.53900  1.0000
  S   S343      1.0  0.68281  0.79106  0.55034  1.0000
  S   S344      1.0  0.64306  0.86057  0.52437  1.0000
  Fe  Fe172     1.0  0.61525  0.75251  0.54833  1.0000
  S   S345      1.0  0.64950  0.72520  0.55988  1.0000
  S   S346      1.0  0.57838  0.72458  0.55062  1.0000
  Fe  Fe173     1.0  0.65940  0.78130  0.56678  1.0000
  S   S347      1.0  0.66706  0.78364  0.58910  1.0000
  Fe  Fe174     1.0  0.67019  0.73672  0.54261  1.0000
  S   S348      1.0  0.70123  0.70055  0.53540  1.0000
  S   S349      1.0  0.62409  0.80800  0.55598  1.0000
  S   S350      1.0  0.63535  0.75931  0.53046  1.0000
  H   H1511     1.0  0.79345  0.90815  0.63013  1.0000
  Fe  Fe175     1.0  0.60758  0.94356  0.72356  1.0000
  S   S351      1.0  0.76783  0.53953  0.49272  1.0000
  H   H1512     1.0  0.54547  0.77107  0.70439  1.0000
  H   H1513     1.0  0.84126  0.54250  0.68697  1.0000
  S   S352      1.0  0.73432  0.95897  0.51454  1.0000
  C   C1261     1.0  0.66887  0.88704  0.52161  1.0000
  C   C1262     1.0  0.69046  0.88709  0.53062  1.0000
  C   C1263     1.0  0.71042  0.90918  0.52827  1.0000
  C   C1264     1.0  0.70911  0.93092  0.51683  1.0000
  C   C1265     1.0  0.68780  0.93014  0.50766  1.0000
  C   C1266     1.0  0.66759  0.90866  0.51013  1.0000
  H   H1514     1.0  0.69161  0.87072  0.53952  1.0000
  H   H1515     1.0  0.72692  0.90959  0.53539  1.0000
  H   H1516     1.0  0.68691  0.94617  0.49872  1.0000
  H   H1517     1.0  0.65092  0.90871  0.50313  1.0000
  C   C1267     1.0  0.69855  0.61397  0.50358  1.0000
  C   C1268     1.0  0.72122  0.62157  0.51100  1.0000
  C   C1269     1.0  0.72168  0.64841  0.52060  1.0000
  C   C1270     1.0  0.69954  0.66777  0.52295  1.0000
  C   C1271     1.0  0.67694  0.66049  0.51542  1.0000
  C   C1272     1.0  0.67651  0.63378  0.50578  1.0000
  H   H1518     1.0  0.73837  0.60678  0.50940  1.0000
  H   H1519     1.0  0.73924  0.65383  0.52640  1.0000
  H   H1520     1.0  0.65974  0.67500  0.51716  1.0000
  H   H1521     1.0  0.65887  0.62805  0.50010  1.0000
  C   C1273     1.0  0.72274  0.84468  0.61793  1.0000
  C   C1274     1.0  0.70740  0.81821  0.62237  1.0000
  C   C1275     1.0  0.69065  0.79977  0.61339  1.0000
  C   C1276     1.0  0.68911  0.80724  0.59987  1.0000
  C   C1277     1.0  0.70458  0.83352  0.59543  1.0000
  C   C1278     1.0  0.72118  0.85217  0.60441  1.0000
  H   H1522     1.0  0.70834  0.81210  0.63271  1.0000
  H   H1523     1.0  0.67886  0.77948  0.61698  1.0000
  H   H1524     1.0  0.70366  0.83966  0.58509  1.0000
  H   H1525     1.0  0.73293  0.87253  0.60083  1.0000
  C   C1279     1.0  0.69872  0.89698  0.69910  1.0000
  C   C1280     1.0  0.68511  0.91720  0.68881  1.0000
  C   C1281     1.0  0.66255  0.93620  0.69078  1.0000
  C   C1282     1.0  0.65341  0.93480  0.70299  1.0000
  C   C1283     1.0  0.66729  0.91513  0.71332  1.0000
  C   C1284     1.0  0.68995  0.89662  0.71140  1.0000
  H   H1526     1.0  0.69173  0.91772  0.67930  1.0000
  H   H1527     1.0  0.65196  0.95150  0.68275  1.0000
  H   H1528     1.0  0.54862  0.80443  0.72508  1.0000
  H   H1529     1.0  0.70072  0.88183  0.71947  1.0000
  C   C1285     1.0  0.73610  0.51917  0.51927  1.0000
  C   C1286     1.0  0.82319  0.66279  0.69187  1.0000
  C   C1287     1.0  0.80278  0.67964  0.68382  1.0000
  C   C1288     1.0  0.80213  0.71741  0.68078  1.0000
  C   C1289     1.0  0.82208  0.73867  0.68566  1.0000
  C   C1290     1.0  0.84239  0.72181  0.69376  1.0000
  C   C1291     1.0  0.84289  0.68419  0.69693  1.0000
  H   H1530     1.0  0.78747  0.66331  0.67983  1.0000
  H   H1531     1.0  0.78644  0.72992  0.67448  1.0000
  H   H1532     1.0  0.85798  0.73793  0.69755  1.0000
  H   H1533     1.0  0.85879  0.67163  0.70306  1.0000
  C   C1292     1.0  0.69693  0.74511  0.72099  1.0000
  C   C1293     1.0  0.50693  0.87215  0.71562  1.0000
  C   C1294     1.0  0.73452  0.86036  0.49112  1.0000
  H   H1534     1.0  0.81870  0.52918  0.65893  1.0000
  C   C1295     1.0  0.71042  0.59037  0.54788  1.0000
  C   C1296     1.0  0.52718  0.71603  0.54825  1.0000
  C   C1297     1.0  0.54653  0.73878  0.54539  1.0000
  C   C1298     1.0  0.53998  0.77195  0.53870  1.0000
  C   C1299     1.0  0.51444  0.78195  0.53480  1.0000
  C   C1300     1.0  0.71927  0.55927  0.54196  1.0000
  H   H1535     1.0  0.53201  0.69011  0.55328  1.0000
  H   H1536     1.0  0.55458  0.78974  0.53639  1.0000
  H   H1537     1.0  0.50965  0.80757  0.52955  1.0000
  C   C1301     1.0  0.71828  0.84175  0.49834  1.0000
  S   S353      1.0  0.86499  0.60141  0.73020  1.0000
  H   H1538     1.0  0.63444  0.77206  0.72689  1.0000
  Fe  Fe176     1.0  0.88049  0.50802  0.71359  1.0000
  H   H1539     1.0  0.69676  0.75801  0.71149  1.0000
  H   H1540     1.0  0.66831  0.83495  0.50209  1.0000
  H   H1541     1.0  0.77197  0.80681  0.69542  1.0000
  H   H1542     1.0  0.50983  0.81305  0.61822  1.0000
  Fe  Fe177     1.0  0.90296  0.57695  0.72694  1.0000
  H   H1543     1.0  0.77558  0.84942  0.71266  1.0000
  H   H1544     1.0  0.73976  0.88784  0.49374  1.0000
  H   H1545     1.0  0.83890  0.56511  0.66368  1.0000
  C   C1302     1.0  0.66791  0.81194  0.71579  1.0000
  H   H1546     1.0  0.67794  0.73463  0.50626  1.0000
  H   H1547     1.0  0.79316  0.67323  0.49114  1.0000
  C   C1303     1.0  0.77960  0.76037  0.72462  1.0000
  H   H1548     1.0  0.81840  0.92972  0.62329  1.0000
  C   C1304     1.0  0.67046  0.58743  0.53465  1.0000
  H   H1549     1.0  0.78011  0.62906  0.49020  1.0000
  C   C1305     1.0  0.51834  0.87064  0.70413  1.0000
  H   H1550     1.0  0.76290  0.98958  0.61150  1.0000
  H   H1551     1.0  0.71120  0.85609  0.50627  1.0000
  H   H1552     1.0  0.51418  0.85618  0.68384  1.0000
  H   H1553     1.0  0.71877  0.69897  0.71507  1.0000
  H   H1554     1.0  0.60352  0.70794  0.57812  1.0000
  C   C1306     1.0  0.76882  0.96655  0.63682  1.0000
  H   H1555     1.0  0.65407  0.79356  0.50585  1.0000
  H   H1556     1.0  0.70920  0.73257  0.50193  1.0000
  C   C1307     1.0  0.49314  0.80880  0.61150  1.0000
  H   H1557     1.0  0.61087  0.69007  0.59456  1.0000
  C   C1308     1.0  0.49494  0.80525  0.59815  1.0000
  C   C1309     1.0  0.65260  0.96528  0.53461  1.0000
  H   H1558     1.0  0.53736  0.87950  0.70408  1.0000
  H   H1559     1.0  0.73842  0.54974  0.54501  1.0000
  H   H1560     1.0  0.63051  0.72257  0.58785  1.0000
  C   C1310     1.0  0.70136  0.78935  0.51710  1.0000
  C   C1311     1.0  0.61060  0.71512  0.58828  1.0000
  H   H1561     1.0  0.65174  0.59911  0.53159  1.0000
  C   C1312     1.0  0.48837  0.75013  0.71408  1.0000
  H   H1562     1.0  0.72265  0.60427  0.55514  1.0000
  S   S354      1.0  0.77057  0.99058  0.48625  1.0000
  S   S355      1.0  0.59799  0.88657  0.72896  1.0000
  C   C1313     1.0  0.68605  0.60437  0.54425  1.0000
  C   C1314     1.0  0.81005  0.79537  0.71460  1.0000
  H   H1563     1.0  0.87782  0.55530  0.67686  1.0000
  H   H1564     1.0  0.68235  0.74361  0.48978  1.0000
  H   H1565     1.0  0.79325  0.66805  0.72829  1.0000
  C   C1315     1.0  0.70972  0.71107  0.72290  1.0000
  H   H1566     1.0  0.75705  0.94218  0.63566  1.0000
  C   C1316     1.0  0.67919  0.55656  0.52854  1.0000
  H   H1567     1.0  0.58209  0.79966  0.58698  1.0000
  H   H1568     1.0  0.61257  0.78677  0.58259  1.0000
  C   C1317     1.0  0.50165  0.72612  0.54443  1.0000
  H   H1569     1.0  0.66535  0.95208  0.54239  1.0000
  S   S356      1.0  0.69660  0.57998  0.49154  1.0000
  H   H1570     1.0  0.75199  0.82665  0.72000  1.0000
  H   H1571     1.0  0.82491  0.98496  0.61248  1.0000
  H   H1572     1.0  0.66061  0.91438  0.72281  1.0000
  C   C1318     1.0  0.69075  0.74785  0.49997  1.0000
  N   N85       1.0  0.59550  0.74537  0.59330  1.0000
  H   H1573     1.0  0.65635  0.83799  0.71476  1.0000
  C   C1319     1.0  0.83881  0.53594  0.66078  1.0000
  H   H1574     1.0  0.81889  0.77098  0.71052  1.0000
  C   C1320     1.0  0.49988  0.79918  0.57098  1.0000
  H   H1575     1.0  0.50831  0.73686  0.69739  1.0000
  C   C1321     1.0  0.59366  0.77646  0.58380  1.0000
  C   C1322     1.0  0.53044  0.76986  0.71053  1.0000
  H   H1576     1.0  0.62919  0.76463  0.60423  1.0000
  C   C1323     1.0  0.53433  0.72683  0.60774  1.0000
  H   H1577     1.0  0.79811  0.71931  0.71350  1.0000
  H   H1578     1.0  0.58515  0.76875  0.57392  1.0000
  N   N86       1.0  0.71403  0.50898  0.52575  1.0000
  S   S357      1.0  0.84095  0.52750  0.71606  1.0000
  H   H1579     1.0  0.76194  0.94076  0.61350  1.0000
  H   H1580     1.0  0.68647  0.81843  0.71266  1.0000
  H   H1581     1.0  0.62167  0.93246  0.53828  1.0000
  C   C1324     1.0  0.55488  0.71789  0.58436  1.0000
  C   C1325     1.0  0.60968  0.75726  0.60564  1.0000
  H   H1582     1.0  0.61154  0.73512  0.61327  1.0000
  Fe  Fe178     1.0  0.73628  0.99572  0.49679  1.0000
  H   H1583     1.0  0.49968  0.79699  0.56023  1.0000
  C   C1326     1.0  0.56986  0.73354  0.59490  1.0000
  C   C1327     1.0  0.53062  0.70656  0.58557  1.0000
  C   C1328     1.0  0.50515  0.85737  0.69267  1.0000
  H   H1584     1.0  0.72113  0.77883  0.51963  1.0000
  C   C1329     1.0  0.87862  0.52634  0.67380  1.0000
  C   C1330     1.0  0.62007  0.99721  0.51407  1.0000
  C   C1331     1.0  0.49111  0.76898  0.72605  1.0000
  H   H1585     1.0  0.68949  0.77297  0.52297  1.0000
  C   C1332     1.0  0.77268  0.82691  0.71970  1.0000
  H   H1586     1.0  0.56185  0.71420  0.57505  1.0000
  H   H1587     1.0  0.67950  0.62913  0.54859  1.0000
  H   H1588     1.0  0.74941  0.78088  0.70274  1.0000
  H   H1589     1.0  0.78209  0.83481  0.72935  1.0000
  H   H1590     1.0  0.77765  0.75924  0.69817  1.0000
  H   H1591     1.0  0.82065  0.50758  0.68161  1.0000
  H   H1592     1.0  0.75185  0.52841  0.52623  1.0000
  C   C1333     1.0  0.76989  0.78409  0.70247  1.0000
  C   C1334     1.0  0.61166  0.97029  0.52212  1.0000
  C   C1335     1.0  0.55870  0.73807  0.60665  1.0000
  H   H1593     1.0  0.84701  0.53399  0.65138  1.0000
  H   H1594     1.0  0.81542  0.93419  0.64027  1.0000
  N   N87       1.0  0.69322  0.78717  0.50288  1.0000
  H   H1595     1.0  0.75581  0.99098  0.63530  1.0000
  H   H1596     1.0  0.52624  0.73017  0.61682  1.0000
  H   H1597     1.0  0.65845  0.79280  0.70877  1.0000
  H   H1598     1.0  0.50784  0.82605  0.57350  1.0000
  N   N88       1.0  0.78289  0.79129  0.71559  1.0000
  H   H1599     1.0  0.60087  0.78221  0.60941  1.0000
  H   H1600     1.0  0.51979  0.69420  0.57737  1.0000
  H   H1601     1.0  0.50154  0.70211  0.59818  1.0000
  H   H1602     1.0  0.68095  0.99785  0.52859  1.0000
  H   H1603     1.0  0.51350  0.80669  0.59514  1.0000
  H   H1604     1.0  0.82065  0.80010  0.72429  1.0000
  C   C1336     1.0  0.66800  0.80544  0.49992  1.0000
  H   H1605     1.0  0.81329  0.81857  0.70792  1.0000
  H   H1606     1.0  0.75340  0.70740  0.49102  1.0000
  H   H1607     1.0  0.78762  0.95997  0.60675  1.0000
  H   H1608     1.0  0.66638  0.54576  0.52084  1.0000
  C   C1337     1.0  0.52035  0.71101  0.59724  1.0000
  C   C1338     1.0  0.68475  0.76134  0.73111  1.0000
  H   H1609     1.0  0.56846  0.74999  0.61518  1.0000
  Fe  Fe179     1.0  0.72712  0.54231  0.48470  1.0000
  H   H1610     1.0  0.51293  0.77689  0.57543  1.0000
  C   C1339     1.0  0.80456  0.93330  0.63041  1.0000
  C   C1340     1.0  0.70394  0.54138  0.53208  1.0000
  N   N89       1.0  0.67044  0.79683  0.72938  1.0000
  N   N90       1.0  0.85308  0.51180  0.67099  1.0000
  H   H1611     1.0  0.66069  0.80336  0.48944  1.0000
  H   H1612     1.0  0.77762  0.96543  0.64713  1.0000
  C   C1341     1.0  0.62795  0.95421  0.53232  1.0000
  C   C1342     1.0  0.84078  0.51437  0.68309  1.0000
  C   C1343     1.0  0.74435  0.68575  0.48499  1.0000
  H   H1613     1.0  0.59255  0.96129  0.52033  1.0000
  C   C1344     1.0  0.50893  0.75066  0.70656  1.0000
  S   S358      1.0  0.56972  0.96842  0.72658  1.0000
  S   S359      1.0  0.52277  0.88784  0.73042  1.0000
  H   H1614     1.0  0.68980  0.51330  0.50748  1.0000
  C   C1345     1.0  0.78612  0.69507  0.73050  1.0000
  C   C1346     1.0  0.66132  0.99181  0.52652  1.0000
  C   C1347     1.0  0.71105  0.80578  0.49528  1.0000
  H   H1615     1.0  0.88896  0.52567  0.66507  1.0000
  S   S360      1.0  0.94060  0.60463  0.73037  1.0000
  H   H1616     1.0  0.65869  0.99554  0.49234  1.0000
  H   H1617     1.0  0.88998  0.51076  0.68198  1.0000
  C   C1348     1.0  0.77463  0.96431  0.61425  1.0000
  N   N91       1.0  0.78811  0.96662  0.62760  1.0000
  C   C1349     1.0  0.51284  0.78776  0.72998  1.0000
  H   H1618     1.0  0.85021  0.97540  0.48300  1.0000
  H   H1619     1.0  0.50172  0.95194  0.70617  1.0000
  C   C1350     1.0  0.80367  0.99925  0.62858  1.0000
  C   C1351     1.0  0.53235  0.78846  0.72220  1.0000
  H   H1620     1.0  0.63335  0.81908  0.73171  1.0000
  H   H1621     1.0  0.69965  0.90191  0.93229  1.0000
  H   H1622     1.0  0.67307  0.85119  0.73696  1.0000
  H   H1623     1.0  0.95644  0.63120  0.77742  1.0000
  Fe  Fe180     1.0  0.85535  0.72310  0.90884  1.0000
  S   S361      1.0  0.82347  0.76499  0.90340  1.0000
  S   S362      1.0  0.89496  0.72880  0.90265  1.0000
  Fe  Fe181     1.0  0.82017  0.66947  0.91989  1.0000
  S   S363      1.0  0.78623  0.70681  0.91507  1.0000
  S   S364      1.0  0.82180  0.61700  0.93210  1.0000
  Fe  Fe182     1.0  0.80081  0.71734  0.89577  1.0000
  S   S365      1.0  0.77097  0.72559  0.87790  1.0000
  Fe  Fe183     1.0  0.81086  0.75146  0.92302  1.0000
  S   S366      1.0  0.79425  0.78267  0.93924  1.0000
  S   S367      1.0  0.83326  0.67635  0.90004  1.0000
  S   S368      1.0  0.84434  0.71319  0.92894  1.0000
  Fe  Fe184     1.0  0.74300  0.96606  0.96727  1.0000
  H   H1624     1.0  0.77128  0.61547  0.95847  1.0000
  S   S369      1.0  0.76315  0.94867  0.94991  1.0000
  H   H1625     1.0  0.64945  0.52059  0.92220  1.0000
  S   S370      1.0  0.70599  0.94640  0.97242  1.0000
  S   S371      1.0  0.57658  0.92379  0.75462  1.0000
  H   H1626     1.0  0.75539  0.73819  0.75307  1.0000
  C   C1352     1.0  0.97110  0.73045  0.91150  1.0000
  S   S372      1.0  0.62557  0.95734  0.74349  1.0000
  Fe  Fe185     1.0  0.61369  0.90129  0.74927  1.0000
  S   S373      1.0  0.64470  0.86452  0.76048  1.0000
  C   C1353     1.0  0.77428  0.70010  0.74168  1.0000
  H   H1627     1.0  0.82599  0.66633  0.76431  1.0000
  H   H1628     1.0  0.84021  0.62704  0.75733  1.0000
  Fe  Fe186     1.0  0.72050  0.63083  0.80804  1.0000
  S   S374      1.0  0.67848  0.62686  0.80747  1.0000
  S   S375      1.0  0.75084  0.63293  0.82574  1.0000
  Fe  Fe187     1.0  0.71832  0.61901  0.77872  1.0000
  S   S376      1.0  0.67644  0.61392  0.77611  1.0000
  S   S377      1.0  0.73724  0.62231  0.76020  1.0000
  Fe  Fe188     1.0  0.67555  0.66212  0.78911  1.0000
  S   S378      1.0  0.64184  0.70133  0.78305  1.0000
  Fe  Fe189     1.0  0.68169  0.57865  0.79436  1.0000
  C   C1354     1.0  0.76530  0.62780  0.96704  1.0000
  S   S379      1.0  0.71727  0.66973  0.79058  1.0000
  S   S380      1.0  0.72406  0.58007  0.79607  1.0000
  C   C1355     1.0  0.64317  0.81951  0.76697  1.0000
  C   C1356     1.0  0.62074  0.80091  0.76609  1.0000
  C   C1357     1.0  0.62069  0.76475  0.77104  1.0000
  C   C1358     1.0  0.64303  0.74664  0.77677  1.0000
  C   C1359     1.0  0.66548  0.76513  0.77753  1.0000
  C   C1360     1.0  0.66548  0.80143  0.77275  1.0000
  H   H1629     1.0  0.60343  0.81448  0.76170  1.0000
  H   H1630     1.0  0.60319  0.75079  0.77048  1.0000
  H   H1631     1.0  0.68276  0.75170  0.78202  1.0000
  H   H1632     1.0  0.68290  0.81565  0.77358  1.0000
  C   C1361     1.0  0.80783  0.55291  0.75472  1.0000
  C   C1362     1.0  0.79559  0.54746  0.76587  1.0000
  C   C1363     1.0  0.77341  0.56775  0.76750  1.0000
  C   C1364     1.0  0.76323  0.59328  0.75790  1.0000
  C   C1365     1.0  0.77475  0.59730  0.74644  1.0000
  C   C1366     1.0  0.79709  0.57739  0.74488  1.0000
  H   H1633     1.0  0.82406  0.65483  0.97352  1.0000
  H   H1634     1.0  0.76449  0.56414  0.77628  1.0000
  H   H1635     1.0  0.76658  0.61625  0.73881  1.0000
  C   C1367     1.0  0.76552  0.69906  0.86355  1.0000
  C   C1368     1.0  0.78148  0.66961  0.86104  1.0000
  C   C1369     1.0  0.77659  0.64982  0.84947  1.0000
  C   C1370     1.0  0.75562  0.65889  0.84025  1.0000
  C   C1371     1.0  0.73960  0.68828  0.84277  1.0000
  C   C1372     1.0  0.74458  0.70824  0.85431  1.0000
  H   H1636     1.0  0.79765  0.66211  0.86800  1.0000
  H   H1637     1.0  0.78915  0.62718  0.84767  1.0000
  H   H1638     1.0  0.72345  0.69575  0.83581  1.0000
  H   H1639     1.0  0.73209  0.73096  0.85608  1.0000
  C   C1373     1.0  0.78658  0.82932  0.94199  1.0000
  C   C1374     1.0  0.77654  0.83814  0.95359  1.0000
  C   C1375     1.0  0.76930  0.87443  0.95613  1.0000
  C   C1376     1.0  0.77202  0.90248  0.94708  1.0000
  C   C1377     1.0  0.78218  0.89373  0.93549  1.0000
  C   C1378     1.0  0.78941  0.85736  0.93294  1.0000
  H   H1640     1.0  0.77420  0.81675  0.96066  1.0000
  H   H1641     1.0  0.76158  0.88068  0.96509  1.0000
  H   H1642     1.0  0.78440  0.91520  0.92843  1.0000
  H   H1643     1.0  0.79714  0.85109  0.92399  1.0000
  C   C1379     1.0  0.75389  0.55429  0.94237  1.0000
  C   C1380     1.0  0.77812  0.54487  0.94832  1.0000
  C   C1381     1.0  0.79881  0.56375  0.94481  1.0000
  C   C1382     1.0  0.79543  0.59238  0.93542  1.0000
  C   C1383     1.0  0.77121  0.60158  0.92938  1.0000
  C   C1384     1.0  0.75054  0.58252  0.93283  1.0000
  C   C1385     1.0  0.80844  0.66160  0.81065  1.0000
  H   H1644     1.0  0.81751  0.55638  0.94948  1.0000
  H   H1645     1.0  0.76842  0.62338  0.92208  1.0000
  H   H1646     1.0  0.73186  0.58987  0.92815  1.0000
  C   C1386     1.0  0.96365  0.63206  0.76807  1.0000
  C   C1387     1.0  0.83509  0.64156  0.78946  1.0000
  C   C1388     1.0  0.94908  0.61888  0.75698  1.0000
  H   H1647     1.0  0.95544  0.76606  0.93967  1.0000
  H   H1648     1.0  0.97643  0.63129  0.81963  1.0000
  C   C1389     1.0  0.61272  0.52466  0.76350  1.0000
  H   H1649     1.0  0.80558  0.60214  0.78607  1.0000
  C   C1390     1.0  0.69977  0.70792  0.74506  1.0000
  C   C1391     1.0  0.94667  0.72405  0.90548  1.0000
  C   C1392     1.0  0.92525  0.73287  0.91165  1.0000
  C   C1393     1.0  0.92864  0.74736  0.92415  1.0000
  C   C1394     1.0  0.95312  0.75412  0.93013  1.0000
  C   C1395     1.0  0.95816  0.61998  0.74480  1.0000
  H   H1650     1.0  0.94422  0.71239  0.89591  1.0000
  H   H1651     1.0  0.91240  0.75436  0.92904  1.0000
  H   H1652     1.0  0.79416  0.99669  0.96940  1.0000
  N   N92       1.0  0.79094  0.68237  0.96345  1.0000
  C   C1396     1.0  0.72569  0.80724  0.88645  1.0000
  H   H1653     1.0  0.97584  0.83574  0.91704  1.0000
  C   C1397     1.0  0.68709  0.74201  0.74330  1.0000
  H   H1654     1.0  0.86734  0.68043  0.77536  1.0000
  H   H1655     1.0  0.78095  0.52305  0.95562  1.0000
  H   H1656     1.0  0.81173  0.63344  0.95883  1.0000
  H   H1657     1.0  0.88557  0.64625  0.78581  1.0000
  H   H1658     1.0  0.77612  0.66244  0.94461  1.0000
  H   H1659     1.0  0.68414  0.81592  0.74848  1.0000
  H   H1660     1.0  0.68941  0.90978  0.90838  1.0000
  H   H1661     1.0  0.73519  0.74320  0.89759  1.0000
  H   H1662     1.0  0.83946  0.57341  0.77923  1.0000
  H   H1663     1.0  0.72056  0.66579  0.73626  1.0000
  N   N93       1.0  0.73455  0.80142  0.90056  1.0000
  C   C1398     1.0  0.95439  0.77904  0.86394  1.0000
  C   C1399     1.0  0.97447  0.74629  0.92375  1.0000
  H   H1664     1.0  0.97592  0.65699  0.83993  1.0000
  C   C1400     1.0  0.87157  0.65064  0.77702  1.0000
  C   C1401     1.0  0.92298  0.81589  0.89755  1.0000
  C   C1402     1.0  0.68323  0.82397  0.73800  1.0000
  H   H1665     1.0  0.80622  0.58144  0.73618  1.0000
  C   C1403     1.0  0.77939  0.68836  0.94977  1.0000
  C   C1404     1.0  0.76738  0.76446  0.73606  1.0000
  H   H1666     1.0  0.80365  0.52821  0.77343  1.0000
  H   H1667     1.0  0.82357  0.99953  0.97926  1.0000
  H   H1668     1.0  0.98376  0.65566  0.80554  1.0000
  H   H1669     1.0  0.70487  0.80619  0.88451  1.0000
  C   C1405     1.0  0.70896  0.85974  0.90403  1.0000
  H   H1670     1.0  0.94228  0.75647  0.86641  1.0000
  C   C1406     1.0  0.61280  0.55903  0.76910  1.0000
  H   H1671     1.0  0.55672  0.55494  0.78180  1.0000
  N   N94       1.0  0.97251  0.78819  0.87531  1.0000
  C   C1407     1.0  0.70592  0.88136  0.92584  1.0000
  H   H1672     1.0  0.74064  0.80229  0.92738  1.0000
  H   H1673     1.0  0.98270  0.95530  0.73304  1.0000
  C   C1408     1.0  0.72000  0.85076  0.93105  1.0000
  H   H1674     1.0  0.70417  0.86511  0.89371  1.0000
  H   H1675     1.0  0.93086  0.60798  0.75781  1.0000
  C   C1409     1.0  0.74923  0.60812  0.97403  1.0000
  C   C1410     1.0  0.96027  0.80241  0.88643  1.0000
  H   H1676     1.0  0.76108  0.70397  0.94929  1.0000
  C   C1411     1.0  0.76226  0.80377  0.90224  1.0000
  C   C1412     1.0  0.96406  0.82776  0.90839  1.0000
  S   S381      1.0  0.65518  0.53261  0.79837  1.0000
  C   C1413     1.0  0.93807  0.82819  0.90835  1.0000
  H   H1677     1.0  0.70280  0.82765  0.73578  1.0000
  H   H1678     1.0  0.79182  0.70392  0.94395  1.0000
  H   H1679     1.0  0.70741  0.76144  0.90383  1.0000
  H   H1680     1.0  0.83643  0.70128  0.81480  1.0000
  C   C1414     1.0  0.72369  0.82837  0.90905  1.0000
  H   H1681     1.0  0.73367  0.78574  0.88043  1.0000
  H   H1682     1.0  0.86779  0.58476  0.78901  1.0000
  C   C1415     1.0  0.70029  0.88576  0.91237  1.0000
  H   H1683     1.0  0.81051  0.73273  0.96268  1.0000
  H   H1684     1.0  0.97468  0.68094  0.81889  1.0000
  C   C1416     1.0  0.81302  0.62385  0.79208  1.0000
  H   H1685     1.0  0.97904  0.84227  0.86823  1.0000
  C   C1417     1.0  0.98196  0.63417  0.74391  1.0000
  H   H1686     1.0  0.92963  0.83662  0.91690  1.0000
  N   N95       1.0  0.59330  0.60855  0.78164  1.0000
  C   C1418     1.0  0.56984  0.61948  0.78717  1.0000
  C   C1419     1.0  0.61425  0.60898  0.79235  1.0000
  C   C1420     1.0  0.59742  0.63667  0.77163  1.0000
  C   C1421     1.0  0.59268  0.57194  0.77580  1.0000
  H   H1687     1.0  0.92091  0.79268  0.87898  1.0000
  H   H1688     1.0  0.86654  0.58185  0.77154  1.0000
  H   H1689     1.0  0.56657  0.60107  0.79546  1.0000
  H   H1690     1.0  0.57080  0.64747  0.79117  1.0000
  H   H1691     1.0  0.55324  0.61964  0.77959  1.0000
  H   H1692     1.0  0.61221  0.58796  0.80006  1.0000
  H   H1693     1.0  0.61569  0.63617  0.79696  1.0000
  H   H1694     1.0  0.63269  0.60289  0.78886  1.0000
  H   H1695     1.0  0.58356  0.63493  0.76278  1.0000
  H   H1696     1.0  0.59589  0.66484  0.77539  1.0000
  H   H1697     1.0  0.61661  0.63426  0.76854  1.0000
  H   H1698     1.0  0.96423  0.76952  0.85562  1.0000
  C   C1422     1.0  0.71085  0.69234  0.73485  1.0000
  C   C1423     1.0  0.93377  0.80307  0.88673  1.0000
  H   H1699     1.0  0.74325  0.58154  0.97074  1.0000
  C   C1424     1.0  0.79996  0.63382  0.80250  1.0000
  C   C1425     1.0  0.81473  0.66030  0.96343  1.0000
  C   C1426     1.0  0.76490  0.73466  0.74443  1.0000
  C   C1427     1.0  0.79752  0.71869  0.96866  1.0000
  H   H1700     1.0  0.78309  0.61994  0.80430  1.0000
  H   H1701     1.0  0.73183  0.83363  0.88265  1.0000
  H   H1702     1.0  0.77066  0.79606  0.91234  1.0000
  H   H1703     1.0  0.73673  0.75523  0.91419  1.0000
  H   H1704     1.0  0.64447  0.78445  0.74332  1.0000
  C   C1428     1.0  0.98555  0.65613  0.81641  1.0000
  C   C1429     1.0  0.77354  0.66261  0.97099  1.0000
  H   H1705     1.0  0.94215  0.80323  0.86035  1.0000
  H   H1706     1.0  0.78056  0.73733  0.96844  1.0000
  N   N96       1.0  0.84839  0.63048  0.77826  1.0000
  H   H1707     1.0  0.76797  0.83196  0.90018  1.0000
  H   H1708     1.0  0.62913  0.57502  0.76845  1.0000
  C   C1430     1.0  0.84323  0.66995  0.79795  1.0000
  S   S382      1.0  0.72728  0.53190  0.94665  1.0000
  C   C1431     1.0  0.83001  0.67963  0.80839  1.0000
  H   H1709     1.0  0.77116  0.78519  0.89557  1.0000
  S   S383      1.0  0.83762  0.53158  0.75394  1.0000
  H   H1710     1.0  0.79816  0.66906  0.81874  1.0000
  H   H1711     1.0  0.72459  0.84767  0.94154  1.0000
  H   H1712     1.0  0.68272  0.52459  0.92659  1.0000
  H   H1713     1.0  0.98346  0.65933  0.86353  1.0000
  H   H1714     1.0  0.70101  0.69333  0.75441  1.0000
  H   H1715     1.0  0.90285  0.81452  0.89783  1.0000
  Fe  Fe190     1.0  0.56152  0.91241  0.73377  1.0000
  C   C1432     1.0  0.72812  0.76384  0.90424  1.0000
  C   C1433     1.0  0.72893  0.82474  0.92283  1.0000
  C   C1434     1.0  0.66810  0.50617  0.92218  1.0000
  C   C1435     1.0  0.57286  0.51347  0.77115  1.0000
  H   H1716     1.0  0.80725  0.71638  0.97879  1.0000
  H   H1717     1.0  0.51420  0.80332  0.73886  1.0000
  C   C1436     1.0  0.83140  0.63687  0.76595  1.0000
  S   S384      1.0  0.89569  0.52065  0.73428  1.0000
  H   H1718     1.0  0.85971  0.68509  0.79675  1.0000
  H   H1719     1.0  0.88102  0.64129  0.76852  1.0000
  H   H1720     1.0  0.81367  0.62226  0.76599  1.0000
  H   H1721     1.0  0.82825  0.67412  0.95773  1.0000
  Fe  Fe191     1.0  0.85674  0.54408  0.73605  1.0000
  Fe  Fe192     1.0  0.58706  0.97899  0.74707  1.0000
  H   H1722     1.0  0.98505  0.97017  0.74958  1.0000
  C   C1437     1.0  0.85587  0.59107  0.77961  1.0000
  C   C1438     1.0  0.64461  0.79280  0.73294  1.0000
  C   C1439     1.0  0.97506  0.81501  0.89764  1.0000
  H   H1723     1.0  0.67898  0.75298  0.75158  1.0000
  C   C1440     1.0  0.57265  0.54795  0.77672  1.0000
  H   H1724     1.0  0.97576  0.73305  0.88298  1.0000
  H   H1725     1.0  0.77205  0.67714  0.74819  1.0000
  H   H1726     1.0  0.62861  0.51511  0.75870  1.0000
  H   H1727     1.0  0.75957  0.79037  0.73876  1.0000
  H   H1728     1.0  0.98735  0.72345  0.90665  1.0000
