data_image0
_chemical_formula_structural       H2SCSHFe2CSFeCSFeH2S2NCHC6H4CHC3HC3H2NH6SH2C2H5SH4CH3NCHC3HNH4CH2C3HC3HC2HC2HCH3CH5C3H2CHCHCHCS2H2S2HCSFeSFeSHC7H7CH3C3H3NCH2CH3CH2C2FeH3CHCH4NC9H9CFeSNC2HSH9CFeS2FeS2Fe2CS2CSHFeS2FeSFeSH2CH3C2HFeHCHC6H4C4H10C7H4CHNHC8H6CH3NC6H2S2HCSH4CHCFeSHCNCH2CHCHC2HC2HC2FeC3H7NHCH3SHCHCHCH3CNHCH2C2H2CS2C2H4C2H3SHC2SHC2HC2HC2SHCHCHCHCFeSFeSFe2SFeS3CSFeS2C2FeSCSC10H4C2H2C6H9C7HCNC3H2CFeCH2CHC2H3C3HC2HNC9H16CHNCS2H2CSH2CH3CHCH2CHCSH2CHCH3CH4FeHSC2NH2SHCHCHC2H2SC2HC3H3FeC3H2C2H3CHFeSFeS5HSH2FeSFeHSCHSFeHNSH2CFeS2H3FeC4HSH2C9H6C6H4SC6H5CFeCH2NSH4CSHSH3CHC3HNHC8HNHC2H2CH3SH7CHC2H3CH4CHCHCSHC2HFeCH3C2HC2H2C2HCHCH2CHNH2CHC2HCH2CHC4H6CHFeSNCH3SHCFeSC2HFeSCHSFeSFeS4CFeSCSFeSCFeC6H4C6H4SHCHCH4FeHC3H5C6H5SHCHC3HCSHSC2HFeHSH2CH2C2H3NC7SCH7CH2C2H2NC7HSHSHFeHSH5CH3C2H3FeCSH2C2SHCH2NHCHFeS4FeSCH2SHCSFeSFeSH2SHFeSFeH2S2C6H5C2H2C4HC6H4C7H3CH2CHC2SC2SFeHSHCH2SCFeH2SNCHC3SCNC9H16FeH2SC2HCHCHCHSHCFeCHC4HCSHC2H2CFeSH2CH2C2H3SHSHFeSFeSH2SCFeSFeSH2S2FeSCSHFeSFeHC6H4C2HNHCHC2H3CH4C6H4C6H4FeH2C3H5C7NC2H2NHCHSCH2C6H2CH2SCHC4H2CHCHCH2C3FeH2SCH3NH2C3H4NHC8H3FeNHCSH8C2H4CHSH5NHCHCHC2HS3FeSFeS2FeS2FeSFeS2HNS3HFeC6HCH2FeHCFeCNH2C5H3C6H2CHC6H5CH5CH2C2HC2H4SHCH9CSH5C3HFeCFeC2HCSCH3CH2CHC2H4NC9H4CHC3HCSHCHSH2CH4S2CH5S2FeSFeS2FeS2FeSHSC3H2C6NH3C6H6C7H2CHC6H4C2HC2HC2HCHSHCHCH6CH2N2H9C4HC2HCSH4C2HSNHSFeSHC2SC3FeH2CH2FeN2HC2H3CHFeHSCHC3HC2FeH2C2HSH3CHCH3SH7CHCHFeH3SFeSFeSFeSH3SH2SH4C3H2C6H4C2HCH2CNC2HCSH4CH2CH4C4HNH2C2HCNH2CHFeC2H2C2HC2HCHCH2CH4CSHSFeSFeSH2CHSHCH2CH2CH2C6H4C2SCH3NC4H2CH7CH2CHCH5C3H2C2HCH4CHCN
_chemical_formula_sum              "H864 S192 C720 Fe96 N48"
_cell_length_a       54.2609
_cell_length_b       34.8215
_cell_length_c       51.2008
_cell_angle_alpha    89.4022
_cell_angle_beta     103.425
_cell_angle_gamma    90.5219

_space_group_name_H-M_alt    "P 1"
_space_group_IT_number       1

loop_
  _space_group_symop_operation_xyz
  'x, y, z'

loop_
  _atom_site_type_symbol
  _atom_site_label
  _atom_site_symmetry_multiplicity
  _atom_site_fract_x
  _atom_site_fract_y
  _atom_site_fract_z
  _atom_site_occupancy
  H   H1        1.0  0.22734  0.03973  0.28729  1.0000
  H   H2        1.0  0.03471  0.41968  0.45900  1.0000
  S   S1        1.0  0.14228  0.09953  0.35052  1.0000
  C   C1        1.0  0.06891  0.12004  0.42267  1.0000
  S   S2        1.0  0.03302  0.38956  0.36161  1.0000
  H   H3        1.0  0.07171  0.50334  0.44603  1.0000
  Fe  Fe1       1.0  0.14080  0.03451  0.34387  1.0000
  Fe  Fe2       1.0  0.06746  0.36161  0.38728  1.0000
  C   C2        1.0  0.12566  0.49980  0.43792  1.0000
  S   S3        1.0  0.09397  0.39425  0.42069  1.0000
  Fe  Fe3       1.0  0.05167  0.28059  0.36577  1.0000
  C   C3        1.0  0.03301  0.47753  0.40466  1.0000
  S   S4        1.0  0.05506  0.21499  0.36410  1.0000
  Fe  Fe4       1.0  0.03918  0.35099  0.32892  1.0000
  H   H4        1.0  0.27184  0.05014  0.28938  1.0000
  H   H5        1.0  0.26602  0.49869  0.45580  1.0000
  S   S5        1.0  0.07604  0.32697  0.35347  1.0000
  S   S6        1.0  0.04591  0.31323  0.40176  1.0000
  N   N1        1.0  0.02600  0.46570  0.42999  1.0000
  C   C4        1.0  0.06129  0.13176  0.29191  1.0000
  H   H6        1.0  0.05386  0.47750  0.40648  1.0000
  C   C5        1.0  0.11779  0.13109  0.35446  1.0000
  C   C6        1.0  0.12282  0.17082  0.35657  1.0000
  C   C7        1.0  0.10392  0.19700  0.35942  1.0000
  C   C8        1.0  0.07970  0.18368  0.36020  1.0000
  C   C9        1.0  0.07473  0.14392  0.35822  1.0000
  C   C10       1.0  0.09364  0.11773  0.35547  1.0000
  H   H7        1.0  0.14148  0.18144  0.35596  1.0000
  H   H8        1.0  0.10819  0.22739  0.36127  1.0000
  H   H9        1.0  0.05610  0.13327  0.35891  1.0000
  H   H10       1.0  0.08943  0.08732  0.35388  1.0000
  C   C11       1.0  0.03267  0.49667  0.45008  1.0000
  H   H11       1.0  0.04194  0.23717  0.23855  1.0000
  C   C12       1.0  0.05122  0.16884  0.28960  1.0000
  C   C13       1.0  0.14032  0.04515  0.45702  1.0000
  C   C14       1.0  0.27260  0.01835  0.25258  1.0000
  H   H12       1.0  0.15126  0.01786  0.45954  1.0000
  C   C15       1.0  0.10460  0.45734  0.39166  1.0000
  C   C16       1.0  0.10529  0.44127  0.41694  1.0000
  C   C17       1.0  0.11578  0.46267  0.44003  1.0000
  H   H13       1.0  0.09664  0.44106  0.37375  1.0000
  H   H14       1.0  0.11641  0.45036  0.45967  1.0000
  N   N2        1.0  0.05564  0.24074  0.28137  1.0000
  H   H15       1.0  0.14169  0.12218  0.43147  1.0000
  H   H16       1.0  0.05041  0.10784  0.29720  1.0000
  H   H17       1.0  0.15442  0.06902  0.46092  1.0000
  H   H18       1.0  0.25558  0.01866  0.02015  1.0000
  H   H19       1.0  0.11958  0.15152  0.28163  1.0000
  H   H20       1.0  0.33324  0.14328  0.40391  1.0000
  S   S7        1.0  0.31665  0.02901  0.35319  1.0000
  H   H21       1.0  0.11524  0.50582  0.36995  1.0000
  H   H22       1.0  0.33480  0.04600  0.27739  1.0000
  C   C18       1.0  0.04022  0.43060  0.44064  1.0000
  C   C19       1.0  0.11515  0.49401  0.38957  1.0000
  H   H23       1.0  0.22732  0.47220  0.45296  1.0000
  H   H24       1.0  0.09217  0.26795  0.29711  1.0000
  H   H25       1.0  0.02337  0.27441  0.28522  1.0000
  H   H26       1.0  0.04446  0.03096  0.13976  1.0000
  H   H27       1.0  0.04640  0.28547  0.25128  1.0000
  S   S8        1.0  0.03379  0.36705  0.28483  1.0000
  H   H28       1.0  0.10227  0.21636  0.27596  1.0000
  H   H29       1.0  0.09402  0.09716  0.29213  1.0000
  H   H30       1.0  0.12665  0.05312  0.38924  1.0000
  H   H31       1.0  0.33103  0.09170  0.40445  1.0000
  C   C20       1.0  0.13872  0.04786  0.40963  1.0000
  H   H32       1.0  0.26825  0.04659  0.36324  1.0000
  H   H33       1.0  0.29423  0.07322  0.22811  1.0000
  H   H34       1.0  0.33983  0.11734  0.43524  1.0000
  N   N3        1.0  0.29993  0.02273  0.25325  1.0000
  C   C21       1.0  0.06550  0.20097  0.28379  1.0000
  H   H35       1.0  0.07173  0.18171  0.42153  1.0000
  C   C22       1.0  0.07284  0.26588  0.30077  1.0000
  C   C23       1.0  0.04777  0.04138  0.22570  1.0000
  C   C24       1.0  0.07226  0.03012  0.23823  1.0000
  H   H36       1.0  0.07474  0.25505  0.32168  1.0000
  N   N4        1.0  0.12319  0.04813  0.42995  1.0000
  H   H37       1.0  0.03680  0.40705  0.42560  1.0000
  H   H38       1.0  0.04846  0.12024  0.41963  1.0000
  H   H39       1.0  0.06564  0.29587  0.29975  1.0000
  H   H40       1.0  0.29474  0.02920  0.21023  1.0000
  C   C25       1.0  0.08193  0.08521  0.42459  1.0000
  H   H41       1.0  0.22547  0.01741  0.34787  1.0000
  H   H42       1.0  0.07319  0.25745  0.24908  1.0000
  C   C26       1.0  0.10026  0.15639  0.28319  1.0000
  C   C27       1.0  0.08200  0.15480  0.42389  1.0000
  C   C28       1.0  0.10818  0.15498  0.42709  1.0000
  H   H43       1.0  0.06103  0.43577  0.44608  1.0000
  C   C29       1.0  0.30319  0.04444  0.22920  1.0000
  C   C30       1.0  0.08582  0.12561  0.28897  1.0000
  C   C31       1.0  0.21973  0.48587  0.43298  1.0000
  H   H44       1.0  0.08127  0.04079  0.25797  1.0000
  C   C32       1.0  0.12141  0.12039  0.42918  1.0000
  C   C33       1.0  0.10869  0.08436  0.42777  1.0000
  H   H45       1.0  0.30743  0.07326  0.27813  1.0000
  C   C34       1.0  0.09025  0.19347  0.28034  1.0000
  C   C35       1.0  0.34220  0.11690  0.41428  1.0000
  H   H46       1.0  0.11815  0.18216  0.42729  1.0000
  C   C36       1.0  0.05425  0.25577  0.25386  1.0000
  H   H47       1.0  0.02509  0.45767  0.38791  1.0000
  H   H48       1.0  0.07052  0.05945  0.42316  1.0000
  H   H49       1.0  0.03251  0.17165  0.29325  1.0000
  C   C37       1.0  0.02998  0.24402  0.28676  1.0000
  H   H50       1.0  0.32366  0.04892  0.22946  1.0000
  H   H51       1.0  0.23246  0.47922  0.41945  1.0000
  H   H52       1.0  0.02989  0.23410  0.30753  1.0000
  H   H53       1.0  0.15382  0.07024  0.41302  1.0000
  H   H54       1.0  0.20120  0.47141  0.42455  1.0000
  C   C38       1.0  0.26578  0.02152  0.35056  1.0000
  C   C39       1.0  0.31434  0.04343  0.27730  1.0000
  C   C40       1.0  0.03573  0.02602  0.20083  1.0000
  H   H55       1.0  0.02583  0.50675  0.39813  1.0000
  H   H56       1.0  0.03790  0.06146  0.23562  1.0000
  C   C41       1.0  0.23550  0.02839  0.27153  1.0000
  H   H57       1.0  0.12942  0.04599  0.47294  1.0000
  C   C42       1.0  0.05730  0.51338  0.45573  1.0000
  H   H58       1.0  0.31327  0.02800  0.29615  1.0000
  C   C43       1.0  0.26123  0.03413  0.27245  1.0000
  H   H59       1.0  0.14849  0.01990  0.40942  1.0000
  C   C44       1.0  0.03166  0.07388  0.81229  1.0000
  S   S9        1.0  0.03132  0.14963  0.85782  1.0000
  S   S10       1.0  0.09806  0.45570  0.81557  1.0000
  H   H60       1.0  0.02739  0.35414  0.91699  1.0000
  H   H61       1.0  0.03305  0.25617  0.94813  1.0000
  S   S11       1.0  0.15027  0.51364  0.79916  1.0000
  S   S12       1.0  0.07156  0.21655  0.84729  1.0000
  H   H62       1.0  0.12825  0.26334  0.87296  1.0000
  C   C45       1.0  0.29234  0.51003  0.84037  1.0000
  S   S13       1.0  0.05332  0.21435  0.90405  1.0000
  Fe  Fe5       1.0  0.05282  0.25703  0.87035  1.0000
  S   S14       1.0  0.06603  0.31766  0.88439  1.0000
  Fe  Fe6       1.0  0.06933  0.17266  0.87917  1.0000
  S   S15       1.0  0.10516  0.13788  0.89320  1.0000
  H   H63       1.0  0.17977  0.31612  0.83190  1.0000
  C   C46       1.0  0.30074  0.02346  0.97386  1.0000
  C   C47       1.0  0.09051  0.41702  0.83537  1.0000
  C   C48       1.0  0.09391  0.41960  0.86322  1.0000
  C   C49       1.0  0.08622  0.38899  0.87786  1.0000
  C   C50       1.0  0.07552  0.35520  0.86494  1.0000
  C   C51       1.0  0.07267  0.35231  0.83717  1.0000
  C   C52       1.0  0.07990  0.38321  0.82248  1.0000
  H   H64       1.0  0.10185  0.44552  0.87341  1.0000
  H   H65       1.0  0.08854  0.39152  0.89933  1.0000
  H   H66       1.0  0.06453  0.32651  0.82696  1.0000
  H   H67       1.0  0.07716  0.38087  0.80094  1.0000
  H   H68       1.0  0.03625  0.02705  0.97415  1.0000
  H   H69       1.0  0.14531  0.38247  0.88547  1.0000
  H   H70       1.0  0.30798  0.49074  0.62665  1.0000
  C   C53       1.0  0.06060  0.51243  0.55185  1.0000
  H   H71       1.0  0.03276  0.46775  0.74078  1.0000
  H   H72       1.0  0.26377  0.51411  0.60357  1.0000
  H   H73       1.0  0.12325  0.32445  0.89496  1.0000
  C   C54       1.0  0.12745  0.06893  0.91062  1.0000
  C   C55       1.0  0.10473  0.08975  0.90437  1.0000
  C   C56       1.0  0.08221  0.07174  0.90670  1.0000
  H   H74       1.0  0.14494  0.08276  0.90887  1.0000
  H   H75       1.0  0.06463  0.08754  0.90204  1.0000
  H   H76       1.0  0.02174  0.36042  0.94969  1.0000
  N   N5        1.0  0.05715  0.07334  0.80636  1.0000
  C   C57       1.0  0.04047  0.48671  0.55128  1.0000
  H   H77       1.0  0.06556  0.13304  0.81626  1.0000
  H   H78       1.0  0.02210  0.10192  0.80657  1.0000
  C   C58       1.0  0.05334  0.47141  0.74191  1.0000
  H   H79       1.0  0.26091  0.03017  0.95666  1.0000
  H   H80       1.0  0.26781  0.46249  0.84491  1.0000
  H   H81       1.0  0.30224  0.04982  0.98527  1.0000
  C   C59       1.0  0.26892  0.49311  0.84160  1.0000
  H   H82       1.0  0.04091  0.06318  0.76430  1.0000
  H   H83       1.0  0.06935  0.03965  0.85634  1.0000
  C   C60       1.0  0.07389  0.02223  0.84081  1.0000
  C   C61       1.0  0.07309  0.10375  0.82226  1.0000
  Fe  Fe7       1.0  0.03222  0.19614  0.82750  1.0000
  H   H84       1.0  0.03244  0.06949  0.83400  1.0000
  H   H85       1.0  0.09290  0.10287  0.81972  1.0000
  H   H86       1.0  0.07254  0.08436  0.77174  1.0000
  C   C62       1.0  0.03517  0.28753  0.94476  1.0000
  H   H87       1.0  0.15661  0.25986  0.84161  1.0000
  C   C63       1.0  0.12769  0.03025  0.91900  1.0000
  H   H88       1.0  0.06485  0.01913  0.91629  1.0000
  H   H89       1.0  0.01916  0.05109  0.80106  1.0000
  H   H90       1.0  0.06336  0.45464  0.75990  1.0000
  H   H91       1.0  0.07860  0.50211  0.54905  1.0000
  N   N6        1.0  0.17861  0.39085  0.85265  1.0000
  C   C64       1.0  0.19345  0.40744  0.87816  1.0000
  C   C65       1.0  0.19643  0.38481  0.83499  1.0000
  C   C66       1.0  0.15963  0.41936  0.83923  1.0000
  C   C67       1.0  0.16538  0.35535  0.85822  1.0000
  C   C68       1.0  0.16790  0.31956  0.84593  1.0000
  C   C69       1.0  0.14882  0.35614  0.87598  1.0000
  C   C70       1.0  0.15466  0.28683  0.85132  1.0000
  C   C71       1.0  0.13593  0.32315  0.88143  1.0000
  C   C72       1.0  0.13871  0.28863  0.86901  1.0000
  H   H92       1.0  0.20700  0.38613  0.88968  1.0000
  H   H93       1.0  0.20463  0.43317  0.87448  1.0000
  H   H94       1.0  0.18124  0.41749  0.89134  1.0000
  H   H95       1.0  0.21140  0.36376  0.84397  1.0000
  H   H96       1.0  0.20646  0.41197  0.83176  1.0000
  H   H97       1.0  0.18634  0.37508  0.81466  1.0000
  H   H98       1.0  0.16889  0.44588  0.83364  1.0000
  H   H99       1.0  0.14718  0.40757  0.82058  1.0000
  H   H100      1.0  0.14703  0.42848  0.85228  1.0000
  C   C73       1.0  0.08242  0.03304  0.91489  1.0000
  Fe  Fe8       1.0  0.12479  0.50693  0.82781  1.0000
  S   S16       1.0  0.02352  0.18320  0.78300  1.0000
  N   N7        1.0  0.06134  0.51235  0.74372  1.0000
  C   C74       1.0  0.06882  0.03527  0.81375  1.0000
  C   C75       1.0  0.05400  0.08349  0.77751  1.0000
  H   H101      1.0  0.09867  0.49710  0.76664  1.0000
  S   S17       1.0  0.21795  0.49317  0.84045  1.0000
  H   H102      1.0  0.04409  0.30048  0.96442  1.0000
  H   H103      1.0  0.05747  0.45777  0.72385  1.0000
  H   H104      1.0  0.09592  0.50007  0.73136  1.0000
  H   H105      1.0  0.07409  0.10109  0.84413  1.0000
  H   H106      1.0  0.04401  0.45693  0.54793  1.0000
  H   H107      1.0  0.04549  0.11250  0.77281  1.0000
  H   H108      1.0  0.07185  0.01713  0.77360  1.0000
  H   H109      1.0  0.30907  0.49250  0.84273  1.0000
  H   H110      1.0  0.04913  0.29127  0.93201  1.0000
  C   C76       1.0  0.08939  0.51336  0.74821  1.0000
  Fe  Fe9       1.0  0.14426  0.69352  0.44525  1.0000
  S   S18       1.0  0.15651  0.69238  0.49037  1.0000
  S   S19       1.0  0.12932  0.74259  0.41597  1.0000
  Fe  Fe10      1.0  0.14753  0.60510  0.44162  1.0000
  S   S20       1.0  0.16038  0.59706  0.48632  1.0000
  S   S21       1.0  0.14071  0.55982  0.40917  1.0000
  Fe  Fe11      1.0  0.13066  0.64102  0.48852  1.0000
  Fe  Fe12      1.0  0.18542  0.64855  0.48460  1.0000
  C   C77       1.0  0.23082  0.99149  0.23112  1.0000
  S   S22       1.0  0.11624  0.64513  0.44387  1.0000
  S   S23       1.0  0.17481  0.65347  0.43950  1.0000
  C   C78       1.0  0.31159  0.98432  0.25328  1.0000
  S   S24       1.0  0.07832  0.84887  0.18065  1.0000
  H   H111      1.0  0.20073  0.00114  0.25130  1.0000
  Fe  Fe13      1.0  0.14411  0.95367  0.36982  1.0000
  S   S25       1.0  0.14523  0.92430  0.33137  1.0000
  S   S26       1.0  0.14919  0.92322  0.41028  1.0000
  Fe  Fe14      1.0  0.11497  0.96598  0.31202  1.0000
  S   S27       1.0  0.07820  0.95120  0.28269  1.0000
  Fe  Fe15      1.0  0.17263  0.97133  0.32631  1.0000
  S   S28       1.0  0.11152  0.99218  0.35108  1.0000
  H   H112      1.0  0.07123  0.71451  0.05716  1.0000
  H   H113      1.0  0.20140  0.85456  0.02955  1.0000
  C   C79       1.0  0.28679  0.55014  0.46553  1.0000
  H   H114      1.0  0.18135  0.51882  0.44689  1.0000
  H   H115      1.0  0.06801  0.81452  0.45520  1.0000
  H   H116      1.0  0.13384  0.51589  0.45584  1.0000
  C   C80       1.0  0.24254  0.58053  0.51465  1.0000
  C   C81       1.0  0.28433  0.94470  0.08790  1.0000
  H   H117      1.0  0.05478  0.92881  0.16405  1.0000
  Fe  Fe16      1.0  0.02941  0.81266  0.08869  1.0000
  H   H118      1.0  0.03957  0.94341  0.13088  1.0000
  C   C82       1.0  0.07943  0.71708  0.03979  1.0000
  H   H119      1.0  0.25271  0.85925  0.36346  1.0000
  C   C83       1.0  0.07778  0.87628  0.20937  1.0000
  C   C84       1.0  0.05505  0.88902  0.21459  1.0000
  C   C85       1.0  0.05539  0.91166  0.23729  1.0000
  C   C86       1.0  0.07842  0.92141  0.25503  1.0000
  C   C87       1.0  0.10114  0.90843  0.24991  1.0000
  C   C88       1.0  0.10079  0.88598  0.22714  1.0000
  H   H120      1.0  0.03723  0.88108  0.20132  1.0000
  H   H121      1.0  0.03776  0.92158  0.24119  1.0000
  H   H122      1.0  0.11898  0.91583  0.26342  1.0000
  H   H123      1.0  0.11843  0.87607  0.22327  1.0000
  C   C89       1.0  0.06945  0.81282  0.04510  1.0000
  C   C90       1.0  0.08917  0.82289  0.06683  1.0000
  C   C91       1.0  0.11294  0.83370  0.06247  1.0000
  C   C92       1.0  0.11684  0.83568  0.03634  1.0000
  H   H124      1.0  0.25645  0.93268  0.30442  1.0000
  H   H125      1.0  0.19754  0.57294  0.40874  1.0000
  H   H126      1.0  0.08637  0.82118  0.08706  1.0000
  H   H127      1.0  0.12837  0.84029  0.07943  1.0000
  H   H128      1.0  0.23721  0.90441  0.35678  1.0000
  H   H129      1.0  0.10357  0.99408  0.23619  1.0000
  H   H130      1.0  0.29939  0.96144  0.32025  1.0000
  H   H131      1.0  0.09997  0.80889  0.49897  1.0000
  H   H132      1.0  0.12037  0.78189  0.48336  1.0000
  H   H133      1.0  0.18666  0.91365  0.04320  1.0000
  C   C93       1.0  0.28728  0.97996  0.02719  1.0000
  C   C94       1.0  0.13578  0.79261  0.41523  1.0000
  C   C95       1.0  0.12601  0.81312  0.39134  1.0000
  C   C96       1.0  0.13029  0.85289  0.38953  1.0000
  C   C97       1.0  0.14401  0.87286  0.41182  1.0000
  C   C98       1.0  0.15372  0.85245  0.43583  1.0000
  C   C99       1.0  0.14981  0.81241  0.43751  1.0000
  H   H134      1.0  0.11508  0.79810  0.37401  1.0000
  H   H135      1.0  0.12255  0.86817  0.37096  1.0000
  H   H136      1.0  0.16449  0.86759  0.45317  1.0000
  H   H137      1.0  0.15758  0.79698  0.45599  1.0000
  C   C100      1.0  0.07463  0.78579  0.45053  1.0000
  H   H138      1.0  0.17794  0.81306  0.38183  1.0000
  N   N8        1.0  0.21558  0.86068  0.37202  1.0000
  H   H139      1.0  0.03694  0.92950  0.05520  1.0000
  C   C101      1.0  0.19987  0.88983  0.38131  1.0000
  C   C102      1.0  0.21841  0.82668  0.39011  1.0000
  C   C103      1.0  0.24227  0.81425  0.40577  1.0000
  C   C104      1.0  0.19677  0.80508  0.39271  1.0000
  C   C105      1.0  0.24412  0.78216  0.42282  1.0000
  C   C106      1.0  0.19889  0.77286  0.40961  1.0000
  C   C107      1.0  0.22248  0.76152  0.42472  1.0000
  C   C108      1.0  0.08940  0.72330  0.46748  1.0000
  H   H140      1.0  0.29133  0.97405  0.08827  1.0000
  H   H141      1.0  0.07474  0.70923  0.45164  1.0000
  H   H142      1.0  0.20773  0.89735  0.40272  1.0000
  H   H143      1.0  0.19854  0.91681  0.36918  1.0000
  H   H144      1.0  0.18012  0.87965  0.37966  1.0000
  H   H145      1.0  0.25981  0.82886  0.40536  1.0000
  C   C109      1.0  0.26443  0.52956  0.45526  1.0000
  H   H146      1.0  0.26245  0.77325  0.43472  1.0000
  H   H147      1.0  0.08348  0.96629  0.19343  1.0000
  H   H148      1.0  0.22395  0.73676  0.43804  1.0000
  N   N9        1.0  0.22260  0.88832  0.06244  1.0000
  C   C110      1.0  0.21097  0.86943  0.08283  1.0000
  C   C111      1.0  0.20678  0.92210  0.05171  1.0000
  C   C112      1.0  0.22135  0.86147  0.03985  1.0000
  C   C113      1.0  0.24940  0.89820  0.07464  1.0000
  C   C114      1.0  0.26680  0.86902  0.08617  1.0000
  C   C115      1.0  0.25902  0.93644  0.07569  1.0000
  H   H149      1.0  0.18307  0.83902  0.34266  1.0000
  H   H150      1.0  0.04949  0.88732  0.04331  1.0000
  S   S29       1.0  0.20763  0.95254  0.31266  1.0000
  S   S30       1.0  0.17348  0.99820  0.36602  1.0000
  H   H151      1.0  0.21356  0.93649  0.03511  1.0000
  C   C116      1.0  0.07293  0.98788  0.20114  1.0000
  S   S31       1.0  0.04386  0.86753  0.10864  1.0000
  H   H152      1.0  0.22288  0.57259  0.50738  1.0000
  H   H153      1.0  0.13312  0.74853  0.02401  1.0000
  H   H154      1.0  0.02142  0.71240  0.20258  1.0000
  H   H155      1.0  0.30393  0.96821  0.23452  1.0000
  C   C117      1.0  0.20282  0.84934  0.34426  1.0000
  H   H156      1.0  0.19045  0.86314  0.07467  1.0000
  C   C118      1.0  0.28336  0.97370  0.32630  1.0000
  Fe  Fe17      1.0  0.35055  0.00195  0.06249  1.0000
  S   S32       1.0  0.14224  0.01072  0.30347  1.0000
  H   H157      1.0  0.03684  0.59679  0.22986  1.0000
  C   C119      1.0  0.06382  0.54368  0.47377  1.0000
  N   N10       1.0  0.21674  0.52799  0.43530  1.0000
  C   C120      1.0  0.19979  0.53415  0.45375  1.0000
  H   H158      1.0  0.05133  0.58165  0.50074  1.0000
  H   H159      1.0  0.08261  0.55658  0.47736  1.0000
  C   C121      1.0  0.29213  0.87761  0.09814  1.0000
  H   H160      1.0  0.23068  0.83366  0.04642  1.0000
  C   C122      1.0  0.02216  0.54114  0.48283  1.0000
  H   H161      1.0  0.20647  0.94340  0.06767  1.0000
  C   C123      1.0  0.25645  0.99746  0.23160  1.0000
  C   C124      1.0  0.24141  0.58944  0.44700  1.0000
  H   H162      1.0  0.11486  0.73935  0.06245  1.0000
  C   C125      1.0  0.23800  0.97303  0.32513  1.0000
  C   C126      1.0  0.02750  0.01388  0.14160  1.0000
  H   H163      1.0  0.33243  0.98653  0.25500  1.0000
  C   C127      1.0  0.20416  0.54287  0.40823  1.0000
  C   C128      1.0  0.04620  0.55778  0.48706  1.0000
  Fe  Fe18      1.0  0.04322  0.83835  0.14754  1.0000
  C   C129      1.0  0.08487  0.00377  0.22586  1.0000
  C   C130      1.0  0.28678  0.00608  0.34274  1.0000
  C   C131      1.0  0.28653  0.59008  0.46643  1.0000
  H   H164      1.0  0.26093  0.83927  0.08593  1.0000
  H   H165      1.0  0.05182  0.66139  0.22209  1.0000
  H   H166      1.0  0.21337  0.82609  0.33694  1.0000
  H   H167      1.0  0.20132  0.87398  0.32990  1.0000
  H   H168      1.0  0.09367  0.70350  0.48510  1.0000
  H   H169      1.0  0.25007  0.89073  0.39076  1.0000
  H   H170      1.0  0.10663  0.72545  0.45932  1.0000
  N   N11       1.0  0.08159  0.76147  0.47508  1.0000
  H   H171      1.0  0.23067  0.87412  0.02452  1.0000
  C   C132      1.0  0.03693  0.73902  0.47286  1.0000
  H   H172      1.0  0.21986  0.84144  0.08985  1.0000
  H   H173      1.0  0.09103  0.79025  0.44107  1.0000
  H   H174      1.0  0.21710  0.54194  0.39429  1.0000
  S   S33       1.0  0.14732  0.84650  0.03158  1.0000
  H   H175      1.0  0.26365  0.98507  0.21562  1.0000
  C   C133      1.0  0.30087  0.91541  0.09902  1.0000
  H   H176      1.0  0.05938  0.77261  0.43482  1.0000
  C   C134      1.0  0.05954  0.75696  0.48736  1.0000
  H   H177      1.0  0.18209  0.75669  0.41115  1.0000
  C   C135      1.0  0.10409  0.77935  0.49317  1.0000
  H   H178      1.0  0.24756  0.96055  0.06689  1.0000
  H   H179      1.0  0.11840  0.98640  0.42656  1.0000
  H   H180      1.0  0.21897  0.97459  0.21532  1.0000
  C   C136      1.0  0.25903  0.95735  0.31748  1.0000
  N   N12       1.0  0.03453  0.98242  0.16167  1.0000
  H   H181      1.0  0.03536  0.72872  0.45270  1.0000
  C   C137      1.0  0.24005  0.87935  0.37084  1.0000
  H   H182      1.0  0.26354  0.64067  0.45906  1.0000
  H   H183      1.0  0.30376  0.60576  0.47527  1.0000
  C   C138      1.0  0.04995  0.95446  0.15069  1.0000
  C   C139      1.0  0.24097  0.54872  0.44556  1.0000
  H   H184      1.0  0.31436  0.93450  0.03143  1.0000
  H   H185      1.0  0.21255  0.88805  0.10069  1.0000
  C   C140      1.0  0.07335  0.81490  0.01898  1.0000
  S   S34       1.0  0.03239  0.78086  0.12789  1.0000
  S   S35       1.0  0.09988  0.62899  0.51083  1.0000
  C   C141      1.0  0.22043  0.00665  0.25120  1.0000
  C   C142      1.0  0.26389  0.60969  0.45719  1.0000
  H   H186      1.0  0.32054  0.92208  0.10819  1.0000
  H   H187      1.0  0.22422  0.60596  0.44110  1.0000
  H   H188      1.0  0.30849  0.96637  0.27039  1.0000
  H   H189      1.0  0.06776  0.96770  0.14749  1.0000
  C   C143      1.0  0.29520  0.94315  0.02247  1.0000
  C   C144      1.0  0.24151  0.00499  0.34192  1.0000
  H   H190      1.0  0.20864  0.52378  0.47440  1.0000
  H   H191      1.0  0.09587  0.00963  0.44129  1.0000
  H   H192      1.0  0.30511  0.85488  0.10678  1.0000
  S   S36       1.0  0.03994  0.79674  0.04992  1.0000
  H   H193      1.0  0.09371  0.01347  0.40543  1.0000
  C   C145      1.0  0.03174  0.90309  0.04301  1.0000
  C   C146      1.0  0.05974  0.76959  0.51375  1.0000
  S   S37       1.0  0.22687  0.65636  0.50593  1.0000
  H   H194      1.0  0.19522  0.56499  0.45513  1.0000
  C   C147      1.0  0.04789  0.99862  0.18782  1.0000
  C   C148      1.0  0.02287  0.61827  0.22167  1.0000
  H   H195      1.0  0.11083  0.76173  0.51171  1.0000
  C   C149      1.0  0.10401  0.73114  0.04271  1.0000
  C   C150      1.0  0.11423  0.73648  0.02023  1.0000
  H   H196      1.0  0.18676  0.52604  0.39912  1.0000
  C   C151      1.0  0.10694  0.01307  0.42564  1.0000
  C   C152      1.0  0.03166  0.65514  0.21729  1.0000
  S   S38       1.0  0.30867  0.01410  0.04570  1.0000
  H   H197      1.0  0.30432  0.53502  0.47383  1.0000
  C   C153      1.0  0.12578  0.51534  0.41265  1.0000
  H   H198      1.0  0.02042  0.88430  0.05359  1.0000
  C   C154      1.0  0.26191  0.99027  0.01647  1.0000
  H   H199      1.0  0.01940  0.54156  0.20836  1.0000
  C   C155      1.0  0.09984  0.72798  0.99392  1.0000
  H   H200      1.0  0.25650  0.96765  0.93361  1.0000
  C   C156      1.0  0.26248  0.54889  0.67975  1.0000
  Fe  Fe19      1.0  0.15096  0.86334  0.98995  1.0000
  S   S39       1.0  0.12046  0.86464  0.95233  1.0000
  Fe  Fe20      1.0  0.19101  0.89236  0.96212  1.0000
  S   S40       1.0  0.16338  0.89657  0.92152  1.0000
  Fe  Fe21      1.0  0.02019  0.69539  0.65505  1.0000
  Fe  Fe22      1.0  0.13669  0.92205  0.94438  1.0000
  S   S41       1.0  0.10396  0.96328  0.93037  1.0000
  Fe  Fe23      1.0  0.14875  0.83900  0.93192  1.0000
  S   S42       1.0  0.13211  0.79569  0.89935  1.0000
  S   S43       1.0  0.16546  0.92255  0.98401  1.0000
  S   S44       1.0  0.17815  0.83272  0.97057  1.0000
  C   C157      1.0  0.05473  0.52934  0.76765  1.0000
  S   S45       1.0  0.07414  0.74662  0.59446  1.0000
  Fe  Fe24      1.0  0.14744  0.57964  0.85810  1.0000
  S   S46       1.0  0.17447  0.59059  0.83146  1.0000
  S   S47       1.0  0.15082  0.61599  0.89553  1.0000
  C   C158      1.0  0.29602  0.95328  0.94727  1.0000
  C   C159      1.0  0.25332  0.92857  0.99421  1.0000
  Fe  Fe25      1.0  0.14086  0.57612  0.79792  1.0000
  S   S48       1.0  0.13441  0.60636  0.75750  1.0000
  C   C160      1.0  0.08615  0.97420  0.80253  1.0000
  S   S49       1.0  0.11311  0.56934  0.82414  1.0000
  C   C161      1.0  0.02180  0.57442  0.67302  1.0000
  C   C162      1.0  0.11001  0.69218  0.54411  1.0000
  C   C163      1.0  0.24701  0.51557  0.83862  1.0000
  C   C164      1.0  0.03311  0.93728  0.00202  1.0000
  C   C165      1.0  0.05719  0.65434  0.71397  1.0000
  C   C166      1.0  0.06096  0.64089  0.74054  1.0000
  C   C167      1.0  0.08458  0.62628  0.75414  1.0000
  C   C168      1.0  0.10454  0.62477  0.74117  1.0000
  C   C169      1.0  0.10078  0.63815  0.71459  1.0000
  C   C170      1.0  0.07721  0.65305  0.70103  1.0000
  H   H201      1.0  0.04555  0.64200  0.75064  1.0000
  H   H202      1.0  0.08733  0.61644  0.77467  1.0000
  H   H203      1.0  0.11620  0.63722  0.70447  1.0000
  H   H204      1.0  0.07452  0.66352  0.68060  1.0000
  C   C171      1.0  0.07519  0.71234  0.99183  1.0000
  C   C172      1.0  0.32032  0.96427  0.96279  1.0000
  H   H205      1.0  0.05699  0.63640  0.53386  1.0000
  H   H206      1.0  0.06308  0.89502  0.00419  1.0000
  C   C173      1.0  0.13857  0.74613  0.89818  1.0000
  C   C174      1.0  0.16002  0.72922  0.91462  1.0000
  C   C175      1.0  0.16394  0.68939  0.91319  1.0000
  C   C176      1.0  0.14672  0.66634  0.89506  1.0000
  C   C177      1.0  0.12521  0.68329  0.87885  1.0000
  C   C178      1.0  0.12126  0.72300  0.88027  1.0000
  H   H207      1.0  0.17357  0.74674  0.92839  1.0000
  H   H208      1.0  0.18040  0.67633  0.92618  1.0000
  H   H209      1.0  0.11121  0.66548  0.86587  1.0000
  H   H210      1.0  0.10440  0.73576  0.86781  1.0000
  H   H211      1.0  0.33058  0.55865  0.66936  1.0000
  H   H212      1.0  0.31323  0.60932  0.54156  1.0000
  H   H213      1.0  0.03199  0.59569  0.56160  1.0000
  H   H214      1.0  0.29383  0.61117  0.61698  1.0000
  H   H215      1.0  0.30954  0.58768  0.59435  1.0000
  C   C179      1.0  0.09105  0.96253  0.82935  1.0000
  C   C180      1.0  0.34580  0.91847  0.99252  1.0000
  C   C181      1.0  0.10414  0.71788  0.56280  1.0000
  C   C182      1.0  0.08144  0.71387  0.57133  1.0000
  C   C183      1.0  0.06451  0.68435  0.56080  1.0000
  C   C184      1.0  0.07034  0.65880  0.54210  1.0000
  C   C185      1.0  0.10513  0.01217  0.92110  1.0000
  H   H216      1.0  0.04675  0.68146  0.56681  1.0000
  C   C186      1.0  0.28690  0.56216  0.53173  1.0000
  N   N13       1.0  0.34265  0.93884  0.96647  1.0000
  C   C187      1.0  0.09315  0.66242  0.53385  1.0000
  C   C188      1.0  0.09680  0.82711  0.01457  1.0000
  C   C189      1.0  0.29404  0.54966  0.83621  1.0000
  H   H217      1.0  0.08868  0.97729  0.86932  1.0000
  H   H218      1.0  0.12717  0.67870  0.97227  1.0000
  C   C190      1.0  0.02623  0.97544  0.99319  1.0000
  Fe  Fe26      1.0  0.03935  0.73034  0.60935  1.0000
  C   C191      1.0  0.07173  0.94628  0.98525  1.0000
  H   H219      1.0  0.12775  0.69498  0.53804  1.0000
  H   H220      1.0  0.07335  0.57131  0.55632  1.0000
  C   C192      1.0  0.06124  0.55198  0.70146  1.0000
  H   H221      1.0  0.14049  0.76173  0.95603  1.0000
  C   C193      1.0  0.04816  0.53333  0.71918  1.0000
  C   C194      1.0  0.05767  0.55149  0.55587  1.0000
  H   H222      1.0  0.22572  0.97339  0.99116  1.0000
  H   H223      1.0  0.28012  0.55290  0.72194  1.0000
  H   H224      1.0  0.33521  0.92337  0.92473  1.0000
  C   C195      1.0  0.03444  0.56517  0.55879  1.0000
  C   C196      1.0  0.27838  0.91776  0.00581  1.0000
  C   C197      1.0  0.29360  0.60104  0.53427  1.0000
  H   H225      1.0  0.07345  0.74122  0.94104  1.0000
  C   C198      1.0  0.30662  0.58703  0.61519  1.0000
  C   C199      1.0  0.03868  0.76413  0.52480  1.0000
  H   H226      1.0  0.05829  0.80657  0.00213  1.0000
  N   N14       1.0  0.14079  0.70765  0.80242  1.0000
  C   C200      1.0  0.13002  0.67457  0.81457  1.0000
  C   C201      1.0  0.16606  0.69585  0.79885  1.0000
  C   C202      1.0  0.14479  0.73999  0.82164  1.0000
  C   C203      1.0  0.12299  0.71934  0.77706  1.0000
  C   C204      1.0  0.12970  0.71974  0.75179  1.0000
  C   C205      1.0  0.09788  0.73052  0.77715  1.0000
  C   C206      1.0  0.11225  0.73062  0.72825  1.0000
  C   C207      1.0  0.08051  0.74076  0.75342  1.0000
  C   C208      1.0  0.08768  0.74083  0.72904  1.0000
  H   H227      1.0  0.11195  0.68161  0.81997  1.0000
  H   H228      1.0  0.12611  0.65012  0.80044  1.0000
  H   H229      1.0  0.14322  0.66413  0.83328  1.0000
  H   H230      1.0  0.16448  0.67064  0.78528  1.0000
  H   H231      1.0  0.17886  0.68688  0.81824  1.0000
  H   H232      1.0  0.17581  0.71972  0.79062  1.0000
  H   H233      1.0  0.12700  0.74876  0.82707  1.0000
  H   H234      1.0  0.15827  0.73231  0.84092  1.0000
  H   H235      1.0  0.15248  0.76574  0.81309  1.0000
  H   H236      1.0  0.14806  0.71082  0.74946  1.0000
  H   H237      1.0  0.09134  0.73083  0.79552  1.0000
  H   H238      1.0  0.11750  0.72981  0.70907  1.0000
  H   H239      1.0  0.06117  0.74794  0.75376  1.0000
  H   H240      1.0  0.07394  0.74778  0.71058  1.0000
  H   H241      1.0  0.23203  0.57276  0.83204  1.0000
  H   H242      1.0  0.24350  0.54660  0.68308  1.0000
  C   C209      1.0  0.24871  0.55515  0.83436  1.0000
  H   H243      1.0  0.09692  0.54325  0.75097  1.0000
  N   N15       1.0  0.10970  0.73432  0.96953  1.0000
  C   C210      1.0  0.27212  0.57206  0.83320  1.0000
  S   S50       1.0  0.32304  0.57254  0.83475  1.0000
  S   S51       1.0  0.15672  0.51645  0.86395  1.0000
  H   H244      1.0  0.33896  0.00889  0.99043  1.0000
  H   H245      1.0  0.28038  0.65947  0.52833  1.0000
  C   C211      1.0  0.26124  0.55205  0.52207  1.0000
  S   S52       1.0  0.02830  0.75668  0.64515  1.0000
  H   H246      1.0  0.09961  0.82864  0.99443  1.0000
  H   H247      1.0  0.27327  0.60271  0.83000  1.0000
  C   C212      1.0  0.24492  0.96461  0.00014  1.0000
  H   H248      1.0  0.05895  0.56066  0.76878  1.0000
  H   H249      1.0  0.29249  0.92589  0.93741  1.0000
  H   H250      1.0  0.08654  0.78436  0.95792  1.0000
  C   C213      1.0  0.27741  0.01230  0.95793  1.0000
  H   H251      1.0  0.28485  0.88972  0.00160  1.0000
  C   C214      1.0  0.27501  0.97715  0.94485  1.0000
  H   H252      1.0  0.11731  0.74064  0.57092  1.0000
  H   H253      1.0  0.09910  0.76473  0.93151  1.0000
  C   C215      1.0  0.09137  0.75704  0.94925  1.0000
  H   H254      1.0  0.32542  0.59316  0.62879  1.0000
  C   C216      1.0  0.07518  0.01000  0.79468  1.0000
  S   S53       1.0  0.23405  0.89734  0.97078  1.0000
  H   H255      1.0  0.09546  0.67996  0.95189  1.0000
  H   H256      1.0  0.08165  0.55262  0.70507  1.0000
  C   C217      1.0  0.29099  0.55093  0.64876  1.0000
  H   H257      1.0  0.03439  0.52555  0.76761  1.0000
  C   C218      1.0  0.05642  0.92350  0.99776  1.0000
  H   H258      1.0  0.33354  0.52506  0.63316  1.0000
  H   H259      1.0  0.34973  0.93891  0.00961  1.0000
  H   H260      1.0  0.09086  0.95532  0.78772  1.0000
  C   C219      1.0  0.11341  0.69667  0.95778  1.0000
  H   H261      1.0  0.25880  0.56549  0.59813  1.0000
  H   H262      1.0  0.12083  0.70010  0.93935  1.0000
  H   H263      1.0  0.14977  0.73852  0.98787  1.0000
  H   H264      1.0  0.06339  0.70415  0.97266  1.0000
  Fe  Fe27      1.0  0.18151  0.52709  0.83493  1.0000
  H   H265      1.0  0.02774  0.85865  0.00039  1.0000
  S   S54       1.0  0.03414  0.66914  0.62130  1.0000
  C   C220      1.0  0.28306  0.55254  0.70169  1.0000
  C   C221      1.0  0.13427  0.75542  0.97487  1.0000
  N   N16       1.0  0.29590  0.54967  0.62149  1.0000
  H   H266      1.0  0.09960  0.93485  0.83544  1.0000
  H   H267      1.0  0.27738  0.53962  0.58002  1.0000
  S   S55       1.0  0.02723  0.67232  0.69765  1.0000
  H   H268      1.0  0.32843  0.90191  0.99356  1.0000
  C   C222      1.0  0.24936  0.61940  0.51655  1.0000
  H   H269      1.0  0.05844  0.58691  0.66585  1.0000
  C   C223      1.0  0.02130  0.53579  0.71247  1.0000
  H   H270      1.0  0.32529  0.88765  0.94623  1.0000
  C   C224      1.0  0.34002  0.90962  0.94500  1.0000
  C   C225      1.0  0.31443  0.51899  0.62025  1.0000
  H   H271      1.0  0.03945  0.77327  0.54519  1.0000
  H   H272      1.0  0.13286  0.78359  0.98451  1.0000
  S   S56       1.0  0.30985  0.52538  0.54065  1.0000
  C   C226      1.0  0.26624  0.54813  0.65360  1.0000
  C   C227      1.0  0.27282  0.54188  0.60004  1.0000
  H   H273      1.0  0.25586  0.52204  0.52022  1.0000
  C   C228      1.0  0.04810  0.57192  0.67866  1.0000
  C   C229      1.0  0.27492  0.62946  0.52670  1.0000
  C   C230      1.0  0.08489  0.98648  0.84844  1.0000
  H   H274      1.0  0.07608  0.78294  0.52664  1.0000
  H   H275      1.0  0.08936  0.93510  0.98192  1.0000
  H   H276      1.0  0.24946  0.54537  0.63758  1.0000
  Fe  Fe28      1.0  0.35117  0.53808  0.56108  1.0000
  C   C231      1.0  0.32182  0.99970  0.97659  1.0000
  C   C232      1.0  0.30746  0.55589  0.69758  1.0000
  C   C233      1.0  0.31138  0.55545  0.67155  1.0000
  H   H277      1.0  0.32350  0.55878  0.71465  1.0000
  H   H278      1.0  0.06556  0.51587  0.78667  1.0000
  C   C234      1.0  0.06445  0.98347  0.97685  1.0000
  C   C235      1.0  0.04178  0.99802  0.98079  1.0000
  H   H279      1.0  0.31732  0.51571  0.59954  1.0000
  H   H280      1.0  0.07646  0.00102  0.96722  1.0000
  H   H281      1.0  0.14524  0.01441  0.92361  1.0000
  C   C236      1.0  0.06512  0.70744  0.01444  1.0000
  H   H282      1.0  0.04592  0.69677  0.01234  1.0000
  Fe  Fe29      1.0  0.49770  0.24593  0.45727  1.0000
  S   S57       1.0  0.48481  0.22291  0.41494  1.0000
  Fe  Fe30      1.0  0.53469  0.30222  0.49148  1.0000
  S   S58       1.0  0.56429  0.34930  0.49570  1.0000
  S   S59       1.0  0.53745  0.23937  0.48260  1.0000
  S   S60       1.0  0.49689  0.30968  0.46317  1.0000
  S   S61       1.0  0.37596  0.05485  0.32919  1.0000
  S   S62       1.0  0.44532  0.33045  0.49938  1.0000
  H   H283      1.0  0.37858  0.07999  0.44933  1.0000
  S   S63       1.0  0.43446  0.05813  0.39580  1.0000
  H   H284      1.0  0.41886  0.22575  0.41065  1.0000
  H   H285      1.0  0.54569  0.49966  0.37396  1.0000
  Fe  Fe31      1.0  0.65676  0.47416  0.12484  1.0000
  S   S64       1.0  0.64654  0.42980  0.09180  1.0000
  Fe  Fe32      1.0  0.40910  0.03062  0.35919  1.0000
  H   H286      1.0  0.43809  0.12705  0.20894  1.0000
  S   S65       1.0  0.52806  0.23448  0.03347  1.0000
  C   C237      1.0  0.53687  0.43651  0.03560  1.0000
  H   H287      1.0  0.64774  0.43290  0.27242  1.0000
  S   S66       1.0  0.54109  0.34008  0.06374  1.0000
  Fe  Fe33      1.0  0.53082  0.29869  0.02882  1.0000
  H   H288      1.0  0.51795  0.39665  0.48770  1.0000
  N   N17       1.0  0.43816  0.07258  0.17054  1.0000
  S   S67       1.0  0.42965  0.09132  0.08851  1.0000
  H   H289      1.0  0.55830  0.08476  0.49697  1.0000
  H   H290      1.0  0.35894  0.08241  0.37619  1.0000
  C   C238      1.0  0.38303  0.14957  0.42476  1.0000
  Fe  Fe34      1.0  0.64393  0.44992  0.40782  1.0000
  S   S68       1.0  0.65627  0.48188  0.44632  1.0000
  S   S69       1.0  0.62296  0.39284  0.40538  1.0000
  H   H291      1.0  0.58613  0.47374  0.49089  1.0000
  H   H292      1.0  0.36780  0.05492  0.20158  1.0000
  H   H293      1.0  0.52125  0.42056  0.04055  1.0000
  Fe  Fe35      1.0  0.40340  0.03932  0.07999  1.0000
  C   C239      1.0  0.42265  0.12032  0.03663  1.0000
  C   C240      1.0  0.43724  0.12080  0.06301  1.0000
  C   C241      1.0  0.45790  0.14639  0.06969  1.0000
  C   C242      1.0  0.46392  0.17139  0.05021  1.0000
  H   H294      1.0  0.65275  0.46259  0.31735  1.0000
  S   S70       1.0  0.47873  0.23237  0.49072  1.0000
  H   H295      1.0  0.46926  0.14703  0.09006  1.0000
  H   H296      1.0  0.47975  0.19113  0.05564  1.0000
  C   C243      1.0  0.65643  0.47938  0.30075  1.0000
  C   C244      1.0  0.51039  0.06139  0.47755  1.0000
  C   C245      1.0  0.44001  0.06626  0.19959  1.0000
  C   C246      1.0  0.61674  0.40620  0.08349  1.0000
  C   C247      1.0  0.59772  0.41408  0.09694  1.0000
  C   C248      1.0  0.57470  0.39350  0.09077  1.0000
  C   C249      1.0  0.57027  0.36542  0.07069  1.0000
  C   C250      1.0  0.58906  0.35816  0.05677  1.0000
  C   C251      1.0  0.61224  0.37838  0.06324  1.0000
  H   H297      1.0  0.60078  0.43583  0.11218  1.0000
  H   H298      1.0  0.56020  0.39936  0.10151  1.0000
  H   H299      1.0  0.58592  0.33657  0.04134  1.0000
  H   H300      1.0  0.62682  0.37221  0.05266  1.0000
  H   H301      1.0  0.60902  0.49265  0.08462  1.0000
  H   H302      1.0  0.59537  0.41235  0.15347  1.0000
  C   C252      1.0  0.46772  0.17934  0.40883  1.0000
  C   C253      1.0  0.46189  0.16388  0.38286  1.0000
  C   C254      1.0  0.45025  0.12748  0.37807  1.0000
  C   C255      1.0  0.44482  0.10627  0.39939  1.0000
  C   C256      1.0  0.44977  0.12240  0.42508  1.0000
  C   C257      1.0  0.46078  0.15908  0.42969  1.0000
  H   H303      1.0  0.46705  0.17963  0.36657  1.0000
  H   H304      1.0  0.44664  0.11516  0.35822  1.0000
  H   H305      1.0  0.44535  0.10622  0.44157  1.0000
  H   H306      1.0  0.46449  0.17138  0.44949  1.0000
  S   S71       1.0  0.62867  0.49562  0.14696  1.0000
  C   C258      1.0  0.58101  0.35941  0.47068  1.0000
  C   C259      1.0  0.59836  0.39006  0.47469  1.0000
  C   C260      1.0  0.61150  0.40014  0.45500  1.0000
  C   C261      1.0  0.60763  0.37944  0.43112  1.0000
  C   C262      1.0  0.59054  0.34829  0.42725  1.0000
  C   C263      1.0  0.57709  0.33845  0.44688  1.0000
  H   H307      1.0  0.60182  0.40595  0.49324  1.0000
  H   H308      1.0  0.62477  0.42376  0.45848  1.0000
  H   H309      1.0  0.58744  0.33202  0.40886  1.0000
  H   H310      1.0  0.56379  0.31466  0.44363  1.0000
  H   H311      1.0  0.53174  0.15022  0.46141  1.0000
  C   C264      1.0  0.60419  0.40047  0.17365  1.0000
  Fe  Fe36      1.0  0.48055  0.29596  0.49863  1.0000
  C   C265      1.0  0.57855  0.47492  0.02423  1.0000
  H   H312      1.0  0.45589  0.01982  0.16291  1.0000
  H   H313      1.0  0.39761  0.07750  0.16237  1.0000
  N   N18       1.0  0.54867  0.47028  0.41180  1.0000
  S   S72       1.0  0.68061  0.46059  0.39498  1.0000
  H   H314      1.0  0.48113  0.11973  0.47911  1.0000
  H   H315      1.0  0.67673  0.29162  0.03275  1.0000
  H   H316      1.0  0.39773  0.19904  0.48429  1.0000
  H   H317      1.0  0.55644  0.40941  0.41442  1.0000
  C   C266      1.0  0.65359  0.46264  0.27524  1.0000
  S   S73       1.0  0.62401  0.50025  0.38457  1.0000
  H   H318      1.0  0.57848  0.32934  0.17118  1.0000
  S   S74       1.0  0.65384  0.46201  0.22153  1.0000
  H   H319      1.0  0.63975  0.40278  0.14500  1.0000
  H   H320      1.0  0.65360  0.41009  0.17981  1.0000
  H   H321      1.0  0.40114  0.07837  0.42878  1.0000
  C   C267      1.0  0.64489  0.38802  0.16488  1.0000
  H   H322      1.0  0.48793  0.39231  0.49577  1.0000
  C   C268      1.0  0.36964  0.10879  0.38439  1.0000
  C   C269      1.0  0.51224  0.03512  0.49935  1.0000
  C   C270      1.0  0.54402  0.43078  0.42099  1.0000
  H   H323      1.0  0.55217  0.44933  0.37339  1.0000
  N   N19       1.0  0.62244  0.36959  0.17187  1.0000
  H   H324      1.0  0.48143  0.51263  0.44768  1.0000
  C   C271      1.0  0.44325  0.02431  0.23913  1.0000
  C   C272      1.0  0.63104  0.35151  0.19875  1.0000
  C   C273      1.0  0.61004  0.34034  0.15223  1.0000
  C   C274      1.0  0.58707  0.32246  0.15479  1.0000
  C   C275      1.0  0.62005  0.32885  0.13019  1.0000
  C   C276      1.0  0.57443  0.29594  0.13592  1.0000
  C   C277      1.0  0.60742  0.30185  0.11168  1.0000
  C   C278      1.0  0.58453  0.28582  0.11433  1.0000
  H   H325      1.0  0.54804  0.42890  0.44331  1.0000
  N   N20       1.0  0.51946  0.10159  0.48216  1.0000
  H   H326      1.0  0.41950  0.24146  0.45772  1.0000
  C   C279      1.0  0.40869  0.20745  0.42196  1.0000
  C   C280      1.0  0.54402  0.10385  0.50236  1.0000
  H   H327      1.0  0.56824  0.51107  0.09696  1.0000
  H   H328      1.0  0.58246  0.48174  0.44257  1.0000
  C   C281      1.0  0.44061  0.09279  0.24405  1.0000
  H   H329      1.0  0.36075  0.13314  0.37146  1.0000
  H   H330      1.0  0.53617  0.10399  0.44779  1.0000
  H   H331      1.0  0.63721  0.34106  0.12624  1.0000
  S   S75       1.0  0.37839  0.03408  0.25726  1.0000
  H   H332      1.0  0.61493  0.29440  0.09454  1.0000
  H   H333      1.0  0.57428  0.26618  0.09925  1.0000
  H   H334      1.0  0.58770  0.45393  0.41499  1.0000
  H   H335      1.0  0.47823  0.08219  0.17600  1.0000
  H   H336      1.0  0.45933  0.10081  0.14490  1.0000
  H   H337      1.0  0.44235  0.05192  0.27625  1.0000
  H   H338      1.0  0.37501  0.14152  0.46433  1.0000
  C   C282      1.0  0.65808  0.48417  0.25337  1.0000
  H   H339      1.0  0.40662  0.10093  0.03127  1.0000
  C   C283      1.0  0.53410  0.50008  0.42210  1.0000
  C   C284      1.0  0.52407  0.51020  0.50711  1.0000
  H   H340      1.0  0.61347  0.42477  0.18627  1.0000
  H   H341      1.0  0.50539  0.12569  0.44231  1.0000
  H   H342      1.0  0.38932  0.10494  0.38194  1.0000
  C   C285      1.0  0.54150  0.47115  0.38208  1.0000
  H   H343      1.0  0.61506  0.33899  0.20627  1.0000
  H   H344      1.0  0.43962  0.11732  0.25663  1.0000
  H   H345      1.0  0.59479  0.48864  0.01917  1.0000
  H   H346      1.0  0.43711  0.04225  0.13379  1.0000
  C   C286      1.0  0.50035  0.12336  0.49226  1.0000
  H   H347      1.0  0.64062  0.37287  0.21399  1.0000
  C   C287      1.0  0.54646  0.46944  0.05002  1.0000
  H   H348      1.0  0.53715  0.47787  0.06551  1.0000
  C   C288      1.0  0.39704  0.19215  0.46352  1.0000
  S   S76       1.0  0.37142  0.03038  0.10081  1.0000
  H   H349      1.0  0.52089  0.46533  0.37443  1.0000
  C   C289      1.0  0.50193  0.41377  0.49143  1.0000
  C   C290      1.0  0.37471  0.02575  0.20326  1.0000
  H   H350      1.0  0.55186  0.13370  0.50415  1.0000
  Fe  Fe37      1.0  0.66054  0.49233  0.18402  1.0000
  C   C291      1.0  0.38409  0.15933  0.45187  1.0000
  H   H351      1.0  0.37239  0.02054  0.16068  1.0000
  H   H352      1.0  0.40871  0.38978  0.49768  1.0000
  H   H353      1.0  0.55645  0.28366  0.13766  1.0000
  C   C292      1.0  0.40929  0.21617  0.44858  1.0000
  C   C293      1.0  0.44233  0.05600  0.25521  1.0000
  H   H354      1.0  0.58869  0.39043  0.18292  1.0000
  C   C294      1.0  0.43959  0.09799  0.21670  1.0000
  C   C295      1.0  0.56779  0.48958  0.04484  1.0000
  H   H355      1.0  0.47633  0.47576  0.50141  1.0000
  H   H356      1.0  0.58238  0.50342  0.41068  1.0000
  C   C296      1.0  0.52340  0.12088  0.45735  1.0000
  C   C297      1.0  0.41433  0.09312  0.15839  1.0000
  H   H357      1.0  0.64474  0.32804  0.19832  1.0000
  C   C298      1.0  0.42837  0.14582  0.01728  1.0000
  H   H358      1.0  0.50481  0.15465  0.49345  1.0000
  C   C299      1.0  0.39586  0.17466  0.41011  1.0000
  H   H359      1.0  0.52441  0.42051  0.41232  1.0000
  H   H360      1.0  0.62155  0.04448  0.51331  1.0000
  C   C300      1.0  0.45992  0.09627  0.16667  1.0000
  H   H361      1.0  0.66014  0.36697  0.16468  1.0000
  N   N21       1.0  0.36919  0.11460  0.41296  1.0000
  H   H362      1.0  0.58354  0.02332  0.49085  1.0000
  H   H363      1.0  0.41142  0.09609  0.13619  1.0000
  C   C301      1.0  0.43821  0.03644  0.15541  1.0000
  H   H364      1.0  0.49284  0.42887  0.47248  1.0000
  C   C302      1.0  0.38056  0.08013  0.42823  1.0000
  C   C303      1.0  0.44197  0.02909  0.21170  1.0000
  H   H365      1.0  0.46017  0.12532  0.17547  1.0000
  C   C304      1.0  0.57635  0.47769  0.42051  1.0000
  H   H366      1.0  0.39684  0.16925  0.38965  1.0000
  H   H367      1.0  0.50539  0.46211  0.43280  1.0000
  C   C305      1.0  0.49722  0.04827  0.45180  1.0000
  H   H368      1.0  0.49345  0.06659  0.43420  1.0000
  C   C306      1.0  0.44899  0.17148  0.02397  1.0000
  C   C307      1.0  0.56857  0.48383  0.49503  1.0000
  C   C308      1.0  0.55103  0.45757  0.50112  1.0000
  C   C309      1.0  0.52812  0.46983  0.50717  1.0000
  H   H369      1.0  0.53697  0.06641  0.02526  1.0000
  H   H370      1.0  0.41407  0.12272  0.16614  1.0000
  H   H371      1.0  0.55576  0.42750  0.50148  1.0000
  H   H372      1.0  0.42163  0.01784  0.15631  1.0000
  H   H373      1.0  0.49921  0.11374  0.51277  1.0000
  H   H374      1.0  0.37162  0.05305  0.41894  1.0000
  C   C310      1.0  0.51215  0.49115  0.43179  1.0000
  H   H375      1.0  0.68047  0.14589  0.01988  1.0000
  Fe  Fe38      1.0  0.66153  0.51406  0.37510  1.0000
  S   S77       1.0  0.38102  0.01663  0.04064  1.0000
  N   N22       1.0  0.51004  0.44126  0.51383  1.0000
  C   C311      1.0  0.66790  0.27024  0.01822  1.0000
  H   H376      1.0  0.53868  0.40188  0.53505  1.0000
  H   H377      1.0  0.37643  0.37646  0.85788  1.0000
  H   H378      1.0  0.65995  0.12576  0.79573  1.0000
  S   S78       1.0  0.52765  0.17960  0.54633  1.0000
  H   H379      1.0  0.50922  0.39868  0.54458  1.0000
  C   C312      1.0  0.44289  0.36650  0.52280  1.0000
  Fe  Fe39      1.0  0.67875  0.04563  0.87573  1.0000
  S   S79       1.0  0.43671  0.46344  0.58135  1.0000
  C   C313      1.0  0.61597  0.04494  0.53287  1.0000
  C   C314      1.0  0.67574  0.03914  0.80437  1.0000
  H   H380      1.0  0.66090  0.16458  0.94709  1.0000
  Fe  Fe40      1.0  0.64279  0.08005  0.90641  1.0000
  S   S80       1.0  0.61154  0.12414  0.89975  1.0000
  C   C315      1.0  0.38995  0.50236  0.73560  1.0000
  H   H381      1.0  0.61020  0.24593  0.97986  1.0000
  S   S81       1.0  0.65930  0.04710  0.94420  1.0000
  Fe  Fe41      1.0  0.54606  0.23222  0.99803  1.0000
  S   S82       1.0  0.57641  0.18701  0.00102  1.0000
  Fe  Fe42      1.0  0.51255  0.29679  0.96827  1.0000
  S   S83       1.0  0.50398  0.33302  0.93004  1.0000
  S   S84       1.0  0.55157  0.29627  0.99575  1.0000
  S   S85       1.0  0.50915  0.23229  0.96740  1.0000
  S   S86       1.0  0.51844  0.29259  0.52777  1.0000
  C   C316      1.0  0.64309  0.12280  0.75431  1.0000
  Fe  Fe43      1.0  0.39950  0.48301  0.86554  1.0000
  S   S87       1.0  0.40852  0.44311  0.90180  1.0000
  C   C317      1.0  0.38492  0.35545  0.87303  1.0000
  S   S88       1.0  0.67983  0.03088  0.62026  1.0000
  Fe  Fe44      1.0  0.64860  0.06767  0.62791  1.0000
  S   S89       1.0  0.63798  0.11279  0.59478  1.0000
  C   C318      1.0  0.62094  0.12058  0.73418  1.0000
  Fe  Fe45      1.0  0.39274  0.50098  0.80559  1.0000
  C   C319      1.0  0.47836  0.36547  0.92288  1.0000
  C   C320      1.0  0.46436  0.37342  0.94188  1.0000
  C   C321      1.0  0.44311  0.39746  0.93515  1.0000
  C   C322      1.0  0.43599  0.41450  0.90958  1.0000
  C   C323      1.0  0.45058  0.40787  0.89086  1.0000
  C   C324      1.0  0.47160  0.38321  0.89746  1.0000
  H   H382      1.0  0.46980  0.36081  0.96169  1.0000
  H   H383      1.0  0.43200  0.40270  0.94977  1.0000
  H   H384      1.0  0.44520  0.42072  0.87105  1.0000
  H   H385      1.0  0.48240  0.37730  0.88267  1.0000
  C   C325      1.0  0.60045  0.13978  0.92763  1.0000
  C   C326      1.0  0.60862  0.12242  0.95287  1.0000
  C   C327      1.0  0.60053  0.13662  0.97506  1.0000
  C   C328      1.0  0.58413  0.16811  0.97216  1.0000
  C   C329      1.0  0.57543  0.18490  0.94680  1.0000
  C   C330      1.0  0.58362  0.17076  0.92460  1.0000
  H   H386      1.0  0.62129  0.09827  0.95539  1.0000
  H   H387      1.0  0.60726  0.12349  0.99464  1.0000
  H   H388      1.0  0.56278  0.20920  0.94440  1.0000
  H   H389      1.0  0.57711  0.18424  0.90511  1.0000
  S   S90       1.0  0.42679  0.49912  0.84044  1.0000
  H   H390      1.0  0.57049  0.05608  0.95780  1.0000
  C   C331      1.0  0.54814  0.42260  0.01582  1.0000
  H   H391      1.0  0.63153  0.06064  0.54691  1.0000
  C   C332      1.0  0.37317  0.34597  0.89370  1.0000
  H   H392      1.0  0.47972  0.47222  0.95264  1.0000
  H   H393      1.0  0.44557  0.24788  0.91569  1.0000
  H   H394      1.0  0.47603  0.34976  0.55260  1.0000
  H   H395      1.0  0.40041  0.45641  0.71250  1.0000
  Fe  Fe46      1.0  0.49125  0.23827  0.00265  1.0000
  H   H396      1.0  0.66128  0.12074  0.74905  1.0000
  C   C333      1.0  0.46061  0.36999  0.54731  1.0000
  C   C334      1.0  0.45819  0.39950  0.56518  1.0000
  C   C335      1.0  0.43807  0.42577  0.55874  1.0000
  H   H397      1.0  0.58424  0.16752  0.80871  1.0000
  H   H398      1.0  0.45432  0.24403  0.95120  1.0000
  H   H399      1.0  0.35540  0.35949  0.89434  1.0000
  H   H400      1.0  0.49102  0.47738  0.53709  1.0000
  H   H401      1.0  0.61471  0.19071  0.81637  1.0000
  C   C336      1.0  0.55854  0.16195  0.55999  1.0000
  C   C337      1.0  0.57973  0.17657  0.55195  1.0000
  C   C338      1.0  0.60388  0.16105  0.56274  1.0000
  C   C339      1.0  0.60713  0.13102  0.58178  1.0000
  C   C340      1.0  0.58591  0.11602  0.58956  1.0000
  C   C341      1.0  0.56172  0.13138  0.57863  1.0000
  H   H402      1.0  0.57754  0.20001  0.53757  1.0000
  H   H403      1.0  0.62018  0.17281  0.55656  1.0000
  H   H404      1.0  0.58814  0.09290  0.60419  1.0000
  H   H405      1.0  0.54541  0.11985  0.58491  1.0000
  H   H406      1.0  0.59864  0.06257  0.53106  1.0000
  S   S91       1.0  0.49201  0.30295  0.00117  1.0000
  H   H407      1.0  0.48685  0.45734  0.92225  1.0000
  C   C342      1.0  0.64478  0.21514  0.98119  1.0000
  H   H408      1.0  0.62199  0.11671  0.71347  1.0000
  C   C343      1.0  0.52255  0.41934  0.53825  1.0000
  C   C344      1.0  0.56891  0.44180  0.01010  1.0000
  C   C345      1.0  0.67466  0.03828  0.75634  1.0000
  H   H409      1.0  0.63479  0.19424  0.96716  1.0000
  C   C346      1.0  0.42025  0.42206  0.53432  1.0000
  S   S92       1.0  0.36587  0.47901  0.83016  1.0000
  H   H410      1.0  0.45921  0.28868  0.93576  1.0000
  S   S93       1.0  0.63965  0.02882  0.87923  1.0000
  C   C347      1.0  0.39042  0.50733  0.68796  1.0000
  C   C348      1.0  0.64197  0.12565  0.78123  1.0000
  H   H411      1.0  0.60239  0.16825  0.84261  1.0000
  Fe  Fe47      1.0  0.51849  0.22996  0.51685  1.0000
  H   H412      1.0  0.52993  0.43889  0.55541  1.0000
  S   S94       1.0  0.66933  0.07988  0.67045  1.0000
  H   H413      1.0  0.58033  0.12028  0.72500  1.0000
  H   H414      1.0  0.65130  0.10044  0.83510  1.0000
  C   C349      1.0  0.39414  0.48587  0.71206  1.0000
  H   H415      1.0  0.40467  0.44202  0.52916  1.0000
  H   H416      1.0  0.61675  0.01651  0.76735  1.0000
  C   C350      1.0  0.63048  0.24478  0.98832  1.0000
  C   C351      1.0  0.68064  0.17407  0.95616  1.0000
  H   H417      1.0  0.41669  0.14577  0.99706  1.0000
  H   H418      1.0  0.65674  0.13755  0.98974  1.0000
  H   H419      1.0  0.54222  0.09661  0.52303  1.0000
  N   N23       1.0  0.42022  0.27648  0.93603  1.0000
  C   C352      1.0  0.42259  0.29501  0.96250  1.0000
  C   C353      1.0  0.40416  0.24159  0.93499  1.0000
  C   C354      1.0  0.44591  0.26390  0.93444  1.0000
  C   C355      1.0  0.40838  0.30331  0.91414  1.0000
  C   C356      1.0  0.41979  0.31344  0.89262  1.0000
  C   C357      1.0  0.38453  0.32000  0.91384  1.0000
  C   C358      1.0  0.40801  0.33892  0.87234  1.0000
  S   S95       1.0  0.37128  0.50065  0.59572  1.0000
  C   C359      1.0  0.56183  0.04265  0.97272  1.0000
  H   H420      1.0  0.40398  0.30056  0.96715  1.0000
  H   H421      1.0  0.43319  0.27670  0.97930  1.0000
  H   H422      1.0  0.43286  0.32288  0.96338  1.0000
  H   H423      1.0  0.38502  0.24821  0.93798  1.0000
  H   H424      1.0  0.41275  0.22048  0.95102  1.0000
  H   H425      1.0  0.40166  0.22699  0.91530  1.0000
  H   H426      1.0  0.47196  0.40201  0.58413  1.0000
  C   C360      1.0  0.67726  0.14355  0.99767  1.0000
  H   H427      1.0  0.39378  0.49439  0.66999  1.0000
  H   H428      1.0  0.43811  0.30293  0.89126  1.0000
  C   C361      1.0  0.65003  0.02918  0.79860  1.0000
  C   C362      1.0  0.67117  0.21198  0.99246  1.0000
  H   H429      1.0  0.51091  0.48072  0.94713  1.0000
  H   H430      1.0  0.65355  0.15230  0.83400  1.0000
  N   N24       1.0  0.61627  0.12902  0.81704  1.0000
  C   C363      1.0  0.64115  0.12767  0.83669  1.0000
  C   C364      1.0  0.60385  0.16545  0.82130  1.0000
  C   C365      1.0  0.60075  0.09640  0.82338  1.0000
  C   C366      1.0  0.61831  0.12682  0.78874  1.0000
  C   C367      1.0  0.59611  0.12565  0.76761  1.0000
  C   C368      1.0  0.59749  0.12225  0.74079  1.0000
  C   C369      1.0  0.49033  0.48076  0.93732  1.0000
  H   H431      1.0  0.41731  0.34705  0.85649  1.0000
  S   S96       1.0  0.68055  0.09948  0.90003  1.0000
  H   H432      1.0  0.63891  0.12928  0.85770  1.0000
  S   S97       1.0  0.39612  0.47529  0.76590  1.0000
  H   H433      1.0  0.52051  0.04342  0.51978  1.0000
  Fe  Fe48      1.0  0.40563  0.50821  0.57820  1.0000
  H   H434      1.0  0.37463  0.31352  0.92939  1.0000
  S   S98       1.0  0.45455  0.20436  0.99928  1.0000
  H   H435      1.0  0.60850  0.06852  0.81871  1.0000
  H   H436      1.0  0.60022  0.09573  0.84502  1.0000
  H   H437      1.0  0.58070  0.09782  0.81198  1.0000
  H   H438      1.0  0.57748  0.12683  0.77169  1.0000
  H   H439      1.0  0.64061  0.02493  0.81479  1.0000
  C   C370      1.0  0.64200  0.27226  0.00681  1.0000
  H   H440      1.0  0.44821  0.49656  0.89885  1.0000
  H   H441      1.0  0.54115  0.39623  0.00546  1.0000
  H   H442      1.0  0.48753  0.49995  0.88634  1.0000
  C   C371      1.0  0.63664  0.02415  0.77175  1.0000
  C   C372      1.0  0.64890  0.02865  0.75050  1.0000
  H   H443      1.0  0.68430  0.04180  0.74018  1.0000
  H   H444      1.0  0.57790  0.43042  0.99503  1.0000
  H   H445      1.0  0.55691  0.09637  0.99133  1.0000
  Fe  Fe49      1.0  0.65027  0.02660  0.68169  1.0000
  C   C373      1.0  0.54299  0.04842  0.01074  1.0000
  S   S99       1.0  0.63143  0.02241  0.71701  1.0000
  H   H446      1.0  0.44410  0.51133  0.93057  1.0000
  H   H447      1.0  0.47312  0.43667  0.52281  1.0000
  C   C374      1.0  0.55421  0.06541  0.99159  1.0000
  C   C375      1.0  0.68237  0.24054  0.01134  1.0000
  S   S100      1.0  0.62660  0.01776  0.63946  1.0000
  H   H448      1.0  0.58883  0.02180  0.56966  1.0000
  C   C376      1.0  0.48676  0.45881  0.51898  1.0000
  H   H449      1.0  0.62213  0.02905  0.58288  1.0000
  H   H450      1.0  0.63071  0.29489  0.01250  1.0000
  N   N25       1.0  0.68554  0.17895  0.98574  1.0000
  H   H451      1.0  0.68429  0.20127  0.94606  1.0000
  C   C377      1.0  0.42262  0.39246  0.51651  1.0000
  H   H452      1.0  0.45009  0.91463  0.07413  1.0000
  Fe  Fe50      1.0  0.39405  0.94878  0.34278  1.0000
  S   S101      1.0  0.40522  0.88720  0.35337  1.0000
  S   S102      1.0  0.51586  0.83690  0.04891  1.0000
  S   S103      1.0  0.59911  0.70219  0.02011  1.0000
  S   S104      1.0  0.35899  0.96593  0.31167  1.0000
  Fe  Fe51      1.0  0.64408  0.55401  0.14000  1.0000
  S   S105      1.0  0.61655  0.60326  0.12799  1.0000
  C   C378      1.0  0.66383  0.70652  0.12187  1.0000
  H   H453      1.0  0.66283  0.72171  0.04656  1.0000
  H   H454      1.0  0.49453  0.58073  0.44630  1.0000
  S   S106      1.0  0.52360  0.75284  0.45514  1.0000
  H   H455      1.0  0.63401  0.64190  0.04096  1.0000
  C   C379      1.0  0.38157  0.81377  0.02647  1.0000
  S   S107      1.0  0.56011  0.82011  0.48908  1.0000
  Fe  Fe52      1.0  0.51872  0.81239  0.46981  1.0000
  S   S108      1.0  0.50403  0.86694  0.44712  1.0000
  Fe  Fe53      1.0  0.56423  0.75894  0.47713  1.0000
  S   S109      1.0  0.59490  0.74171  0.45624  1.0000
  H   H456      1.0  0.58225  0.58498  0.05134  1.0000
  H   H457      1.0  0.42833  0.83855  0.08010  1.0000
  S   S110      1.0  0.42168  0.98266  0.09402  1.0000
  H   H458      1.0  0.55008  0.98461  0.46325  1.0000
  Fe  Fe54      1.0  0.38808  0.97228  0.11213  1.0000
  S   S111      1.0  0.39277  0.94503  0.15363  1.0000
  Fe  Fe55      1.0  0.39746  0.95935  0.05597  1.0000
  H   H459      1.0  0.67709  0.64545  0.15684  1.0000
  H   H460      1.0  0.57508  0.56064  0.09275  1.0000
  S   S112      1.0  0.67034  0.53295  0.11544  1.0000
  S   S113      1.0  0.60906  0.56265  0.44146  1.0000
  C   C380      1.0  0.59883  0.69197  0.45200  1.0000
  C   C381      1.0  0.58318  0.66498  0.46069  1.0000
  C   C382      1.0  0.58664  0.62555  0.45726  1.0000
  C   C383      1.0  0.60570  0.61267  0.44507  1.0000
  C   C384      1.0  0.62124  0.63963  0.43614  1.0000
  C   C385      1.0  0.61780  0.67919  0.43961  1.0000
  H   H461      1.0  0.56850  0.67447  0.47023  1.0000
  H   H462      1.0  0.57459  0.60496  0.46429  1.0000
  H   H463      1.0  0.63599  0.63002  0.42675  1.0000
  H   H464      1.0  0.63001  0.69989  0.43289  1.0000
  H   H465      1.0  0.53748  0.92227  0.47977  1.0000
  C   C386      1.0  0.47952  0.88188  0.06264  1.0000
  C   C387      1.0  0.56384  0.52306  0.49463  1.0000
  H   H466      1.0  0.50748  0.52252  0.51190  1.0000
  H   H467      1.0  0.46367  0.72787  0.51113  1.0000
  C   C388      1.0  0.38983  0.96990  0.23049  1.0000
  C   C389      1.0  0.39300  0.95086  0.20731  1.0000
  C   C390      1.0  0.38714  0.96920  0.18204  1.0000
  C   C391      1.0  0.55947  0.97460  0.48318  1.0000
  H   H468      1.0  0.40030  0.92189  0.20902  1.0000
  C   C392      1.0  0.43206  0.88148  0.38020  1.0000
  C   C393      1.0  0.44759  0.91292  0.38984  1.0000
  C   C394      1.0  0.46951  0.90778  0.41038  1.0000
  C   C395      1.0  0.47587  0.87140  0.42185  1.0000
  C   C396      1.0  0.46025  0.83990  0.41247  1.0000
  C   C397      1.0  0.43848  0.84492  0.39152  1.0000
  H   H469      1.0  0.44289  0.94116  0.38123  1.0000
  H   H470      1.0  0.48167  0.93213  0.41730  1.0000
  H   H471      1.0  0.46498  0.81172  0.42120  1.0000
  H   H472      1.0  0.42652  0.82049  0.38413  1.0000
  C   C398      1.0  0.39340  0.83069  0.05073  1.0000
  C   C399      1.0  0.60290  0.67357  0.04952  1.0000
  C   C400      1.0  0.58784  0.67880  0.06792  1.0000
  C   C401      1.0  0.59234  0.65703  0.09186  1.0000
  C   C402      1.0  0.61183  0.62978  0.09758  1.0000
  C   C403      1.0  0.62670  0.62413  0.07900  1.0000
  C   C404      1.0  0.62220  0.64593  0.05506  1.0000
  H   H473      1.0  0.57309  0.70020  0.06400  1.0000
  H   H474      1.0  0.58079  0.66163  0.10615  1.0000
  H   H475      1.0  0.64178  0.60331  0.08309  1.0000
  C   C405      1.0  0.56626  0.53463  0.08173  1.0000
  H   H476      1.0  0.61418  0.54355  0.08476  1.0000
  H   H477      1.0  0.47720  0.00182  0.42828  1.0000
  C   C406      1.0  0.44049  0.90211  0.03187  1.0000
  H   H478      1.0  0.55625  0.54915  0.41278  1.0000
  C   C407      1.0  0.48741  0.86357  0.04170  1.0000
  C   C408      1.0  0.41909  0.82467  0.06147  1.0000
  S   S114      1.0  0.40992  0.92248  0.02517  1.0000
  C   C409      1.0  0.66565  0.52258  0.25731  1.0000
  C   C410      1.0  0.66356  0.71784  0.06779  1.0000
  S   S115      1.0  0.52895  0.73632  0.01857  1.0000
  Fe  Fe56      1.0  0.51752  0.73232  0.49504  1.0000
  H   H479      1.0  0.54404  0.93393  0.03396  1.0000
  S   S116      1.0  0.36533  0.94304  0.07504  1.0000
  H   H480      1.0  0.53200  0.59811  0.42882  1.0000
  C   C411      1.0  0.54044  0.53964  0.42077  1.0000
  H   H481      1.0  0.50452  0.97787  0.51222  1.0000
  H   H482      1.0  0.36157  0.81860  0.01817  1.0000
  S   S117      1.0  0.38506  0.98675  0.37418  1.0000
  C   C412      1.0  0.50531  0.55841  0.43943  1.0000
  Fe  Fe57      1.0  0.63809  0.53315  0.42283  1.0000
  H   H483      1.0  0.67414  0.56914  0.28555  1.0000
  H   H484      1.0  0.53821  0.56691  0.50068  1.0000
  S   S118      1.0  0.66757  0.54067  0.33614  1.0000
  N   N26       1.0  0.57856  0.52452  0.05965  1.0000
  C   C413      1.0  0.43323  0.80218  0.04789  1.0000
  H   H485      1.0  0.53048  0.99744  0.02655  1.0000
  C   C414      1.0  0.57867  0.99670  0.49939  1.0000
  C   C415      1.0  0.46334  0.75681  0.02138  1.0000
  C   C416      1.0  0.37753  0.00651  0.18007  1.0000
  S   S119      1.0  0.50027  0.67378  0.49942  1.0000
  C   C417      1.0  0.55227  0.93942  0.49242  1.0000
  N   N27       1.0  0.55104  0.80164  0.39021  1.0000
  C   C418      1.0  0.57672  0.79661  0.38517  1.0000
  C   C419      1.0  0.55424  0.82189  0.41617  1.0000
  C   C420      1.0  0.54034  0.76281  0.39274  1.0000
  C   C421      1.0  0.53346  0.82344  0.36885  1.0000
  C   C422      1.0  0.53989  0.83574  0.34467  1.0000
  C   C423      1.0  0.50880  0.83261  0.37180  1.0000
  C   C424      1.0  0.52266  0.85628  0.32497  1.0000
  C   C425      1.0  0.49179  0.85320  0.35206  1.0000
  C   C426      1.0  0.49869  0.86504  0.32870  1.0000
  H   H486      1.0  0.58607  0.82478  0.38345  1.0000
  H   H487      1.0  0.58941  0.78055  0.40198  1.0000
  H   H488      1.0  0.57608  0.77951  0.36679  1.0000
  H   H489      1.0  0.55996  0.85240  0.41442  1.0000
  H   H490      1.0  0.56889  0.80817  0.43234  1.0000
  H   H491      1.0  0.53663  0.82184  0.42364  1.0000
  H   H492      1.0  0.53776  0.74663  0.37366  1.0000
  H   H493      1.0  0.55292  0.74549  0.40885  1.0000
  H   H494      1.0  0.52155  0.76393  0.39786  1.0000
  H   H495      1.0  0.55808  0.82989  0.34050  1.0000
  H   H496      1.0  0.50246  0.82396  0.38952  1.0000
  H   H497      1.0  0.52788  0.86546  0.30668  1.0000
  H   H498      1.0  0.47310  0.86003  0.35492  1.0000
  H   H499      1.0  0.48536  0.88099  0.31346  1.0000
  H   H500      1.0  0.49126  0.88047  0.08284  1.0000
  H   H501      1.0  0.67117  0.61662  0.12734  1.0000
  Fe  Fe58      1.0  0.35255  0.00818  0.34226  1.0000
  H   H502      1.0  0.39472  0.95561  0.24986  1.0000
  H   H503      1.0  0.47348  0.78489  0.02374  1.0000
  S   S120      1.0  0.50867  0.79139  0.50772  1.0000
  C   C427      1.0  0.38104  0.00770  0.22860  1.0000
  C   C428      1.0  0.64604  0.73677  0.07897  1.0000
  H   H504      1.0  0.46578  0.74294  0.04148  1.0000
  C   C429      1.0  0.45620  0.90130  0.05775  1.0000
  H   H505      1.0  0.58677  0.55424  0.02526  1.0000
  C   C430      1.0  0.52643  0.56817  0.42963  1.0000
  H   H506      1.0  0.57748  0.54326  0.48972  1.0000
  C   C431      1.0  0.47343  0.66795  0.51297  1.0000
  H   H507      1.0  0.55544  0.56161  0.03015  1.0000
  S   S121      1.0  0.42013  0.99117  0.32923  1.0000
  H   H508      1.0  0.63187  0.75501  0.06643  1.0000
  C   C432      1.0  0.54171  0.53624  0.50081  1.0000
  Fe  Fe59      1.0  0.38445  0.01128  0.30020  1.0000
  C   C433      1.0  0.49058  0.98537  0.46971  1.0000
  H   H509      1.0  0.45322  0.79986  0.05707  1.0000
  C   C434      1.0  0.42179  0.78462  0.02300  1.0000
  C   C435      1.0  0.66376  0.51792  0.30458  1.0000
  C   C436      1.0  0.64617  0.73115  0.10595  1.0000
  C   C437      1.0  0.48759  0.01083  0.44808  1.0000
  H   H510      1.0  0.44399  0.99568  0.24781  1.0000
  C   C438      1.0  0.57563  0.55767  0.04076  1.0000
  S   S122      1.0  0.67418  0.55136  0.41176  1.0000
  H   H511      1.0  0.48309  0.95630  0.46666  1.0000
  C   C439      1.0  0.66848  0.53931  0.28279  1.0000
  C   C440      1.0  0.49807  0.52001  0.44031  1.0000
  H   H512      1.0  0.54586  0.54142  0.07404  1.0000
  H   H513      1.0  0.44183  0.00307  0.20035  1.0000
  C   C441      1.0  0.68166  0.68613  0.11103  1.0000
  Fe  Fe60      1.0  0.52773  0.80089  0.01722  1.0000
  S   S123      1.0  0.67336  0.55274  0.17916  1.0000
  H   H514      1.0  0.66917  0.53949  0.24070  1.0000
  H   H515      1.0  0.38279  0.84905  0.06107  1.0000
  C   C442      1.0  0.60592  0.51897  0.07184  1.0000
  H   H516      1.0  0.63219  0.74543  0.11443  1.0000
  H   H517      1.0  0.66313  0.70322  0.14269  1.0000
  C   C443      1.0  0.50271  0.99759  0.49534  1.0000
  C   C444      1.0  0.68118  0.69286  0.08345  1.0000
  H   H518      1.0  0.42481  0.70783  0.02319  1.0000
  H   H519      1.0  0.61748  0.51605  0.05671  1.0000
  H   H520      1.0  0.48738  0.55069  0.89011  1.0000
  S   S124      1.0  0.54738  0.74167  0.96127  1.0000
  H   H521      1.0  0.36189  0.89802  0.99596  1.0000
  S   S125      1.0  0.50689  0.80361  0.97423  1.0000
  H   H522      1.0  0.37237  0.59154  0.71052  1.0000
  Fe  Fe61      1.0  0.51071  0.73950  0.97444  1.0000
  S   S126      1.0  0.47625  0.70070  0.96212  1.0000
  Fe  Fe62      1.0  0.54563  0.80610  0.96532  1.0000
  S   S127      1.0  0.54941  0.85416  0.93599  1.0000
  H   H523      1.0  0.63494  0.95441  0.55262  1.0000
  H   H524      1.0  0.61500  0.91858  0.83851  1.0000
  S   S128      1.0  0.41919  0.56148  0.60240  1.0000
  C   C445      1.0  0.44282  0.58835  0.68726  1.0000
  Fe  Fe63      1.0  0.39604  0.59329  0.56699  1.0000
  S   S129      1.0  0.40714  0.65172  0.55350  1.0000
  Fe  Fe64      1.0  0.38347  0.55595  0.61716  1.0000
  S   S130      1.0  0.37875  0.57466  0.65813  1.0000
  H   H525      1.0  0.43937  0.64965  0.68720  1.0000
  H   H526      1.0  0.53407  0.71145  0.64537  1.0000
  S   S131      1.0  0.65297  0.93494  0.92755  1.0000
  S   S132      1.0  0.56029  0.82198  0.56774  1.0000
  Fe  Fe65      1.0  0.41717  0.55999  0.84783  1.0000
  S   S133      1.0  0.45052  0.60156  0.85566  1.0000
  C   C446      1.0  0.43846  0.69386  0.52924  1.0000
  S   S134      1.0  0.38519  0.56313  0.81107  1.0000
  H   H527      1.0  0.54811  0.75379  0.61652  1.0000
  Fe  Fe66      1.0  0.65913  0.98160  0.63427  1.0000
  S   S135      1.0  0.65646  0.93060  0.60657  1.0000
  Fe  Fe67      1.0  0.36027  0.54146  0.83781  1.0000
  H   H528      1.0  0.46813  0.52576  0.97257  1.0000
  C   C447      1.0  0.58669  0.85306  0.57773  1.0000
  C   C448      1.0  0.58781  0.87793  0.59944  1.0000
  C   C449      1.0  0.60893  0.90224  0.60838  1.0000
  C   C450      1.0  0.62935  0.90110  0.59602  1.0000
  C   C451      1.0  0.62820  0.87625  0.57432  1.0000
  C   C452      1.0  0.60683  0.85267  0.56497  1.0000
  H   H529      1.0  0.57230  0.87834  0.60943  1.0000
  H   H530      1.0  0.60963  0.92122  0.62513  1.0000
  H   H531      1.0  0.64394  0.87514  0.56469  1.0000
  H   H532      1.0  0.61840  0.89845  0.75243  1.0000
  C   C453      1.0  0.48693  0.57746  0.98808  1.0000
  C   C454      1.0  0.48062  0.54851  0.96889  1.0000
  H   H533      1.0  0.47829  0.85286  0.99927  1.0000
  N   N28       1.0  0.54321  0.94222  0.99184  1.0000
  H   H534      1.0  0.44331  0.65389  0.73557  1.0000
  C   C455      1.0  0.46696  0.63101  0.52054  1.0000
  H   H535      1.0  0.50855  0.76348  0.58104  1.0000
  C   C456      1.0  0.67573  0.93975  0.80468  1.0000
  C   C457      1.0  0.51210  0.60932  0.96118  1.0000
  H   H536      1.0  0.46480  0.65320  0.64651  1.0000
  H   H537      1.0  0.48774  0.59902  0.78273  1.0000
  H   H538      1.0  0.65248  0.99812  0.55899  1.0000
  C   C458      1.0  0.37844  0.56199  0.71087  1.0000
  H   H539      1.0  0.44170  0.59703  0.53871  1.0000
  H   H540      1.0  0.48346  0.67349  0.57122  1.0000
  H   H541      1.0  0.44694  0.56008  0.80757  1.0000
  H   H542      1.0  0.37771  0.55295  0.75247  1.0000
  C   C459      1.0  0.57839  0.87723  0.93502  1.0000
  C   C460      1.0  0.57793  0.91220  0.92090  1.0000
  C   C461      1.0  0.60062  0.93112  0.91933  1.0000
  C   C462      1.0  0.62397  0.91465  0.93136  1.0000
  C   C463      1.0  0.62439  0.87980  0.94556  1.0000
  C   C464      1.0  0.60172  0.86141  0.94772  1.0000
  H   H543      1.0  0.55994  0.92453  0.91092  1.0000
  H   H544      1.0  0.60004  0.95780  0.90822  1.0000
  H   H545      1.0  0.64238  0.86681  0.95483  1.0000
  H   H546      1.0  0.60232  0.83449  0.95859  1.0000
  C   C465      1.0  0.45728  0.62955  0.88508  1.0000
  C   C466      1.0  0.47893  0.65325  0.89045  1.0000
  C   C467      1.0  0.48494  0.67558  0.91388  1.0000
  C   C468      1.0  0.46935  0.67407  0.93213  1.0000
  C   C469      1.0  0.44776  0.65032  0.92677  1.0000
  C   C470      1.0  0.44167  0.62828  0.90328  1.0000
  H   H547      1.0  0.49107  0.65447  0.87643  1.0000
  H   H548      1.0  0.50161  0.69383  0.91784  1.0000
  H   H549      1.0  0.43562  0.64902  0.94078  1.0000
  H   H550      1.0  0.42478  0.61057  0.89922  1.0000
  Fe  Fe68      1.0  0.55051  0.79588  0.52613  1.0000
  H   H551      1.0  0.44775  0.52909  0.74063  1.0000
  H   H552      1.0  0.50465  0.68507  0.67018  1.0000
  C   C471      1.0  0.48972  0.54935  0.94502  1.0000
  C   C472      1.0  0.42534  0.61741  0.77698  1.0000
  C   C473      1.0  0.54702  0.98444  0.99228  1.0000
  H   H553      1.0  0.36367  0.98054  0.94875  1.0000
  H   H554      1.0  0.62931  0.96536  0.83936  1.0000
  H   H555      1.0  0.51467  0.52288  0.90709  1.0000
  H   H556      1.0  0.35783  0.89316  0.94663  1.0000
  H   H557      1.0  0.43679  0.88559  0.99072  1.0000
  C   C474      1.0  0.51183  0.69496  0.60546  1.0000
  C   C475      1.0  0.56788  0.92270  0.99436  1.0000
  C   C476      1.0  0.44584  0.59207  0.74331  1.0000
  C   C477      1.0  0.51563  0.73993  0.57025  1.0000
  C   C478      1.0  0.45441  0.51842  0.91473  1.0000
  C   C479      1.0  0.65402  0.92818  0.75846  1.0000
  C   C480      1.0  0.65586  0.92165  0.81425  1.0000
  N   N29       1.0  0.52902  0.71033  0.58918  1.0000
  C   C481      1.0  0.49361  0.52340  0.90116  1.0000
  C   C482      1.0  0.48881  0.67649  0.59275  1.0000
  H   H558      1.0  0.52834  0.75325  0.55850  1.0000
  H   H559      1.0  0.49922  0.72801  0.55535  1.0000
  N   N30       1.0  0.44711  0.59495  0.77245  1.0000
  H   H560      1.0  0.56564  0.89086  0.99401  1.0000
  C   C483      1.0  0.47213  0.66170  0.60745  1.0000
  H   H561      1.0  0.60952  0.98192  0.58157  1.0000
  S   S136      1.0  0.56647  0.80669  0.00866  1.0000
  C   C484      1.0  0.55249  0.72847  0.60531  1.0000
  H   H562      1.0  0.38269  0.94229  0.96694  1.0000
  H   H563      1.0  0.50783  0.94710  0.96249  1.0000
  C   C485      1.0  0.51713  0.69773  0.63393  1.0000
  C   C486      1.0  0.53674  0.67879  0.57355  1.0000
  C   C487      1.0  0.47787  0.66472  0.63528  1.0000
  C   C488      1.0  0.38167  0.54033  0.73474  1.0000
  C   C489      1.0  0.45901  0.69936  0.51715  1.0000
  C   C490      1.0  0.38288  0.54569  0.68741  1.0000
  H   H564      1.0  0.57695  0.92986  0.97757  1.0000
  H   H565      1.0  0.44756  0.54680  0.90593  1.0000
  C   C491      1.0  0.36618  0.96124  0.96662  1.0000
  H   H566      1.0  0.42490  0.61794  0.79864  1.0000
  H   H567      1.0  0.44188  0.80942  0.98325  1.0000
  S   S137      1.0  0.39184  0.54404  0.87511  1.0000
  C   C492      1.0  0.63544  0.90599  0.79461  1.0000
  H   H568      1.0  0.44047  0.58666  0.66567  1.0000
  C   C493      1.0  0.44552  0.55486  0.70269  1.0000
  C   C494      1.0  0.67738  0.93958  0.86077  1.0000
  C   C495      1.0  0.50031  0.68268  0.64851  1.0000
  C   C496      1.0  0.47091  0.61478  0.78583  1.0000
  H   H569      1.0  0.60624  0.83349  0.54834  1.0000
  H   H570      1.0  0.52370  0.63368  0.95794  1.0000
  C   C497      1.0  0.63210  0.93571  0.84776  1.0000
  H   H571      1.0  0.47195  0.64455  0.77811  1.0000
  C   C498      1.0  0.63617  0.98417  0.54491  1.0000
  H   H572      1.0  0.45454  0.64799  0.59708  1.0000
  C   C499      1.0  0.50258  0.60786  0.98418  1.0000
  H   H573      1.0  0.47264  0.61703  0.80792  1.0000
  H   H574      1.0  0.52050  0.66670  0.55840  1.0000
  C   C500      1.0  0.63450  0.90961  0.76715  1.0000
  C   C501      1.0  0.55824  0.00279  0.97292  1.0000
  C   C502      1.0  0.44206  0.62375  0.69942  1.0000
  Fe  Fe69      1.0  0.56555  0.74198  0.00571  1.0000
  H   H575      1.0  0.42896  0.54076  0.77689  1.0000
  H   H576      1.0  0.67454  0.86437  0.84843  1.0000
  S   S138      1.0  0.36132  0.59256  0.58370  1.0000
  C   C503      1.0  0.44656  0.55704  0.78590  1.0000
  H   H577      1.0  0.44675  0.76375  0.96957  1.0000
  H   H578      1.0  0.50685  0.63100  0.99859  1.0000
  H   H579      1.0  0.52982  0.89537  0.01307  1.0000
  N   N31       1.0  0.65580  0.91899  0.84315  1.0000
  H   H580      1.0  0.42743  0.71828  0.53261  1.0000
  H   H581      1.0  0.67732  0.97071  0.85553  1.0000
  C   C504      1.0  0.43217  0.65700  0.53712  1.0000
  C   C505      1.0  0.44389  0.62576  0.72708  1.0000
  C   C506      1.0  0.44872  0.88473  0.01083  1.0000
  H   H582      1.0  0.54550  0.65479  0.58693  1.0000
  H   H583      1.0  0.56486  0.73977  0.59229  1.0000
  H   H584      1.0  0.55065  0.68879  0.56200  1.0000
  H   H585      1.0  0.56405  0.70763  0.61956  1.0000
  N   N32       1.0  0.61231  0.00558  0.54294  1.0000
  H   H586      1.0  0.61986  0.89129  0.80034  1.0000
  C   C507      1.0  0.65712  0.87816  0.85183  1.0000
  C   C508      1.0  0.58330  0.94797  0.53425  1.0000
  C   C509      1.0  0.44643  0.62551  0.53266  1.0000
  C   C510      1.0  0.42500  0.72197  0.00363  1.0000
  C   C511      1.0  0.43492  0.77925  0.98110  1.0000
  C   C512      1.0  0.60787  0.00963  0.57032  1.0000
  C   C513      1.0  0.67473  0.94268  0.77719  1.0000
  C   C514      1.0  0.59116  0.98398  0.52559  1.0000
  H   H587      1.0  0.65293  0.93198  0.73715  1.0000
  H   H588      1.0  0.46320  0.53920  0.78491  1.0000
  H   H589      1.0  0.52137  0.89986  0.96551  1.0000
  Fe  Fe70      1.0  0.65926  0.99713  0.91677  1.0000
  N   N33       1.0  0.48231  0.51867  0.92482  1.0000
  H   H590      1.0  0.53456  0.93665  0.94858  1.0000
  C   C515      1.0  0.50571  0.58076  0.94171  1.0000
  S   S139      1.0  0.68137  0.98658  0.67724  1.0000
  H   H591      1.0  0.40705  0.60496  0.76572  1.0000
  H   H592      1.0  0.59222  0.93596  0.55362  1.0000
  H   H593      1.0  0.47921  0.57675  0.00580  1.0000
  H   H594      1.0  0.41540  0.77953  0.96824  1.0000
  H   H595      1.0  0.42592  0.64794  0.77075  1.0000
  H   H596      1.0  0.63232  0.93707  0.86957  1.0000
  H   H597      1.0  0.64059  0.86115  0.84085  1.0000
  H   H598      1.0  0.67663  0.93754  0.88231  1.0000
  C   C516      1.0  0.52600  0.93114  0.96601  1.0000
  C   C517      1.0  0.44681  0.55640  0.73026  1.0000
  H   H599      1.0  0.51304  0.58459  0.92397  1.0000
  H   H600      1.0  0.44541  0.52730  0.69295  1.0000
  H   H601      1.0  0.64086  0.98164  0.52497  1.0000
  H   H602      1.0  0.65742  0.87528  0.87366  1.0000
  C   C518      1.0  0.39548  0.79104  0.01276  1.0000
  H   H603      1.0  0.56425  0.98642  0.95768  1.0000
  S   S140      1.0  0.38454  0.54087  0.54156  1.0000
  H   H604      1.0  0.43596  0.70330  0.99287  1.0000
  H   H605      1.0  0.37243  0.97893  0.98494  1.0000
  H   H606      1.0  0.40528  0.72203  0.99124  1.0000
  H   H607      1.0  0.51257  0.93877  0.01236  1.0000
  H   H608      1.0  0.55865  0.89857  0.52506  1.0000
  N   N34       1.0  0.43617  0.76114  0.00774  1.0000
  H   H609      1.0  0.38556  0.77880  0.99390  1.0000
  C   C519      1.0  0.47219  0.86593  0.01566  1.0000
  H   H610      1.0  0.58150  0.93057  0.01339  1.0000
  C   C520      1.0  0.53939  0.00856  0.01122  1.0000
  H   H611      1.0  0.47346  0.73849  0.00967  1.0000
  C   C521      1.0  0.53192  0.92726  0.01379  1.0000
  C   C522      1.0  0.56413  0.92617  0.51794  1.0000
  H   H612      1.0  0.47805  0.60660  0.51731  1.0000
  S   S141      1.0  0.55868  0.73526  0.51624  1.0000
  S   S142      1.0  0.86669  0.14226  0.04733  1.0000
  S   S143      1.0  0.92715  0.16322  0.06666  1.0000
  Fe  Fe71      1.0  0.90348  0.11029  0.05483  1.0000
  S   S144      1.0  0.90505  0.05546  0.07940  1.0000
  Fe  Fe72      1.0  0.89066  0.19572  0.05555  1.0000
  S   S145      1.0  0.87869  0.23911  0.08284  1.0000
  S   S146      1.0  0.97376  0.35103  0.38304  1.0000
  Fe  Fe73      1.0  0.91920  0.44907  0.12888  1.0000
  S   S147      1.0  0.89324  0.44025  0.15658  1.0000
  S   S148      1.0  0.93121  0.40328  0.10329  1.0000
  Fe  Fe74      1.0  0.92138  0.47605  0.18574  1.0000
  S   S149      1.0  0.93419  0.45978  0.22983  1.0000
  Fe  Fe75      1.0  0.87582  0.49648  0.14015  1.0000
  S   S150      1.0  0.94860  0.48059  0.15927  1.0000
  S   S151      1.0  0.72926  0.49939  0.46222  1.0000
  H   H613      1.0  0.81731  0.37858  0.49277  1.0000
  N   N35       1.0  0.79527  0.34520  0.51445  1.0000
  S   S152      1.0  0.83368  0.42340  0.45530  1.0000
  S   S153      1.0  0.90216  0.45174  0.50124  1.0000
  S   S154      1.0  0.88708  0.35921  0.49585  1.0000
  H   H614      1.0  0.00970  0.35009  0.43512  1.0000
  Fe  Fe76      1.0  0.01201  0.33967  0.37431  1.0000
  C   C523      1.0  0.80420  0.44177  0.45847  1.0000
  C   C524      1.0  0.80237  0.46396  0.48052  1.0000
  C   C525      1.0  0.00341  0.40808  0.24350  1.0000
  C   C526      1.0  0.75754  0.47564  0.46053  1.0000
  C   C527      1.0  0.75911  0.45219  0.43897  1.0000
  C   C528      1.0  0.78242  0.43554  0.43787  1.0000
  H   H615      1.0  0.81900  0.46906  0.49645  1.0000
  C   C529      1.0  0.99856  0.45564  0.42311  1.0000
  H   H616      1.0  0.74246  0.44720  0.42310  1.0000
  H   H617      1.0  0.78370  0.41829  0.42079  1.0000
  Fe  Fe77      1.0  0.86647  0.41571  0.49177  1.0000
  H   H618      1.0  0.84526  0.03967  0.04128  1.0000
  C   C530      1.0  0.85732  0.42759  0.08035  1.0000
  Fe  Fe78      1.0  0.92693  0.16831  0.02261  1.0000
  C   C531      1.0  0.95015  0.03243  0.06886  1.0000
  N   N36       1.0  0.85530  0.42404  0.05111  1.0000
  H   H619      1.0  0.00434  0.36525  0.48083  1.0000
  H   H620      1.0  0.82393  0.36530  0.06002  1.0000
  C   C532      1.0  0.80759  0.50833  0.13531  1.0000
  C   C533      1.0  0.98166  0.42907  0.23109  1.0000
  C   C534      1.0  0.96268  0.43574  0.24492  1.0000
  C   C535      1.0  0.96599  0.42206  0.27139  1.0000
  C   C536      1.0  0.98778  0.40134  0.28384  1.0000
  H   H621      1.0  0.82067  0.46638  0.35983  1.0000
  H   H622      1.0  0.97958  0.43984  0.21083  1.0000
  H   H623      1.0  0.95147  0.42710  0.28230  1.0000
  C   C537      1.0  0.97052  0.35967  0.41598  1.0000
  C   C538      1.0  0.94665  0.36947  0.42002  1.0000
  C   C539      1.0  0.94351  0.37767  0.44589  1.0000
  C   C540      1.0  0.96431  0.37633  0.46787  1.0000
  C   C541      1.0  0.98822  0.36660  0.46385  1.0000
  C   C542      1.0  0.99131  0.35807  0.43800  1.0000
  H   H624      1.0  0.93049  0.37069  0.40306  1.0000
  H   H625      1.0  0.92501  0.38515  0.44878  1.0000
  C   C543      1.0  0.87403  0.32983  0.02316  1.0000
  H   H626      1.0  0.76873  0.31418  0.46693  1.0000
  C   C544      1.0  0.89389  0.28423  0.08875  1.0000
  C   C545      1.0  0.91361  0.29480  0.07670  1.0000
  C   C546      1.0  0.92494  0.33135  0.08143  1.0000
  C   C547      1.0  0.91671  0.35746  0.09828  1.0000
  C   C548      1.0  0.89725  0.34661  0.11064  1.0000
  C   C549      1.0  0.88584  0.31018  0.10580  1.0000
  H   H627      1.0  0.91996  0.27491  0.06358  1.0000
  H   H628      1.0  0.94006  0.33947  0.07190  1.0000
  H   H629      1.0  0.89089  0.36623  0.12384  1.0000
  H   H630      1.0  0.87068  0.30201  0.11526  1.0000
  H   H631      1.0  0.90666  0.21404  0.16796  1.0000
  C   C550      1.0  0.83815  0.35648  0.04970  1.0000
  H   H632      1.0  0.71899  0.18235  0.01834  1.0000
  H   H633      1.0  0.89500  0.43707  0.05542  1.0000
  H   H634      1.0  0.01662  0.03524  0.19203  1.0000
  H   H635      1.0  0.77648  0.48410  0.34166  1.0000
  H   H636      1.0  0.99221  0.44324  0.44060  1.0000
  C   C551      1.0  0.87602  0.44776  0.04456  1.0000
  H   H637      1.0  0.70221  0.24041  0.02129  1.0000
  H   H638      1.0  0.87505  0.44828  0.02262  1.0000
  C   C552      1.0  0.85618  0.38308  0.04385  1.0000
  C   C553      1.0  0.80960  0.51035  0.41470  1.0000
  H   H639      1.0  0.88914  0.38611  0.02566  1.0000
  C   C554      1.0  0.75944  0.33835  0.47348  1.0000
  C   C555      1.0  0.77104  0.51083  0.37829  1.0000
  H   H640      1.0  0.94066  0.30842  0.22899  1.0000
  H   H641      1.0  0.81075  0.33102  0.48028  1.0000
  H   H642      1.0  0.73245  0.46205  0.37522  1.0000
  H   H643      1.0  0.94853  0.35840  0.23199  1.0000
  S   S155      1.0  0.68793  0.46640  0.16219  1.0000
  H   H644      1.0  0.94212  0.40041  0.19122  1.0000
  C   C556      1.0  0.76187  0.50744  0.13255  1.0000
  H   H645      1.0  0.85651  0.45810  0.08616  1.0000
  H   H646      1.0  0.90933  0.27073  0.19621  1.0000
  H   H647      1.0  0.83386  0.33861  0.51079  1.0000
  H   H648      1.0  0.92900  0.21233  0.13112  1.0000
  H   H649      1.0  0.84176  0.41281  0.08729  1.0000
  H   H650      1.0  0.99644  0.49939  0.46224  1.0000
  H   H651      1.0  0.70897  0.48869  0.35161  1.0000
  H   H652      1.0  0.95496  0.26774  0.12297  1.0000
  H   H653      1.0  0.85667  0.27429  0.02467  1.0000
  C   C557      1.0  0.87427  0.36850  0.03038  1.0000
  S   S156      1.0  0.01543  0.30318  0.33947  1.0000
  H   H654      1.0  0.93455  0.37897  0.15886  1.0000
  H   H655      1.0  0.87557  0.41598  0.09205  1.0000
  H   H656      1.0  0.70574  0.39061  0.45139  1.0000
  H   H657      1.0  0.94976  0.05897  0.05757  1.0000
  H   H658      1.0  0.72820  0.33482  0.43867  1.0000
  C   C558      1.0  0.77918  0.48101  0.48142  1.0000
  C   C559      1.0  0.73395  0.40116  0.48771  1.0000
  C   C560      1.0  0.77063  0.35798  0.49756  1.0000
  H   H659      1.0  0.72426  0.42620  0.49276  1.0000
  Fe  Fe79      1.0  0.92241  0.39521  0.50891  1.0000
  C   C561      1.0  0.01537  0.51090  0.46468  1.0000
  Fe  Fe80      1.0  0.69128  0.49692  0.43197  1.0000
  C   C562      1.0  0.72970  0.48352  0.35856  1.0000
  C   C563      1.0  0.78512  0.49185  0.36214  1.0000
  H   H660      1.0  0.81441  0.42689  0.04253  1.0000
  C   C564      1.0  0.81046  0.48177  0.37227  1.0000
  S   S157      1.0  0.96135  0.38796  0.50045  1.0000
  C   C565      1.0  0.73626  0.34994  0.45712  1.0000
  H   H661      1.0  0.01792  0.40279  0.23264  1.0000
  H   H662      1.0  0.98209  0.47371  0.51141  1.0000
  H   H663      1.0  0.84196  0.48171  0.40677  1.0000
  C   C566      1.0  0.00656  0.39410  0.26992  1.0000
  H   H664      1.0  0.98670  0.48099  0.41528  1.0000
  H   H665      1.0  0.82506  0.29761  0.04825  1.0000
  C   C567      1.0  0.82259  0.49071  0.39858  1.0000
  H   H666      1.0  0.99410  0.43311  0.40731  1.0000
  C   C568      1.0  0.72354  0.38127  0.46425  1.0000
  C   C569      1.0  0.85616  0.30455  0.02936  1.0000
  H   H667      1.0  0.96838  0.32617  0.21912  1.0000
  H   H668      1.0  0.98991  0.39069  0.30418  1.0000
  H   H669      1.0  0.95754  0.32550  0.14931  1.0000
  H   H670      1.0  0.96486  0.37051  0.18170  1.0000
  N   N37       1.0  0.93319  0.33983  0.19139  1.0000
  C   C570      1.0  0.90699  0.35018  0.19278  1.0000
  C   C571      1.0  0.94833  0.33281  0.21905  1.0000
  C   C572      1.0  0.94420  0.37372  0.18024  1.0000
  C   C573      1.0  0.93298  0.30467  0.17526  1.0000
  C   C574      1.0  0.94653  0.30194  0.15465  1.0000
  C   C575      1.0  0.91936  0.27143  0.18031  1.0000
  C   C576      1.0  0.94536  0.26868  0.13932  1.0000
  C   C577      1.0  0.91803  0.23854  0.16456  1.0000
  C   C578      1.0  0.93080  0.23733  0.14394  1.0000
  H   H671      1.0  0.89843  0.32926  0.20464  1.0000
  H   H672      1.0  0.90644  0.37836  0.20285  1.0000
  H   H673      1.0  0.89433  0.35225  0.17232  1.0000
  H   H674      1.0  0.73550  0.47003  0.34139  1.0000
  C   C579      1.0  0.93070  0.02396  0.08175  1.0000
  H   H675      1.0  0.77806  0.49893  0.49824  1.0000
  C   C580      1.0  0.75719  0.39003  0.50413  1.0000
  C   C581      1.0  0.85057  0.04884  0.02241  1.0000
  C   C582      1.0  0.78304  0.49494  0.12345  1.0000
  H   H676      1.0  0.87509  0.47821  0.05076  1.0000
  C   C583      1.0  0.83085  0.44081  0.03661  1.0000
  S   S158      1.0  0.83325  0.49318  0.12189  1.0000
  H   H677      1.0  0.74310  0.49699  0.12316  1.0000
  C   C584      1.0  0.83835  0.31779  0.04272  1.0000
  H   H678      1.0  0.82978  0.47196  0.04107  1.0000
  S   S159      1.0  0.90070  0.50335  0.11052  1.0000
  H   H679      1.0  0.01350  0.03387  0.14668  1.0000
  H   H680      1.0  0.78035  0.47487  0.10704  1.0000
  C   C585      1.0  0.81507  0.34836  0.49888  1.0000
  H   H681      1.0  0.87069  0.05804  0.02812  1.0000
  H   H682      1.0  0.78993  0.28465  0.50544  1.0000
  H   H683      1.0  0.01560  0.22729  0.27218  1.0000
  H   H684      1.0  0.99151  0.51259  0.20460  1.0000
  S   S160      1.0  0.73967  0.06034  0.67898  1.0000
  S   S161      1.0  0.72710  0.08340  0.97181  1.0000
  C   C586      1.0  0.81098  0.02061  0.73062  1.0000
  H   H685      1.0  0.98442  0.30266  0.89302  1.0000
  H   H686      1.0  0.96023  0.13429  0.57463  1.0000
  H   H687      1.0  0.94561  0.27104  0.99495  1.0000
  H   H688      1.0  0.84330  0.05507  0.96783  1.0000
  H   H689      1.0  0.99195  0.05099  0.55810  1.0000
  S   S162      1.0  0.92170  0.39201  0.55272  1.0000
  S   S163      1.0  0.86198  0.41508  0.53416  1.0000
  Fe  Fe81      1.0  0.89931  0.44643  0.54420  1.0000
  S   S164      1.0  0.90722  0.49292  0.57584  1.0000
  Fe  Fe82      1.0  0.88468  0.36049  0.53911  1.0000
  S   S165      1.0  0.86776  0.31226  0.56018  1.0000
  S   S166      1.0  0.97883  0.18278  0.89318  1.0000
  Fe  Fe83      1.0  0.90925  0.10551  0.62565  1.0000
  S   S167      1.0  0.88228  0.10774  0.65303  1.0000
  S   S168      1.0  0.92121  0.15251  0.59963  1.0000
  Fe  Fe84      1.0  0.91341  0.07817  0.68330  1.0000
  S   S169      1.0  0.92285  0.09255  0.72766  1.0000
  H   H690      1.0  0.94109  0.07961  0.59303  1.0000
  S   S170      1.0  0.94097  0.08000  0.65710  1.0000
  C   C587      1.0  0.76441  0.05130  0.66270  1.0000
  C   C588      1.0  0.78729  0.07193  0.67050  1.0000
  C   C589      1.0  0.80769  0.06458  0.65862  1.0000
  H   H691      1.0  0.78929  0.09345  0.68593  1.0000
  H   H692      1.0  0.82516  0.08072  0.66449  1.0000
  C   C590      1.0  0.99515  0.15886  0.76781  1.0000
  C   C591      1.0  0.98995  0.15118  0.74019  1.0000
  C   C592      1.0  0.96787  0.13095  0.72759  1.0000
  C   C593      1.0  0.95083  0.11815  0.74260  1.0000
  C   C594      1.0  0.95607  0.12581  0.77024  1.0000
  C   C595      1.0  0.97811  0.14614  0.78281  1.0000
  N   N38       1.0  0.73045  0.14707  0.61668  1.0000
  H   H693      1.0  0.96392  0.12559  0.70628  1.0000
  H   H694      1.0  0.94297  0.11617  0.78199  1.0000
  H   H695      1.0  0.98185  0.15204  0.80408  1.0000
  C   C596      1.0  0.88312  0.26828  0.57145  1.0000
  C   C597      1.0  0.90634  0.25866  0.56592  1.0000
  C   C598      1.0  0.91770  0.22315  0.57478  1.0000
  C   C599      1.0  0.90610  0.19699  0.58939  1.0000
  C   C600      1.0  0.88292  0.20666  0.59505  1.0000
  C   C601      1.0  0.87147  0.24210  0.58603  1.0000
  H   H696      1.0  0.91547  0.27846  0.55467  1.0000
  H   H697      1.0  0.93560  0.21595  0.57027  1.0000
  H   H698      1.0  0.87383  0.18681  0.60629  1.0000
  H   H699      1.0  0.85354  0.24932  0.59045  1.0000
  H   H700      1.0  0.89362  0.05341  0.76189  1.0000
  H   H701      1.0  0.98509  0.41312  0.55581  1.0000
  C   C602      1.0  0.85499  0.03092  0.97833  1.0000
  C   C603      1.0  0.96862  0.18094  0.97971  1.0000
  C   C604      1.0  0.94830  0.17250  0.95817  1.0000
  C   C605      1.0  0.95187  0.17260  0.93181  1.0000
  C   C606      1.0  0.97578  0.18061  0.92680  1.0000
  C   C607      1.0  0.99627  0.18797  0.94840  1.0000
  C   C608      1.0  0.99263  0.18846  0.97475  1.0000
  H   H702      1.0  0.92974  0.16669  0.96177  1.0000
  H   H703      1.0  0.93595  0.16677  0.91519  1.0000
  C   C609      1.0  0.95496  0.06149  0.58596  1.0000
  H   H704      1.0  0.81153  0.29474  0.53647  1.0000
  C   C610      1.0  0.75807  0.09796  0.97028  1.0000
  C   C611      1.0  0.76638  0.09675  0.94642  1.0000
  C   C612      1.0  0.79118  0.10875  0.94610  1.0000
  C   C613      1.0  0.80786  0.12206  0.96956  1.0000
  C   C614      1.0  0.79948  0.12344  0.99339  1.0000
  C   C615      1.0  0.77473  0.11131  0.99374  1.0000
  H   H705      1.0  0.75372  0.08660  0.92821  1.0000
  H   H706      1.0  0.71467  0.17340  0.57836  1.0000
  H   H707      1.0  0.82248  0.35781  0.55153  1.0000
  H   H708      1.0  0.72385  0.20690  0.60537  1.0000
  C   C616      1.0  0.77261  0.17828  0.61719  1.0000
  C   C617      1.0  0.76619  0.11254  0.60192  1.0000
  H   H709      1.0  0.99346  0.13363  0.57430  1.0000
  C   C618      1.0  0.79084  0.11225  0.59789  1.0000
  C   C619      1.0  0.84749  0.07106  0.76264  1.0000
  H   H710      1.0  0.00843  0.19487  0.99136  1.0000
  C   C620      1.0  0.98399  0.48012  0.57805  1.0000
  C   C621      1.0  0.80547  0.03621  0.63911  1.0000
  H   H711      1.0  0.97586  0.50921  0.57797  1.0000
  C   C622      1.0  0.96833  0.27768  0.93846  1.0000
  H   H712      1.0  0.81201  0.13402  0.01153  1.0000
  S   S171      1.0  0.01343  0.24038  0.84782  1.0000
  H   H713      1.0  0.95661  0.03427  0.59776  1.0000
  C   C623      1.0  0.73217  0.15523  0.64545  1.0000
  H   H714      1.0  0.79747  0.10772  0.92756  1.0000
  C   C624      1.0  0.83549  0.02461  0.72529  1.0000
  H   H715      1.0  0.72385  0.15880  0.98954  1.0000
  H   H716      1.0  0.87151  0.10592  0.73004  1.0000
  H   H717      1.0  0.70788  0.05114  0.78745  1.0000
  H   H718      1.0  0.79025  0.36632  0.55236  1.0000
  H   H719      1.0  0.97021  0.10790  0.54977  1.0000
  H   H720      1.0  0.01482  0.19339  0.94477  1.0000
  C   C625      1.0  0.78237  0.01629  0.63082  1.0000
  H   H721      1.0  0.83025  0.08905  0.75622  1.0000
  H   H722      1.0  0.86501  0.07237  0.70322  1.0000
  N   N39       1.0  0.85456  0.05271  0.73936  1.0000
  N   N40       1.0  0.84628  0.01765  0.00236  1.0000
  H   H723      1.0  0.77800  0.30045  0.53348  1.0000
  H   H724      1.0  0.80696  0.39885  0.53447  1.0000
  H   H725      1.0  0.99854  0.47661  0.59718  1.0000
  H   H726      1.0  0.01679  0.29623  0.89246  1.0000
  H   H727      1.0  0.00017  0.25796  0.90452  1.0000
  H   H728      1.0  0.76649  0.20440  0.62488  1.0000
  H   H729      1.0  0.74509  0.13459  0.65858  1.0000
  H   H730      1.0  0.98560  0.30581  0.01361  1.0000
  H   H731      1.0  0.98037  0.15288  0.61524  1.0000
  C   C626      1.0  0.98068  0.29862  0.99248  1.0000
  C   C627      1.0  0.01390  0.34707  0.92986  1.0000
  C   C628      1.0  0.79348  0.30451  0.52277  1.0000
  C   C629      1.0  0.80639  0.14453  0.60368  1.0000
  H   H732      1.0  0.80824  0.03737  0.98511  1.0000
  C   C630      1.0  0.97589  0.11590  0.57134  1.0000
  C   C631      1.0  0.99759  0.05585  0.58015  1.0000
  H   H733      1.0  0.75559  0.08604  0.59775  1.0000
  C   C632      1.0  0.71342  0.18297  0.99602  1.0000
  S   S172      1.0  0.83908  0.13581  0.96827  1.0000
  H   H734      1.0  0.69575  0.17868  0.60264  1.0000
  H   H735      1.0  0.79822  0.08636  0.59092  1.0000
  H   H736      1.0  0.96798  0.45999  0.57858  1.0000
  H   H737      1.0  0.83940  0.09808  0.71160  1.0000
  C   C633      1.0  0.00667  0.07017  0.66464  1.0000
  C   C634      1.0  0.98836  0.12909  0.62802  1.0000
  H   H738      1.0  0.73950  0.18455  0.65122  1.0000
  S   S173      1.0  0.90603  0.11258  0.01171  1.0000
  N   N41       1.0  0.99493  0.47335  0.55445  1.0000
  H   H739      1.0  0.84422  0.04916  0.77750  1.0000
  S   S174      1.0  0.89611  0.04737  0.60879  1.0000
  Fe  Fe85      1.0  0.87118  0.04781  0.63852  1.0000
  S   S175      1.0  0.69350  0.04585  0.83769  1.0000
  H   H740      1.0  0.82564  0.14373  0.60099  1.0000
  C   C635      1.0  0.75629  0.14573  0.61173  1.0000
  C   C636      1.0  0.95170  0.26945  0.95496  1.0000
  S   S176      1.0  0.90015  0.01814  0.67099  1.0000
  C   C637      1.0  0.00165  0.43200  0.55502  1.0000
  C   C638      1.0  0.98918  0.09122  0.61807  1.0000
  C   C639      1.0  0.79728  0.17755  0.61324  1.0000
  Fe  Fe86      1.0  0.69716  0.06276  0.93589  1.0000
  H   H741      1.0  0.99551  0.16594  0.66260  1.0000
  H   H742      1.0  0.00293  0.16131  0.72846  1.0000
  C   C640      1.0  0.97515  0.48057  0.52964  1.0000
  H   H743      1.0  0.96262  0.26748  0.91806  1.0000
  H   H744      1.0  0.01270  0.04701  0.67895  1.0000
  Fe  Fe87      1.0  0.87066  0.14839  0.00501  1.0000
  N   N42       1.0  0.01036  0.30498  0.93206  1.0000
  N   N43       1.0  0.97964  0.08158  0.58933  1.0000
  H   H745      1.0  0.01209  0.11382  0.69488  1.0000
  C   C641      1.0  0.99690  0.13703  0.65539  1.0000
  C   C642      1.0  0.00247  0.28976  0.90436  1.0000
  H   H746      1.0  0.80956  0.20253  0.61783  1.0000
  H   H747      1.0  0.71329  0.10311  0.58864  1.0000
  H   H748      1.0  0.71339  0.15267  0.65069  1.0000
  C   C643      1.0  0.80395  0.36813  0.53926  1.0000
  H   H749      1.0  0.76846  0.11237  0.01229  1.0000
  Fe  Fe88      1.0  0.69915  0.03936  0.66336  1.0000
  H   H750      1.0  0.93430  0.25363  0.94704  1.0000
  S   S177      1.0  0.83094  0.02485  0.62445  1.0000
  C   C644      1.0  0.00616  0.10769  0.67363  1.0000
  H   H751      1.0  0.87480  0.04194  0.98346  1.0000
  C   C645      1.0  0.99187  0.29673  0.94864  1.0000
  C   C646      1.0  0.95801  0.27935  0.98198  1.0000
  C   C647      1.0  0.71590  0.11071  0.61016  1.0000
  H   H752      1.0  0.86271  0.09078  0.77341  1.0000
  C   C648      1.0  0.71562  0.17790  0.60008  1.0000
  C   C649      1.0  0.85770  0.08358  0.72023  1.0000
  Fe  Fe89      1.0  0.01526  0.19504  0.87995  1.0000
  H   H753      1.0  0.99558  0.36133  0.92081  1.0000
  H   H754      1.0  0.69654  0.11275  0.61399  1.0000
  C   C650      1.0  0.76187  0.02384  0.64251  1.0000
  C   C651      1.0  0.99819  0.06192  0.63735  1.0000
  H   H755      1.0  0.88820  0.02433  0.73314  1.0000
  S   S178      1.0  0.96445  0.18415  0.01284  1.0000
  H   H756      1.0  0.00745  0.42334  0.53645  1.0000
  H   H757      1.0  0.01470  0.32235  0.98519  1.0000
  H   H758      1.0  0.95800  0.46242  0.52901  1.0000
  C   C652      1.0  0.99729  0.30758  0.97607  1.0000
  H   H759      1.0  0.72534  0.08644  0.62280  1.0000
  C   C653      1.0  0.87937  0.03363  0.74957  1.0000
  H   H760      1.0  0.99772  0.03206  0.63173  1.0000
  H   H761      1.0  0.72070  0.20981  0.98841  1.0000
  H   H762      1.0  0.96891  0.51093  0.52786  1.0000
  S   S179      1.0  0.89187  0.20483  0.01228  1.0000
  H   H763      1.0  0.80482  0.03767  0.74534  1.0000
  H   H764      1.0  0.88831  0.31900  0.01349  1.0000
  H   H765      1.0  0.68767  0.11783  0.99331  1.0000
  H   H766      1.0  0.76433  0.40753  0.52155  1.0000
  H   H767      1.0  0.94656  0.05422  0.56463  1.0000
  H   H768      1.0  0.69295  0.15148  0.95068  1.0000
  H   H769      1.0  0.83961  0.07497  0.01456  1.0000
  C   C654      1.0  0.01669  0.49962  0.55490  1.0000
  H   H770      1.0  0.01699  0.42476  0.57286  1.0000
  C   C655      1.0  0.68797  0.04359  0.78315  1.0000
  H   H771      1.0  0.99829  0.02669  0.58937  1.0000
  Fe  Fe90      1.0  0.92589  0.02169  0.64236  1.0000
  H   H772      1.0  0.82812  0.43770  0.01451  1.0000
  H   H773      1.0  0.01711  0.06814  0.58503  1.0000
  H   H774      1.0  0.69389  0.67876  0.07332  1.0000
  S   S180      1.0  0.98854  0.82806  0.08391  1.0000
  Fe  Fe91      1.0  0.92792  0.53486  0.14328  1.0000
  S   S181      1.0  0.00351  0.85686  0.14665  1.0000
  Fe  Fe92      1.0  0.99238  0.80062  0.12475  1.0000
  S   S182      1.0  0.96049  0.76391  0.13444  1.0000
  Fe  Fe93      1.0  0.00314  0.88195  0.10584  1.0000
  S   S183      1.0  0.99670  0.94113  0.08667  1.0000
  H   H775      1.0  0.00113  0.94826  0.14558  1.0000
  H   H776      1.0  0.99277  0.55084  0.18106  1.0000
  H   H777      1.0  0.72751  0.65585  0.10395  1.0000
  S   S184      1.0  0.95626  0.58036  0.13609  1.0000
  H   H778      1.0  0.72089  0.55385  0.33576  1.0000
  H   H779      1.0  0.98928  0.52918  0.25203  1.0000
  S   S185      1.0  0.90183  0.53221  0.17187  1.0000
  H   H780      1.0  0.70787  0.69794  0.16222  1.0000
  H   H781      1.0  0.82955  0.54513  0.16565  1.0000
  H   H782      1.0  0.00869  0.55202  0.49357  1.0000
  H   H783      1.0  0.95057  0.58412  0.22427  1.0000
  C   C656      1.0  0.84924  0.94753  0.01767  1.0000
  C   C657      1.0  0.93144  0.98947  0.09643  1.0000
  C   C658      1.0  0.01111  0.96226  0.16464  1.0000
  H   H784      1.0  0.97557  0.69859  0.19120  1.0000
  H   H785      1.0  0.71144  0.54427  0.37844  1.0000
  C   C659      1.0  0.95920  0.71286  0.13398  1.0000
  C   C660      1.0  0.93777  0.69379  0.13910  1.0000
  C   C661      1.0  0.93634  0.65328  0.13962  1.0000
  C   C662      1.0  0.95643  0.63141  0.13508  1.0000
  C   C663      1.0  0.97784  0.65049  0.13003  1.0000
  C   C664      1.0  0.97923  0.69093  0.12943  1.0000
  H   H786      1.0  0.92220  0.71050  0.14271  1.0000
  H   H787      1.0  0.91975  0.63906  0.14353  1.0000
  H   H788      1.0  0.99351  0.63387  0.12659  1.0000
  H   H789      1.0  0.99587  0.70511  0.12560  1.0000
  C   C665      1.0  0.97090  0.97206  0.08517  1.0000
  C   C666      1.0  0.76501  0.53410  0.15332  1.0000
  H   H790      1.0  0.99718  0.98195  0.17014  1.0000
  C   C667      1.0  0.95148  0.96347  0.09812  1.0000
  H   H791      1.0  0.72809  0.61674  0.12661  1.0000
  H   H792      1.0  0.95185  0.93689  0.10934  1.0000
  C   C668      1.0  0.01610  0.73335  0.48425  1.0000
  N   N44       1.0  0.98784  0.56959  0.21939  1.0000
  C   C669      1.0  0.73174  0.53797  0.38724  1.0000
  C   C670      1.0  0.81080  0.53441  0.15645  1.0000
  H   H793      1.0  0.69934  0.60999  0.15356  1.0000
  C   C671      1.0  0.95984  0.56510  0.21213  1.0000
  S   S186      1.0  0.73874  0.55309  0.16397  1.0000
  H   H794      1.0  0.89787  0.01197  0.02127  1.0000
  H   H795      1.0  0.73198  0.66324  0.16213  1.0000
  H   H796      1.0  0.99923  0.71891  0.47301  1.0000
  H   H797      1.0  0.95945  0.63524  0.19800  1.0000
  C   C672      1.0  0.99659  0.60914  0.21516  1.0000
  H   H798      1.0  0.98197  0.91129  0.02807  1.0000
  H   H799      1.0  0.90114  0.89474  0.04675  1.0000
  C   C673      1.0  0.68627  0.63189  0.14203  1.0000
  H   H800      1.0  0.72831  0.70381  0.13944  1.0000
  H   H801      1.0  0.95381  0.53516  0.21563  1.0000
  H   H802      1.0  0.95201  0.57153  0.19047  1.0000
  H   H803      1.0  0.79218  0.56819  0.18124  1.0000
  C   C674      1.0  0.71777  0.68222  0.14891  1.0000
  C   C675      1.0  0.71510  0.63714  0.11322  1.0000
  C   C676      1.0  0.78956  0.54750  0.16520  1.0000
  C   C677      1.0  0.74111  0.54594  0.34401  1.0000
  H   H804      1.0  0.92238  0.95626  0.04088  1.0000
  N   N45       1.0  0.74390  0.51954  0.36743  1.0000
  H   H805      1.0  0.01551  0.93950  0.18044  1.0000
  H   H806      1.0  0.74770  0.53293  0.32713  1.0000
  C   C678      1.0  0.99839  0.54249  0.20271  1.0000
  C   C679      1.0  0.98873  0.67612  0.20003  1.0000
  H   H807      1.0  0.70269  0.61941  0.09740  1.0000
  C   C680      1.0  0.97971  0.63934  0.20418  1.0000
  N   N46       1.0  0.69991  0.65976  0.12826  1.0000
  H   H808      1.0  0.75203  0.57300  0.34964  1.0000
  H   H809      1.0  0.74079  0.56600  0.39415  1.0000
  C   C681      1.0  0.01461  0.68396  0.20639  1.0000
  H   H810      1.0  0.91634  0.98276  0.10636  1.0000
  Fe  Fe94      1.0  0.69898  0.52725  0.15490  1.0000
  C   C682      1.0  0.97021  0.00661  0.07066  1.0000
  C   C683      1.0  0.99664  0.55818  0.24804  1.0000
  H   H811      1.0  0.99007  0.57897  0.26130  1.0000
  H   H812      1.0  0.01852  0.00262  0.12131  1.0000
  C   C684      1.0  0.90196  0.95369  0.03409  1.0000
  C   C685      1.0  0.89001  0.91907  0.03746  1.0000
  H   H813      1.0  0.99671  0.95718  0.02992  1.0000
  C   C686      1.0  0.99320  0.93061  0.01765  1.0000
  C   C687      1.0  0.01703  0.74574  0.51023  1.0000
  H   H814      1.0  0.77511  0.53404  0.41896  1.0000
  C   C688      1.0  0.86372  0.91596  0.02922  1.0000
  H   H815      1.0  0.85451  0.88898  0.03205  1.0000
  C   C689      1.0  0.88770  0.98544  0.02272  1.0000
  H   H816      1.0  0.81899  0.51637  0.43538  1.0000
  H   H817      1.0  0.73226  0.51908  0.40506  1.0000
  C   C690      1.0  0.78418  0.52024  0.40490  1.0000
  H   H818      1.0  0.98527  0.01357  0.06074  1.0000
  H   H819      1.0  0.01761  0.55659  0.25453  1.0000
  H   H820      1.0  0.87689  0.60895  0.51543  1.0000
  H   H821      1.0  0.82702  0.95951  0.67394  1.0000
  C   C691      1.0  0.93653  0.55584  0.59447  1.0000
  S   S187      1.0  0.97965  0.69707  0.63162  1.0000
  H   H822      1.0  0.94777  0.58420  0.52484  1.0000
  S   S188      1.0  0.00046  0.73605  0.58267  1.0000
  Fe  Fe95      1.0  0.98853  0.75705  0.61927  1.0000
  S   S189      1.0  0.95559  0.79906  0.61559  1.0000
  Fe  Fe96      1.0  0.99434  0.67628  0.59685  1.0000
  S   S190      1.0  0.97656  0.63603  0.56299  1.0000
  H   H823      1.0  0.85841  0.00428  0.69841  1.0000
  H   H824      1.0  0.00106  0.74079  0.51927  1.0000
  C   C692      1.0  0.92560  0.53361  0.57193  1.0000
  H   H825      1.0  0.86921  0.73064  0.57042  1.0000
  S   S191      1.0  0.95727  0.97978  0.63854  1.0000
  H   H826      1.0  0.86849  0.56194  0.54889  1.0000
  C   C693      1.0  0.87982  0.60054  0.58207  1.0000
  H   H827      1.0  0.96052  0.60453  0.60954  1.0000
  H   H828      1.0  0.92087  0.52756  0.52930  1.0000
  C   C694      1.0  0.79904  0.97240  0.69612  1.0000
  H   H829      1.0  0.68972  0.95757  0.77028  1.0000
  H   H830      1.0  0.87743  0.00799  0.76210  1.0000
  C   C695      1.0  0.92955  0.54413  0.54682  1.0000
  H   H831      1.0  0.89287  0.64232  0.61176  1.0000
  H   H832      1.0  0.87658  0.57932  0.59661  1.0000
  C   C696      1.0  0.95660  0.84914  0.62275  1.0000
  C   C697      1.0  0.93372  0.86867  0.62150  1.0000
  C   C698      1.0  0.93352  0.90845  0.62658  1.0000
  C   C699      1.0  0.95626  0.92932  0.63279  1.0000
  C   C700      1.0  0.97914  0.90981  0.63399  1.0000
  C   C701      1.0  0.97935  0.86997  0.62913  1.0000
  H   H833      1.0  0.91600  0.85294  0.61657  1.0000
  H   H834      1.0  0.91578  0.92299  0.62550  1.0000
  H   H835      1.0  0.99685  0.92559  0.63876  1.0000
  H   H836      1.0  0.99709  0.85545  0.63014  1.0000
  C   C702      1.0  0.95604  0.59804  0.56692  1.0000
  C   C703      1.0  0.94466  0.57632  0.54433  1.0000
  S   S192      1.0  0.69854  0.01028  0.91136  1.0000
  C   C704      1.0  0.95180  0.58794  0.59202  1.0000
  H   H837      1.0  0.00901  0.98865  0.99567  1.0000
  H   H838      1.0  0.01008  0.52243  0.72497  1.0000
  H   H839      1.0  0.92858  0.70633  0.55058  1.0000
  N   N47       1.0  0.90555  0.70311  0.58002  1.0000
  C   C705      1.0  0.90995  0.71007  0.60935  1.0000
  C   C706      1.0  0.93027  0.70733  0.57258  1.0000
  C   C707      1.0  0.01419  0.53979  0.55804  1.0000
  C   C708      1.0  0.89467  0.66466  0.57186  1.0000
  H   H840      1.0  0.78047  0.99447  0.61557  1.0000
  H   H841      1.0  0.69196  0.95300  0.81788  1.0000
  C   C709      1.0  0.82281  0.97574  0.69035  1.0000
  H   H842      1.0  0.89347  0.67289  0.52924  1.0000
  H   H843      1.0  0.77421  0.99325  0.71977  1.0000
  H   H844      1.0  0.91837  0.73906  0.61486  1.0000
  H   H845      1.0  0.89198  0.70875  0.61626  1.0000
  H   H846      1.0  0.92358  0.68910  0.62116  1.0000
  H   H847      1.0  0.94323  0.68379  0.58164  1.0000
  H   H848      1.0  0.93980  0.73509  0.57956  1.0000
  C   C710      1.0  0.87522  0.59062  0.55510  1.0000
  H   H849      1.0  0.89580  0.76278  0.57246  1.0000
  H   H850      1.0  0.69593  0.92729  0.85957  1.0000
  C   C711      1.0  0.88939  0.63695  0.59050  1.0000
  H   H851      1.0  0.00090  0.88194  0.97918  1.0000
  C   C712      1.0  0.88961  0.65360  0.54449  1.0000
  H   H852      1.0  0.78486  0.95341  0.68437  1.0000
  H   H853      1.0  0.93336  0.54794  0.61393  1.0000
  H   H854      1.0  0.88584  0.73274  0.54391  1.0000
  H   H855      1.0  0.81371  0.98842  0.97826  1.0000
  H   H856      1.0  0.81040  0.00267  0.01132  1.0000
  C   C713      1.0  0.88831  0.73353  0.56605  1.0000
  C   C714      1.0  0.88008  0.61710  0.53633  1.0000
  C   C715      1.0  0.81848  0.01091  0.99394  1.0000
  H   H857      1.0  0.01186  0.59129  0.65594  1.0000
  H   H858      1.0  0.98796  0.55869  0.68549  1.0000
  C   C716      1.0  0.84073  0.00158  0.70454  1.0000
  C   C717      1.0  0.00841  0.55625  0.68982  1.0000
  H   H859      1.0  0.99650  0.55214  0.55985  1.0000
  C   C718      1.0  0.79313  0.99483  0.71615  1.0000
  H   H860      1.0  0.85391  0.00735  0.96360  1.0000
  H   H861      1.0  0.82899  0.94320  0.01195  1.0000
  H   H862      1.0  0.74435  0.00777  0.63634  1.0000
  H   H863      1.0  0.98100  0.93762  0.99756  1.0000
  C   C719      1.0  0.86088  0.98339  0.01413  1.0000
  H   H864      1.0  0.99838  0.85737  0.00973  1.0000
  C   C720      1.0  0.01078  0.87620  0.00043  1.0000
  N   N48       1.0  0.01734  0.91253  0.01545  1.0000
