data_image0
_chemical_formula_structural       Fe2S2CH2S2FeSHFeS2FeSFeS3FeS2FeSHFeHFeS3C2HFeS2FeS2FeHFeS4HC4H3C6H4C2NCHC4H2C7H4C6H5C2SC6H5NC10H9CH2C2NH2CH3C3HCHCHFeSHC2H4NC8H13NC2NHC2H2CN2H5CH3CNC5SH13SHSH4CH3CHSC2H5CH2C2H3C6H3CH3CH2CH3CH4SHCH3NH4CH2C2H3C5H2CFeS2FeS2FeSFeS3CSCSHFe2SCFeSHFeS2FeSFeS3FeSCFeS2FeHFeS4C6H4C6H4CH2CH2C7H5CHC2H2CHC6H7CSH2FeC2H2CH4CH4CSH5SCHNC2HSCHC2HCHCH2CH2CH2CNH2C2H2CHCHC3HCH6C5H3CSH6CHCHC2H2CNC9H14NH2C2H3CH2CHCH2C2HC2SH4FeH3CHSC4HFeCFeS2FeSNFeSFeS2HFeS2FeS2FeSFeS3C7H4C2H4C7H7CHC2SNCH3C4HCHNH2CSCH2C2H5CH3C4HCSHC2HSC3H2CHCHC2HCH3C2HCHCH5CHCH5CH4CH4CHCH4C2HCH3CHFeSHFeS2FeHFeS3CFeS2FeS2FeSFeS3H2C2H2C7H4C6H4CHC5H3CH2NCH2C3H4CHCH5C2H2CH2C2H2CH2C3H2CHCNCH2C2HC2H2NC2H4CSC2H3CH2CHC3NHCH2C2HCHCNC2HC3HCHCHC2HCHCSH2CHC3H4C2H3CH2CHC4HCHC3HNC2FeS2FeSCFeSFeS2FeS2FeS2FeSFeS3C6H7C4HC4H5C6H4CH2CHC2H2NHCHC2NC8H12CH2CHC2H2C5SH2CNH2CHC2H4C2HCNC2HCHSH2CHCHCHSH3CH2CHCH3CSH2C2H3CHC5HCHCHCH2C2HC2FeS2FeS2FeSFeS2FeS2FeS2FeSFeS3C3SC2H2C6H5CH3NHC5H4NC5H2C7H4CH3CNHC2H3CHCH2C3HCH4C3HNC9H4CHC2H9C3H13CH4CH4CHCH2C3H3CN2HC2HCH3SHCH3CH4CH2C4H3FeS2FeSFeSFeS3H2SHSC2FeSCFeS2FeS2FeSFeS3FeS2FeSHFeSFeS3HC2HCHC6H4C6H4C2HC6H8C3H3C7HCHCH4CFeSCHFeNC2HCHCHC2HC5HCNHCHSHCHC3HSHNCHCH6CHNC9H16CHCH2CHCNHNC5HCHCH5CH3C2H3NC9H12CHCH6CH3CH3FeHC5HCSH4CSCH2CHSH3CH3FeS2HCSHS2FeS2FeS2FeSFeS3FeS2FeSHFeSFeS3HCFeS2FeS2Fe2S3H2C4H3C6H5C7H4C6H4FeH3C6H4C2HC2H3CH6CH4CFeHC3H2CH4C3HC4SC2H2NC9H15CH2C4HNH2CHCH3CHNCFeH4NC8H14CHC2HC2HNHCHNHCHC4H5CH4C2HCHCHC2HC2H4SHC3H2NHCNH7C2H2C2H2SC2FeS2FeS2FeSFeS3FeS2H2FeSHSCHFeSFeS4HFeS2FeS2FeSFeS3C6H4C6H4C6H4C2H2C6H4C6H4C6H4NC4HCH9CH3NCNH3CHCHC3NHC2H5CHC2HCNCHC2HFeC3SH2CH3NC6H2CH10NC3HCH3C2H2CHCHFeH2SCH7CH2CHCHCSHCH4CHCH8CHC2H2CHCH4C2NH2NC2H2CH4CFeCSC2FeC2SH2CH2CH4CHCHCHCHSH2C2H2FeCS2FeSFeS2HFeS2FeS2FeSFeS3H3SHFeS2FeS2FeSFeHS2H2FeS2FeS3HCH3C6H4C6H4C6H4C6H4C6H4C6H4SC3H2CHSC2HC2HCH3CHCH2CHC4H5CHC3H2NC3HC2H2C2HCHSNH4CFeCSHCHCHCH5C2NC4H2NH2NHCHC3HCH2CH3CH2C2H5CHCH2CH5CH2CH2CNH2CFeCHSH2CFeH3CH2CSH5C2HCFeS2FeS2Fe2S3HFeS2FeS2FeSFeS4C2HCHNHC6H4C6H4C6H4C5H4CHC4H2CHC3HC2NC2H5CH3C3NHCHC6H2CHCH5NCHCH4C2H2C3H2C2H3CH3CH2CH2C2HCH10CHC6H6CHSCNHCSFeS2FeSHFeSFeS3HFeS2FeS2FeSFeS3C2HC2H2C6H4C6H4C2H2CHCH2CH3C3HC6H6CHCH2C3HC2H2C2H2C2H2C2SCH3C3H2CHCHC2H2CHC2HC2H3C2NH3CH3NC9H9SCHC2H2CH2NCHNH2CH6CH4CH3FeS2FeS2FeSFeS2FeS2FeS2FeSFeS3C6H3C7H4CHC10H3C6H2C9H3CHCHNHNC2HCHCH2C4H3C2H2CH4CHC2HCH8C3H4C2H3NC9H17C2NC2HCH3CH4CH4CHCFeSFeS2FeSFeS3FeS2FeS2FeSFeS3HCH2CH3C6H4C6HC2HC6H4C6H3C6H7CHCH2NC3H6CH4CHCHNCHCHCHCNCH2C2H2C2H2CH2C2HC4HN2C6H5CH8C2H6CH2C2H2CH12CHCH3CH2NHC2NCH2CHS3FeSFeSCSFeS2FeS2Fe2S3H2CHFeS2FeS2FeSFeS3FeS2C2HFeSCSC4H2C6H4C6H4C6H4C6H4C6HSH2C6H4CH3NSH3NCSNC9H14SH2C3HCHFeH8CH2SH2C2NC9H14NC9H20CHCH4CHC2HSCH2SCHSHSC2HC4Fe2HC2H2CFeH2C2HCH5NH3CSH2FeS2FeS2FeSFeS3H2FeS2HFeSCSFeSFeSCS2HSFeS2FeS2FeSFeS2C6H4C6H2CHC6H4C6H4C6H4C2HC6H3CHC4NC6H2CH3CH5SHCH2NHC2H9C2HCH2CHC2HC2HFeH2NHCHSCH5CH4CNC4H4CH8FeHCHC5HNC6H14FeCH2C2H2CHCHNHCH2CH2CFeH3CHCSH2CH6CHC2H2CH3NH3
_chemical_formula_sum              "Fe192 S384 C1440 H1728 N96"
_cell_length_a       66.6369
_cell_length_b       59.5813
_cell_length_c       57.4727
_cell_angle_alpha    88.6967
_cell_angle_beta     89.5581
_cell_angle_gamma    88.7777

_space_group_name_H-M_alt    "P 1"
_space_group_IT_number       1

loop_
  _space_group_symop_operation_xyz
  'x, y, z'

loop_
  _atom_site_type_symbol
  _atom_site_label
  _atom_site_symmetry_multiplicity
  _atom_site_fract_x
  _atom_site_fract_y
  _atom_site_fract_z
  _atom_site_occupancy
  Fe  Fe1       1.0  0.03061  0.12304  0.47792  1.0000
  Fe  Fe2       1.0  0.06795  0.14324  0.45361  1.0000
  S   S1        1.0  0.08826  0.13342  0.48319  1.0000
  S   S2        1.0  0.07893  0.16565  0.42357  1.0000
  C   C1        1.0  0.23075  0.09403  0.34287  1.0000
  H   H1        1.0  0.04320  0.05655  0.47776  1.0000
  H   H2        1.0  0.12920  0.48683  0.22907  1.0000
  S   S3        1.0  0.05334  0.10944  0.45257  1.0000
  S   S4        1.0  0.04342  0.15794  0.47646  1.0000
  Fe  Fe3       1.0  0.20804  0.17397  0.30270  1.0000
  S   S5        1.0  0.19834  0.20705  0.28586  1.0000
  H   H3        1.0  0.02130  0.00284  0.43741  1.0000
  Fe  Fe4       1.0  0.17206  0.17517  0.33632  1.0000
  S   S6        1.0  0.15989  0.20821  0.32207  1.0000
  S   S7        1.0  0.16067  0.15231  0.36579  1.0000
  Fe  Fe5       1.0  0.16665  0.19427  0.28634  1.0000
  S   S8        1.0  0.14512  0.20451  0.25621  1.0000
  Fe  Fe6       1.0  0.19206  0.21922  0.32232  1.0000
  S   S9        1.0  0.20315  0.25458  0.33044  1.0000
  S   S10       1.0  0.17661  0.16046  0.30082  1.0000
  S   S11       1.0  0.20395  0.18700  0.33893  1.0000
  Fe  Fe7       1.0  0.19083  0.41303  0.41492  1.0000
  S   S12       1.0  0.21433  0.38543  0.41074  1.0000
  S   S13       1.0  0.19132  0.44351  0.38904  1.0000
  Fe  Fe8       1.0  0.17608  0.39173  0.46137  1.0000
  S   S14       1.0  0.19899  0.36344  0.46047  1.0000
  H   H4        1.0  0.09258  0.18356  0.04881  1.0000
  Fe  Fe9       1.0  0.22146  0.38947  0.44889  1.0000
  H   H5        1.0  0.05095  0.37301  0.10370  1.0000
  Fe  Fe10      1.0  0.19079  0.36104  0.42246  1.0000
  S   S15       1.0  0.18349  0.32549  0.41041  1.0000
  S   S16       1.0  0.19912  0.41819  0.45244  1.0000
  S   S17       1.0  0.16664  0.38822  0.42398  1.0000
  C   C2        1.0  0.12713  0.11593  0.00842  1.0000
  C   C3        1.0  0.06121  0.19574  0.02224  1.0000
  H   H6        1.0  0.12456  0.47361  0.47806  1.0000
  Fe  Fe11      1.0  0.08153  0.16731  0.13939  1.0000
  S   S18       1.0  0.06405  0.13949  0.12317  1.0000
  S   S19       1.0  0.10052  0.15700  0.17163  1.0000
  Fe  Fe12      1.0  0.06623  0.20149  0.10209  1.0000
  S   S20       1.0  0.04729  0.17629  0.08435  1.0000
  S   S21       1.0  0.07427  0.23660  0.08863  1.0000
  Fe  Fe13      1.0  0.03789  0.16405  0.12047  1.0000
  H   H7        1.0  0.19521  0.08156  0.36367  1.0000
  Fe  Fe14      1.0  0.07466  0.15340  0.08835  1.0000
  S   S22       1.0  0.08420  0.13274  0.05669  1.0000
  S   S23       1.0  0.05509  0.19151  0.13807  1.0000
  S   S24       1.0  0.09385  0.17901  0.10463  1.0000
  S   S25       1.0  0.23309  0.14986  0.28947  1.0000
  H   H8        1.0  0.07327  0.19377  0.46870  1.0000
  C   C4        1.0  0.10905  0.11767  0.02138  1.0000
  C   C5        1.0  0.10765  0.13083  0.04142  1.0000
  C   C6        1.0  0.12458  0.14248  0.04820  1.0000
  C   C7        1.0  0.14270  0.14061  0.03534  1.0000
  H   H9        1.0  0.23244  0.15256  0.00990  1.0000
  H   H10       1.0  0.17736  0.47982  0.42610  1.0000
  H   H11       1.0  0.12382  0.15269  0.06352  1.0000
  C   C8        1.0  0.04476  0.28552  0.03520  1.0000
  C   C9        1.0  0.03387  0.26743  0.04460  1.0000
  C   C10       1.0  0.04279  0.25186  0.06045  1.0000
  C   C11       1.0  0.06268  0.25445  0.06732  1.0000
  C   C12       1.0  0.07365  0.27238  0.05772  1.0000
  C   C13       1.0  0.06480  0.28777  0.04166  1.0000
  H   H12       1.0  0.01834  0.26558  0.03974  1.0000
  H   H13       1.0  0.03413  0.23825  0.06781  1.0000
  H   H14       1.0  0.08904  0.27452  0.06294  1.0000
  H   H15       1.0  0.07344  0.30149  0.03454  1.0000
  C   C14       1.0  0.11487  0.46387  0.02409  1.0000
  C   C15       1.0  0.15248  0.47053  0.29386  1.0000
  N   N1        1.0  0.14238  0.49713  0.26125  1.0000
  C   C16       1.0  0.08639  0.42944  0.01988  1.0000
  H   H16       1.0  0.22524  0.14052  0.33964  1.0000
  C   C17       1.0  0.22633  0.13633  0.00433  1.0000
  C   C18       1.0  0.24372  0.26452  0.38140  1.0000
  C   C19       1.0  0.17695  0.46491  0.37369  1.0000
  C   C20       1.0  0.15592  0.46541  0.37335  1.0000
  H   H17       1.0  0.22717  0.13183  0.37000  1.0000
  H   H18       1.0  0.14777  0.45228  0.38230  1.0000
  C   C21       1.0  0.11741  0.44706  0.00744  1.0000
  C   C22       1.0  0.11296  0.17074  0.19482  1.0000
  C   C23       1.0  0.11159  0.19397  0.19793  1.0000
  C   C24       1.0  0.12150  0.20387  0.21673  1.0000
  C   C25       1.0  0.13302  0.19082  0.23273  1.0000
  C   C26       1.0  0.13434  0.16758  0.22965  1.0000
  C   C27       1.0  0.12434  0.15767  0.21091  1.0000
  H   H19       1.0  0.10293  0.20434  0.18583  1.0000
  H   H20       1.0  0.12028  0.22184  0.21881  1.0000
  H   H21       1.0  0.14307  0.15721  0.24169  1.0000
  H   H22       1.0  0.12560  0.13970  0.20879  1.0000
  C   C28       1.0  0.19713  0.27422  0.35260  1.0000
  C   C29       1.0  0.18373  0.26935  0.37080  1.0000
  C   C30       1.0  0.17971  0.28533  0.38812  1.0000
  C   C31       1.0  0.18891  0.30642  0.38754  1.0000
  C   C32       1.0  0.20213  0.31141  0.36918  1.0000
  C   C33       1.0  0.20619  0.29539  0.35188  1.0000
  H   H23       1.0  0.17660  0.25321  0.37167  1.0000
  H   H24       1.0  0.16944  0.28126  0.40220  1.0000
  H   H25       1.0  0.20931  0.32750  0.36838  1.0000
  H   H26       1.0  0.21657  0.29939  0.33789  1.0000
  H   H27       1.0  0.07082  0.44604  0.04792  1.0000
  C   C34       1.0  0.14925  0.44311  0.43746  1.0000
  C   C35       1.0  0.21989  0.09783  0.01399  1.0000
  S   S26       1.0  0.08371  0.06437  0.48404  1.0000
  C   C36       1.0  0.10181  0.16169  0.40785  1.0000
  C   C37       1.0  0.11505  0.14369  0.41276  1.0000
  C   C38       1.0  0.13299  0.14111  0.39977  1.0000
  C   C39       1.0  0.13795  0.15649  0.38178  1.0000
  C   C40       1.0  0.12477  0.17459  0.37699  1.0000
  C   C41       1.0  0.10682  0.17714  0.38996  1.0000
  H   H28       1.0  0.11142  0.13166  0.42645  1.0000
  H   H29       1.0  0.14304  0.12706  0.40365  1.0000
  H   H30       1.0  0.12834  0.18653  0.36320  1.0000
  H   H31       1.0  0.09669  0.19110  0.38599  1.0000
  H   H32       1.0  0.13522  0.34698  0.28910  1.0000
  N   N2        1.0  0.05691  0.35416  0.07287  1.0000
  C   C42       1.0  0.04795  0.35188  0.04954  1.0000
  C   C43       1.0  0.04493  0.37103  0.08587  1.0000
  C   C44       1.0  0.07740  0.36312  0.06930  1.0000
  C   C45       1.0  0.05667  0.33229  0.08567  1.0000
  C   C46       1.0  0.03839  0.32071  0.08880  1.0000
  C   C47       1.0  0.07421  0.32192  0.09542  1.0000
  C   C48       1.0  0.03777  0.29994  0.10056  1.0000
  C   C49       1.0  0.07337  0.30118  0.10729  1.0000
  C   C50       1.0  0.05521  0.29022  0.10982  1.0000
  C   C51       1.0  0.22866  0.07118  0.33698  1.0000
  H   H33       1.0  0.04918  0.36762  0.03885  1.0000
  H   H34       1.0  0.05556  0.33812  0.03994  1.0000
  H   H35       1.0  0.02893  0.36630  0.08767  1.0000
  H   H36       1.0  0.04504  0.38782  0.07684  1.0000
  H   H37       1.0  0.07708  0.37933  0.05918  1.0000
  H   H38       1.0  0.08475  0.36665  0.08609  1.0000
  H   H39       1.0  0.08708  0.35132  0.05918  1.0000
  H   H40       1.0  0.12100  0.21914  0.45844  1.0000
  H   H41       1.0  0.02446  0.32741  0.08177  1.0000
  C   C52       1.0  0.16574  0.43318  0.28706  1.0000
  H   H42       1.0  0.06682  0.20540  0.49584  1.0000
  H   H43       1.0  0.11125  0.19858  0.03245  1.0000
  C   C53       1.0  0.23766  0.32812  0.43957  1.0000
  C   C54       1.0  0.20129  0.09821  0.36776  1.0000
  N   N3        1.0  0.09507  0.21695  0.48125  1.0000
  H   H44       1.0  0.16750  0.42350  0.25131  1.0000
  H   H45       1.0  0.16339  0.44769  0.48122  1.0000
  C   C55       1.0  0.22276  0.00133  0.45932  1.0000
  H   H46       1.0  0.24033  0.09143  0.05960  1.0000
  H   H47       1.0  0.15478  0.49666  0.22638  1.0000
  H   H48       1.0  0.15828  0.35082  0.50073  1.0000
  C   C56       1.0  0.21475  0.12636  0.04264  1.0000
  C   C57       1.0  0.18712  0.48217  0.36158  1.0000
  C   C58       1.0  0.07917  0.23777  0.00559  1.0000
  H   H49       1.0  0.17822  0.46276  0.46075  1.0000
  C   C59       1.0  0.06797  0.08833  0.15653  1.0000
  H   H50       1.0  0.00068  0.09756  0.43268  1.0000
  C   C60       1.0  0.16367  0.48990  0.42543  1.0000
  H   H51       1.0  0.05132  0.19690  0.00673  1.0000
  Fe  Fe15      1.0  0.07203  0.10064  0.48425  1.0000
  S   S27       1.0  0.00587  0.15737  0.13582  1.0000
  H   H52       1.0  0.22097  0.14131  0.05108  1.0000
  C   C61       1.0  0.08792  0.17462  0.00441  1.0000
  C   C62       1.0  0.10464  0.21594  0.45782  1.0000
  H   H53       1.0  0.24096  0.25011  0.37075  1.0000
  H   H54       1.0  0.11714  0.29133  0.48595  1.0000
  H   H55       1.0  0.06464  0.22248  0.46963  1.0000
  H   H56       1.0  0.16249  0.44749  0.32099  1.0000
  N   N4        1.0  0.14513  0.26883  0.28331  1.0000
  C   C63       1.0  0.13136  0.25376  0.29632  1.0000
  C   C64       1.0  0.13781  0.27091  0.25898  1.0000
  C   C65       1.0  0.16543  0.25813  0.28247  1.0000
  C   C66       1.0  0.14608  0.29049  0.29537  1.0000
  C   C67       1.0  0.15368  0.29117  0.31836  1.0000
  C   C68       1.0  0.13938  0.31124  0.28509  1.0000
  C   C69       1.0  0.15461  0.31130  0.33027  1.0000
  C   C70       1.0  0.14038  0.33132  0.29720  1.0000
  H   H57       1.0  0.13643  0.25020  0.31442  1.0000
  H   H58       1.0  0.11596  0.26125  0.29739  1.0000
  H   H59       1.0  0.13025  0.23717  0.28789  1.0000
  H   H60       1.0  0.12215  0.27772  0.25823  1.0000
  H   H61       1.0  0.13756  0.25421  0.25053  1.0000
  H   H62       1.0  0.14777  0.28166  0.24805  1.0000
  H   H63       1.0  0.17085  0.25278  0.29995  1.0000
  H   H64       1.0  0.16574  0.24268  0.27193  1.0000
  H   H65       1.0  0.17669  0.26976  0.27487  1.0000
  H   H66       1.0  0.15905  0.27607  0.32732  1.0000
  H   H67       1.0  0.13333  0.31242  0.26774  1.0000
  H   H68       1.0  0.99604  0.00652  0.50027  1.0000
  H   H69       1.0  0.16383  0.01989  0.47529  1.0000
  N   N5        1.0  0.14646  0.46267  0.45268  1.0000
  C   C71       1.0  0.14991  0.47485  0.26967  1.0000
  C   C72       1.0  0.09493  0.19815  0.03665  1.0000
  N   N6        1.0  0.21276  0.10819  0.34799  1.0000
  H   H70       1.0  0.21267  0.11304  0.05621  1.0000
  C   C73       1.0  0.19959  0.10962  0.32730  1.0000
  C   C74       1.0  0.16036  0.45008  0.30237  1.0000
  H   H71       1.0  0.21404  0.06380  0.33597  1.0000
  H   H72       1.0  0.08235  0.08040  0.15256  1.0000
  C   C75       1.0  0.09543  0.23953  0.49158  1.0000
  N   N7        1.0  0.08275  0.19642  0.01532  1.0000
  N   N8        1.0  0.22786  0.11887  0.02315  1.0000
  H   H73       1.0  0.20373  0.14151  0.35837  1.0000
  H   H74       1.0  0.02378  0.29102  0.10201  1.0000
  H   H75       1.0  0.18604  0.12046  0.33051  1.0000
  H   H76       1.0  0.14900  0.42701  0.44767  1.0000
  H   H77       1.0  0.10335  0.19897  0.45015  1.0000
  C   C76       1.0  0.14417  0.12726  0.01543  1.0000
  H   H78       1.0  0.18806  0.10903  0.37255  1.0000
  H   H79       1.0  0.23702  0.34451  0.39534  1.0000
  H   H80       1.0  0.22226  0.32991  0.43228  1.0000
  C   C77       1.0  0.15544  0.45721  0.25447  1.0000
  N   N9        1.0  0.04578  0.13154  0.19839  1.0000
  C   C78       1.0  0.02724  0.12771  0.21234  1.0000
  C   C79       1.0  0.06293  0.13094  0.21484  1.0000
  C   C80       1.0  0.04450  0.15426  0.18748  1.0000
  C   C81       1.0  0.04786  0.11480  0.17978  1.0000
  C   C82       1.0  0.23348  0.28882  0.41276  1.0000
  S   S28       1.0  0.15180  0.39888  0.48913  1.0000
  H   H81       1.0  0.24345  0.04009  0.32742  1.0000
  H   H82       1.0  0.17199  0.41739  0.29375  1.0000
  H   H83       1.0  0.05677  0.20945  0.03417  1.0000
  H   H84       1.0  0.09371  0.01775  0.48727  1.0000
  H   H85       1.0  0.02632  0.13870  0.22774  1.0000
  H   H86       1.0  0.01335  0.13162  0.20231  1.0000
  H   H87       1.0  0.06546  0.11380  0.22249  1.0000
  H   H88       1.0  0.06054  0.14271  0.22942  1.0000
  H   H89       1.0  0.05268  0.07221  0.12883  1.0000
  H   H90       1.0  0.04327  0.16762  0.20065  1.0000
  H   H91       1.0  0.05809  0.15763  0.17672  1.0000
  H   H92       1.0  0.03136  0.15625  0.17572  1.0000
  H   H93       1.0  0.09103  0.21357  0.04647  1.0000
  S   S29       1.0  0.99719  0.11415  0.48055  1.0000
  H   H94       1.0  0.02023  0.09182  0.13640  1.0000
  S   S30       1.0  0.06841  0.40789  0.01855  1.0000
  H   H95       1.0  0.07097  0.24045  0.02157  1.0000
  H   H96       1.0  0.08696  0.29312  0.11399  1.0000
  H   H97       1.0  0.08884  0.32923  0.09380  1.0000
  H   H98       1.0  0.15573  0.14946  0.04100  1.0000
  C   C83       1.0  0.03133  0.11015  0.16532  1.0000
  H   H99       1.0  0.10526  0.18329  0.49039  1.0000
  H   H100      1.0  0.21088  0.09610  0.38346  1.0000
  H   H101      1.0  0.20770  0.11688  0.31194  1.0000
  C   C84       1.0  0.14621  0.48346  0.43803  1.0000
  H   H102      1.0  0.02292  0.04548  0.46180  1.0000
  S   S31       1.0  0.03251  0.30519  0.01613  1.0000
  C   C85       1.0  0.16607  0.01168  0.49270  1.0000
  C   C86       1.0  0.06642  0.10374  0.17451  1.0000
  H   H103      1.0  0.22025  0.08384  0.02708  1.0000
  H   H104      1.0  0.07708  0.13645  0.20628  1.0000
  H   H105      1.0  0.22225  0.29219  0.42596  1.0000
  H   H106      1.0  0.21787  0.25914  0.40312  1.0000
  H   H107      1.0  0.05481  0.27378  0.11832  1.0000
  C   C87       1.0  0.07406  0.20947  0.47881  1.0000
  H   H108      1.0  0.13721  0.44259  0.42419  1.0000
  H   H109      1.0  0.12912  0.48317  0.36148  1.0000
  C   C88       1.0  0.09787  0.46351  0.03851  1.0000
  C   C89       1.0  0.16329  0.46288  0.46947  1.0000
  H   H110      1.0  0.09578  0.47622  0.05151  1.0000
  H   H111      1.0  0.09734  0.22810  0.44538  1.0000
  H   H112      1.0  0.16056  0.31134  0.34780  1.0000
  C   C90       1.0  0.14536  0.48301  0.36144  1.0000
  C   C91       1.0  0.16322  0.43669  0.26317  1.0000
  C   C92       1.0  0.08376  0.44634  0.03645  1.0000
  C   C93       1.0  0.10592  0.20077  0.49683  1.0000
  C   C94       1.0  0.14800  0.33134  0.31973  1.0000
  C   C95       1.0  0.12772  0.45928  0.46640  1.0000
  H   H113      1.0  0.23786  0.31428  0.45288  1.0000
  H   H114      1.0  0.03173  0.34799  0.05017  1.0000
  H   H115      1.0  0.12880  0.44381  0.47773  1.0000
  C   C96       1.0  0.21757  0.13149  0.35427  1.0000
  H   H116      1.0  0.12197  0.20518  0.49853  1.0000
  H   H117      1.0  0.14880  0.34688  0.32910  1.0000
  H   H118      1.0  0.11459  0.45689  0.45495  1.0000
  C   C97       1.0  0.05130  0.08377  0.14307  1.0000
  H   H119      1.0  0.08328  0.16010  0.01555  1.0000
  H   H120      1.0  0.16229  0.47797  0.48050  1.0000
  C   C98       1.0  0.10796  0.27802  0.49320  1.0000
  H   H121      1.0  0.09607  0.10862  0.01588  1.0000
  H   H122      1.0  0.20400  0.10008  0.00843  1.0000
  H   H123      1.0  0.05765  0.17993  0.03204  1.0000
  C   C99       1.0  0.02659  0.05594  0.47686  1.0000
  H   H124      1.0  0.15406  0.45892  0.23581  1.0000
  H   H125      1.0  0.19401  0.09302  0.32227  1.0000
  H   H126      1.0  0.24043  0.34388  0.44901  1.0000
  H   H127      1.0  0.19930  0.13097  0.03655  1.0000
  S   S32       1.0  0.13319  0.48505  0.02563  1.0000
  H   H128      1.0  0.11627  0.25547  0.46672  1.0000
  C   C100      1.0  0.10729  0.25724  0.48229  1.0000
  H   H129      1.0  0.01706  0.11890  0.16717  1.0000
  H   H130      1.0  0.16380  0.44347  0.42791  1.0000
  H   H131      1.0  0.08013  0.10719  0.18354  1.0000
  N   N10       1.0  0.01757  0.04694  0.49872  1.0000
  H   H132      1.0  0.19973  0.02143  0.47424  1.0000
  H   H133      1.0  0.02660  0.10994  0.21869  1.0000
  H   H134      1.0  0.14865  0.48315  0.30641  1.0000
  H   H135      1.0  0.23163  0.01574  0.45437  1.0000
  C   C101      1.0  0.03304  0.09475  0.14739  1.0000
  H   H136      1.0  0.11170  0.48867  0.26868  1.0000
  H   H137      1.0  0.11458  0.49349  0.44331  1.0000
  C   C102      1.0  0.23070  0.26965  0.39966  1.0000
  C   C103      1.0  0.10323  0.43000  0.00524  1.0000
  H   H138      1.0  0.20336  0.48204  0.36157  1.0000
  H   H139      1.0  0.02127  0.07346  0.47289  1.0000
  H   H140      1.0  0.00065  0.03617  0.42523  1.0000
  C   C104      1.0  0.00520  0.00311  0.44043  1.0000
  C   C105      1.0  0.20430  0.00434  0.47079  1.0000
  C   C106      1.0  0.12865  0.49714  0.43476  1.0000
  C   C107      1.0  0.10030  0.02550  0.50216  1.0000
  C   C108      1.0  0.24540  0.05746  0.33202  1.0000
  H   H141      1.0  0.15139  0.01280  0.50205  1.0000
  H   H142      1.0  0.10466  0.07651  0.52674  1.0000
  C   C109      1.0  0.13607  0.34253  0.52716  1.0000
  Fe  Fe16      1.0  0.05293  0.28798  0.59760  1.0000
  S   S33       1.0  0.04946  0.31958  0.57578  1.0000
  S   S34       1.0  0.03757  0.25857  0.58036  1.0000
  Fe  Fe17      1.0  0.07352  0.31347  0.63722  1.0000
  S   S35       1.0  0.07043  0.34641  0.61707  1.0000
  S   S36       1.0  0.08753  0.31720  0.67368  1.0000
  Fe  Fe18      1.0  0.03863  0.33601  0.60892  1.0000
  S   S37       1.0  0.01018  0.35960  0.60771  1.0000
  Fe  Fe19      1.0  0.08119  0.32703  0.58584  1.0000
  S   S38       1.0  0.10867  0.33100  0.56145  1.0000
  S   S39       1.0  0.04122  0.30417  0.63054  1.0000
  S   S40       1.0  0.08513  0.29435  0.60627  1.0000
  C   C110      1.0  0.14580  0.35702  0.51105  1.0000
  S   S41       1.0  0.04890  0.32990  0.95529  1.0000
  C   C111      1.0  0.16005  0.08803  0.87360  1.0000
  S   S42       1.0  0.06979  0.37952  0.95353  1.0000
  H   H143      1.0  0.18828  0.30712  0.88665  1.0000
  Fe  Fe20      1.0  0.03840  0.36595  0.95288  1.0000
  Fe  Fe21      1.0  0.07995  0.34328  0.95852  1.0000
  S   S43       1.0  0.10294  0.32069  0.94041  1.0000
  C   C112      1.0  0.19965  0.26838  0.90456  1.0000
  Fe  Fe22      1.0  0.20810  0.31603  0.79899  1.0000
  S   S44       1.0  0.20271  0.28070  0.78734  1.0000
  H   H144      1.0  0.10441  0.17223  0.00182  1.0000
  Fe  Fe23      1.0  0.16724  0.31740  0.82485  1.0000
  S   S45       1.0  0.15909  0.28234  0.81515  1.0000
  S   S46       1.0  0.14867  0.34271  0.84544  1.0000
  Fe  Fe24      1.0  0.19136  0.27328  0.82391  1.0000
  S   S47       1.0  0.20363  0.24552  0.84904  1.0000
  Fe  Fe25      1.0  0.17073  0.29223  0.77915  1.0000
  S   S48       1.0  0.15716  0.28218  0.74397  1.0000
  S   S49       1.0  0.19866  0.30815  0.83586  1.0000
  S   S50       1.0  0.17688  0.32778  0.78859  1.0000
  Fe  Fe26      1.0  0.17869  0.10902  0.96630  1.0000
  S   S51       1.0  0.20317  0.12949  0.94942  1.0000
  C   C113      1.0  0.11782  0.04530  0.54026  1.0000
  Fe  Fe27      1.0  0.18293  0.07256  0.92824  1.0000
  S   S52       1.0  0.20787  0.09108  0.90985  1.0000
  S   S53       1.0  0.16831  0.03942  0.91700  1.0000
  Fe  Fe28      1.0  0.22043  0.09665  0.94597  1.0000
  H   H145      1.0  0.14607  0.06973  0.82093  1.0000
  Fe  Fe29      1.0  0.18887  0.12259  0.91520  1.0000
  S   S54       1.0  0.17869  0.14718  0.88580  1.0000
  S   S55       1.0  0.19657  0.07636  0.96413  1.0000
  S   S56       1.0  0.16331  0.10382  0.93219  1.0000
  S   S57       1.0  0.01768  0.37828  0.92356  1.0000
  C   C114      1.0  0.18558  0.17485  0.87647  1.0000
  C   C115      1.0  0.17411  0.18611  0.85911  1.0000
  C   C116      1.0  0.17922  0.20774  0.85063  1.0000
  C   C117      1.0  0.19609  0.21835  0.85920  1.0000
  C   C118      1.0  0.20746  0.20717  0.87669  1.0000
  C   C119      1.0  0.20222  0.18565  0.88536  1.0000
  H   H146      1.0  0.16121  0.17800  0.85204  1.0000
  H   H147      1.0  0.17031  0.21602  0.83719  1.0000
  H   H148      1.0  0.22062  0.21507  0.88339  1.0000
  H   H149      1.0  0.21130  0.17725  0.89857  1.0000
  C   C120      1.0  0.11424  0.32726  0.91322  1.0000
  C   C121      1.0  0.12005  0.30974  0.89848  1.0000
  C   C122      1.0  0.13006  0.31432  0.87729  1.0000
  C   C123      1.0  0.13485  0.33637  0.87103  1.0000
  C   C124      1.0  0.12853  0.35392  0.88545  1.0000
  C   C125      1.0  0.11826  0.34941  0.90647  1.0000
  H   H150      1.0  0.11678  0.29258  0.90346  1.0000
  H   H151      1.0  0.13416  0.30090  0.86573  1.0000
  H   H152      1.0  0.13200  0.37106  0.88056  1.0000
  H   H153      1.0  0.11394  0.36303  0.91774  1.0000
  C   C126      1.0  0.16661  0.02116  0.89258  1.0000
  H   H154      1.0  0.17350  0.27505  0.86835  1.0000
  H   H155      1.0  0.12794  0.10556  0.99322  1.0000
  C   C127      1.0  0.09295  0.25430  0.97024  1.0000
  H   H156      1.0  0.15315  0.30198  0.93509  1.0000
  H   H157      1.0  0.06469  0.29753  0.87016  1.0000
  C   C128      1.0  0.17676  0.00843  0.85393  1.0000
  C   C129      1.0  0.10676  0.30673  0.69309  1.0000
  C   C130      1.0  0.10915  0.31710  0.71471  1.0000
  C   C131      1.0  0.12430  0.30984  0.73052  1.0000
  C   C132      1.0  0.13736  0.29197  0.72500  1.0000
  C   C133      1.0  0.13487  0.28150  0.70346  1.0000
  C   C134      1.0  0.11975  0.28878  0.68765  1.0000
  H   H158      1.0  0.09923  0.33095  0.71925  1.0000
  H   H159      1.0  0.12590  0.31812  0.74693  1.0000
  H   H160      1.0  0.14478  0.26763  0.69896  1.0000
  H   H161      1.0  0.11809  0.28033  0.67136  1.0000
  H   H162      1.0  0.17756  0.23452  0.92476  1.0000
  C   C135      1.0  0.20761  0.05860  0.82144  1.0000
  H   H163      1.0  0.01614  0.44024  0.98741  1.0000
  C   C136      1.0  0.11977  0.35015  0.54087  1.0000
  C   C137      1.0  0.11335  0.37259  0.53823  1.0000
  H   H164      1.0  0.22872  0.09230  0.99856  1.0000
  H   H165      1.0  0.01715  0.07865  0.51629  1.0000
  C   C138      1.0  0.08270  0.49307  0.98414  1.0000
  H   H166      1.0  0.10091  0.37880  0.54862  1.0000
  C   C139      1.0  0.06338  0.19378  0.54757  1.0000
  C   C140      1.0  0.07509  0.20607  0.56290  1.0000
  C   C141      1.0  0.06769  0.22623  0.57256  1.0000
  C   C142      1.0  0.04828  0.23414  0.56739  1.0000
  C   C143      1.0  0.03659  0.22188  0.55202  1.0000
  C   C144      1.0  0.04414  0.20196  0.54197  1.0000
  H   H167      1.0  0.08999  0.19993  0.56738  1.0000
  H   H168      1.0  0.07684  0.23534  0.58445  1.0000
  H   H169      1.0  0.02152  0.22774  0.54794  1.0000
  H   H170      1.0  0.03492  0.19271  0.53027  1.0000
  H   H171      1.0  0.08322  0.36442  0.84821  1.0000
  H   H172      1.0  0.01107  0.29674  0.56428  1.0000
  H   H173      1.0  0.13095  0.07501  0.84613  1.0000
  C   C145      1.0  0.12019  0.02201  0.53737  1.0000
  S   S58       1.0  0.23366  0.33922  0.78649  1.0000
  H   H174      1.0  0.19478  0.11177  0.85653  1.0000
  H   H175      1.0  0.20803  0.27512  0.88913  1.0000
  Fe  Fe30      1.0  0.06574  0.37952  0.99259  1.0000
  C   C146      1.0  0.11117  0.01215  0.51836  1.0000
  C   C147      1.0  0.08219  0.25649  0.99095  1.0000
  H   H176      1.0  0.03259  0.33592  0.90231  1.0000
  H   H177      1.0  0.09521  0.26891  0.95894  1.0000
  C   C148      1.0  0.18757  0.06313  0.82751  1.0000
  H   H178      1.0  0.03062  0.36632  0.87550  1.0000
  H   H179      1.0  0.07694  0.36946  0.88698  1.0000
  H   H180      1.0  0.16368  0.12364  0.84508  1.0000
  H   H181      1.0  0.17677  0.05106  0.82216  1.0000
  C   C149      1.0  0.08729  0.29975  0.84425  1.0000
  H   H182      1.0  0.13878  0.11393  0.84293  1.0000
  H   H183      1.0  0.21150  0.04366  0.81181  1.0000
  H   H184      1.0  0.10551  0.41712  0.99246  1.0000
  H   H185      1.0  0.18668  0.30966  0.91767  1.0000
  C   C150      1.0  0.12324  0.38716  0.52230  1.0000
  S   S59       1.0  0.07871  0.34438  0.99778  1.0000
  H   H186      1.0  0.15610  0.11043  0.81893  1.0000
  H   H187      1.0  0.14644  0.02325  0.60643  1.0000
  H   H188      1.0  0.05061  0.37340  0.85622  1.0000
  H   H189      1.0  0.23435  0.13097  0.98822  1.0000
  H   H190      1.0  0.14444  0.09075  0.88012  1.0000
  S   S60       1.0  0.13527  0.00585  0.55705  1.0000
  C   C151      1.0  0.15465  0.10977  0.83824  1.0000
  H   H191      1.0  0.08015  0.17292  0.98750  1.0000
  N   N11       1.0  0.16113  0.08747  0.84786  1.0000
  C   C152      1.0  0.00357  0.44673  0.97720  1.0000
  C   C153      1.0  0.18206  0.08238  0.84050  1.0000
  H   H192      1.0  0.23092  0.39988  0.79543  1.0000
  S   S61       1.0  0.07370  0.16863  0.53574  1.0000
  C   C154      1.0  0.10085  0.23337  0.96418  1.0000
  H   H193      1.0  0.22941  0.10337  0.84564  1.0000
  C   C155      1.0  0.16762  0.26833  0.88524  1.0000
  C   C156      1.0  0.10644  0.05861  0.52434  1.0000
  H   H194      1.0  0.15005  0.05368  0.84779  1.0000
  C   C157      1.0  0.19777  0.09681  0.84664  1.0000
  H   H195      1.0  0.16901  0.10173  0.88069  1.0000
  C   C158      1.0  0.14649  0.07070  0.84023  1.0000
  H   H196      1.0  0.16294  0.02330  0.63111  1.0000
  H   H197      1.0  0.12480  0.05313  0.55485  1.0000
  C   C159      1.0  0.09933  0.31349  0.83035  1.0000
  H   H198      1.0  0.08161  0.49125  0.96498  1.0000
  H   H199      1.0  0.03467  0.31704  0.87863  1.0000
  C   C160      1.0  0.14576  0.27704  0.96018  1.0000
  H   H200      1.0  0.18944  0.03671  0.87149  1.0000
  H   H201      1.0  0.04785  0.48761  0.96768  1.0000
  C   C161      1.0  0.21772  0.09215  0.84047  1.0000
  N   N12       1.0  0.05627  0.34356  0.87761  1.0000
  H   H202      1.0  0.20065  0.24988  0.90266  1.0000
  H   H203      1.0  0.01841  0.05421  0.53525  1.0000
  C   C162      1.0  0.15577  0.28458  0.94010  1.0000
  C   C163      1.0  0.07103  0.33287  0.86167  1.0000
  H   H204      1.0  0.16447  0.30993  0.89987  1.0000
  H   H205      1.0  0.03516  0.34992  0.84999  1.0000
  C   C164      1.0  0.17857  0.02350  0.87252  1.0000
  H   H206      1.0  0.20795  0.27282  0.92047  1.0000
  C   C165      1.0  0.00012  0.43835  0.95519  1.0000
  H   H207      1.0  0.04013  0.06316  0.51909  1.0000
  C   C166      1.0  0.07334  0.30917  0.85977  1.0000
  C   C167      1.0  0.14784  0.25474  0.96774  1.0000
  C   C168      1.0  0.06695  0.35674  0.89503  1.0000
  H   H208      1.0  0.15138  0.27273  0.88625  1.0000
  C   C169      1.0  0.15296  0.00337  0.89361  1.0000
  H   H209      1.0  0.14123  0.32526  0.52900  1.0000
  H   H210      1.0  0.07683  0.26763  0.53904  1.0000
  H   H211      1.0  0.07635  0.34559  0.90646  1.0000
  H   H212      1.0  0.05626  0.36597  0.90649  1.0000
  H   H213      1.0  0.08896  0.28167  0.84312  1.0000
  H   H214      1.0  0.13051  0.44718  0.99618  1.0000
  C   C170      1.0  0.22264  0.07305  0.82793  1.0000
  C   C171      1.0  0.09754  0.33672  0.83193  1.0000
  C   C172      1.0  0.08653  0.21608  0.99972  1.0000
  C   C173      1.0  0.14751  0.01927  0.62547  1.0000
  C   C174      1.0  0.04357  0.32726  0.89061  1.0000
  H   H215      1.0  0.11040  0.30619  0.81865  1.0000
  H   H216      1.0  0.10744  0.34730  0.82161  1.0000
  H   H217      1.0  0.09941  0.20042  0.51471  1.0000
  C   C175      1.0  0.16934  0.24701  0.93460  1.0000
  S   S62       1.0  0.03374  0.36786  0.99139  1.0000
  H   H218      1.0  0.13616  0.28862  0.96974  1.0000
  H   H219      1.0  0.16068  0.22221  0.96045  1.0000
  H   H220      1.0  0.14367  0.00120  0.90899  1.0000
  H   H221      1.0  0.00784  0.28430  0.60482  1.0000
  H   H222      1.0  0.00335  0.32405  0.57310  1.0000
  H   H223      1.0  0.14014  0.24904  0.98341  1.0000
  C   C176      1.0  0.15945  0.23970  0.95486  1.0000
  H   H224      1.0  0.05277  0.31586  0.90211  1.0000
  C   C177      1.0  0.16831  0.26986  0.92696  1.0000
  H   H225      1.0  0.07604  0.27282  0.99565  1.0000
  C   C178      1.0  0.08369  0.34632  0.84736  1.0000
  C   C179      1.0  0.17952  0.30201  0.90241  1.0000
  H   H226      1.0  0.16590  0.07204  0.88153  1.0000
  H   H227      1.0  0.16889  0.24969  0.88451  1.0000
  C   C180      1.0  0.04262  0.35893  0.86419  1.0000
  N   N13       1.0  0.14056  0.33206  0.62877  1.0000
  C   C181      1.0  0.12331  0.34822  0.62727  1.0000
  C   C182      1.0  0.15539  0.33891  0.61070  1.0000
  C   C183      1.0  0.13301  0.30964  0.62309  1.0000
  C   C184      1.0  0.15013  0.33092  0.65198  1.0000
  C   C185      1.0  0.14271  0.34325  0.67127  1.0000
  C   C186      1.0  0.16714  0.31661  0.65601  1.0000
  C   C187      1.0  0.15187  0.34129  0.69307  1.0000
  C   C188      1.0  0.17600  0.31458  0.67797  1.0000
  C   C189      1.0  0.16836  0.32688  0.69646  1.0000
  H   H228      1.0  0.12789  0.36561  0.63100  1.0000
  H   H229      1.0  0.11655  0.34875  0.60955  1.0000
  H   H230      1.0  0.11104  0.34340  0.63956  1.0000
  H   H231      1.0  0.16210  0.35526  0.61491  1.0000
  H   H232      1.0  0.14830  0.34084  0.59318  1.0000
  H   H233      1.0  0.16779  0.32634  0.60874  1.0000
  H   H234      1.0  0.12148  0.30415  0.63605  1.0000
  H   H235      1.0  0.12603  0.30978  0.60552  1.0000
  H   H236      1.0  0.14505  0.29649  0.62291  1.0000
  H   H237      1.0  0.12945  0.35393  0.67027  1.0000
  H   H238      1.0  0.17341  0.30641  0.64235  1.0000
  H   H239      1.0  0.14560  0.35023  0.70774  1.0000
  H   H240      1.0  0.18853  0.30298  0.68093  1.0000
  H   H241      1.0  0.17480  0.32466  0.71368  1.0000
  N   N14       1.0  0.17861  0.27718  0.90525  1.0000
  H   H242      1.0  0.18628  0.01035  0.83872  1.0000
  H   H243      1.0  0.01297  0.49581  0.95856  1.0000
  C   C190      1.0  0.13475  0.99753  0.69630  1.0000
  C   C191      1.0  0.09791  0.21451  0.97872  1.0000
  H   H244      1.0  0.07506  0.47879  0.99311  1.0000
  H   H245      1.0  0.13686  0.03100  0.63422  1.0000
  H   H246      1.0  0.22778  0.37229  0.82764  1.0000
  C   C192      1.0  0.23935  0.38482  0.82817  1.0000
  H   H247      1.0  0.00997  0.42523  0.94842  1.0000
  H   H248      1.0  0.23816  0.06942  0.82332  1.0000
  C   C193      1.0  0.02357  0.06125  0.51819  1.0000
  H   H249      1.0  0.21043  0.13967  0.99916  1.0000
  C   C194      1.0  0.13954  0.37953  0.50858  1.0000
  H   H250      1.0  0.10933  0.23177  0.94809  1.0000
  H   H251      1.0  0.11824  0.40450  0.52065  1.0000
  C   C195      1.0  0.99758  0.30779  0.56699  1.0000
  C   C196      1.0  0.09775  0.04874  0.50511  1.0000
  H   H252      1.0  0.10463  0.19888  0.97310  1.0000
  C   C197      1.0  0.13324  0.00221  0.67241  1.0000
  C   C198      1.0  0.24118  0.40046  0.80997  1.0000
  S   S63       1.0  0.04875  0.11289  0.50965  1.0000
  H   H253      1.0  0.05632  0.03224  0.50662  1.0000
  H   H254      1.0  0.09898  0.49109  0.98828  1.0000
  H   H255      1.0  0.12231  0.01484  0.66686  1.0000
  H   H256      1.0  0.12505  0.00623  0.70853  1.0000
  Fe  Fe31      1.0  0.04713  0.33282  0.99413  1.0000
  H   H257      1.0  0.11097  0.00237  0.63234  1.0000
  H   H258      1.0  0.99863  0.31154  0.61304  1.0000
  H   H259      1.0  0.09775  0.29780  0.52211  1.0000
  C   C199      1.0  0.08527  0.26477  0.52308  1.0000
  H   H260      1.0  0.07546  0.23130  0.52065  1.0000
  S   S64       1.0  0.16770  0.12518  0.00036  1.0000
  C   C200      1.0  0.04556  0.01891  0.50693  1.0000
  C   C201      1.0  0.01195  0.00478  0.50332  1.0000
  C   C202      1.0  0.02486  0.02353  0.50299  1.0000
  C   C203      1.0  0.09702  0.28175  0.51357  1.0000
  H   H261      1.0  0.17652  0.02173  0.50306  1.0000
  Fe  Fe32      1.0  0.06319  0.14673  0.50612  1.0000
  C   C204      1.0  0.08450  0.24399  0.51233  1.0000
  Fe  Fe33      1.0  0.16287  0.55867  0.04472  1.0000
  S   S65       1.0  0.15766  0.52941  0.06974  1.0000
  S   S66       1.0  0.19412  0.57351  0.03692  1.0000
  Fe  Fe34      1.0  0.11699  0.56635  0.03712  1.0000
  S   S67       1.0  0.10887  0.53787  0.06143  1.0000
  N   N15       1.0  0.17329  0.98801  0.49061  1.0000
  Fe  Fe35      1.0  0.13285  0.55094  0.08543  1.0000
  S   S68       1.0  0.12369  0.55563  0.12399  1.0000
  Fe  Fe36      1.0  0.13408  0.51853  0.04432  1.0000
  S   S69       1.0  0.13924  0.58083  0.06176  1.0000
  S   S70       1.0  0.14106  0.54638  0.01871  1.0000
  H   H262      1.0  0.22440  0.64557  0.21197  1.0000
  Fe  Fe37      1.0  0.12426  0.59924  0.29890  1.0000
  S   S71       1.0  0.12441  0.56405  0.28492  1.0000
  S   S72       1.0  0.09601  0.62292  0.30009  1.0000
  Fe  Fe38      1.0  0.17097  0.59848  0.30397  1.0000
  S   S73       1.0  0.17315  0.56308  0.29094  1.0000
  S   S74       1.0  0.20180  0.61205  0.31515  1.0000
  Fe  Fe39      1.0  0.15112  0.57430  0.26302  1.0000
  S   S75       1.0  0.16163  0.56351  0.22634  1.0000
  Fe  Fe40      1.0  0.14658  0.55516  0.31368  1.0000
  S   S76       1.0  0.14115  0.52213  0.33474  1.0000
  S   S77       1.0  0.15007  0.61008  0.27517  1.0000
  S   S78       1.0  0.14523  0.58998  0.32868  1.0000
  C   C205      1.0  0.15726  0.97550  0.47900  1.0000
  C   C206      1.0  0.02996  0.62954  0.32763  1.0000
  C   C207      1.0  0.04248  0.61132  0.33493  1.0000
  C   C208      1.0  0.06240  0.60863  0.32635  1.0000
  C   C209      1.0  0.07036  0.62428  0.31039  1.0000
  C   C210      1.0  0.05779  0.64240  0.30296  1.0000
  C   C211      1.0  0.03780  0.64494  0.31132  1.0000
  H   H263      1.0  0.03674  0.59920  0.34744  1.0000
  H   H264      1.0  0.07170  0.59462  0.33239  1.0000
  H   H265      1.0  0.06361  0.65465  0.29064  1.0000
  H   H266      1.0  0.02853  0.65887  0.30511  1.0000
  C   C212      1.0  0.24407  0.61190  0.25558  1.0000
  C   C213      1.0  0.01630  0.69889  0.34083  1.0000
  H   H267      1.0  0.16153  0.60007  0.01805  1.0000
  H   H268      1.0  0.20662  0.61592  0.19817  1.0000
  H   H269      1.0  0.23252  0.59408  0.03171  1.0000
  H   H270      1.0  0.01964  0.68325  0.39769  1.0000
  C   C214      1.0  0.16360  0.50888  0.41068  1.0000
  C   C215      1.0  0.13478  0.55823  0.15216  1.0000
  C   C216      1.0  0.15535  0.55475  0.15617  1.0000
  C   C217      1.0  0.16319  0.55651  0.17888  1.0000
  C   C218      1.0  0.15073  0.56200  0.19797  1.0000
  C   C219      1.0  0.13020  0.56560  0.19397  1.0000
  C   C220      1.0  0.12233  0.56363  0.17130  1.0000
  H   H271      1.0  0.16516  0.55052  0.14178  1.0000
  H   H272      1.0  0.17907  0.55357  0.18163  1.0000
  H   H273      1.0  0.12033  0.56985  0.20831  1.0000
  H   H274      1.0  0.10642  0.56638  0.16853  1.0000
  H   H275      1.0  0.09040  0.68749  0.32971  1.0000
  H   H276      1.0  0.14597  0.53596  0.39547  1.0000
  H   H277      1.0  0.02540  0.70767  0.32732  1.0000
  C   C221      1.0  0.08237  0.65969  0.35191  1.0000
  H   H278      1.0  0.01635  0.72879  0.37579  1.0000
  C   C222      1.0  0.24247  0.52764  0.01897  1.0000
  C   C223      1.0  0.22945  0.58624  0.01536  1.0000
  S   S79       1.0  0.01934  0.85513  0.49143  1.0000
  N   N16       1.0  0.02674  0.69656  0.36344  1.0000
  C   C224      1.0  0.21893  0.58221  0.22626  1.0000
  H   H279      1.0  0.15390  0.62937  0.01581  1.0000
  H   H280      1.0  0.24436  0.97746  0.44573  1.0000
  H   H281      1.0  0.09367  0.51213  0.02179  1.0000
  C   C225      1.0  0.22084  0.63247  0.30941  1.0000
  C   C226      1.0  0.21811  0.65078  0.29390  1.0000
  C   C227      1.0  0.23362  0.66639  0.29014  1.0000
  C   C228      1.0  0.21135  0.57472  0.01285  1.0000
  H   H282      1.0  0.20396  0.65309  0.28500  1.0000
  C   C229      1.0  0.20027  0.96404  0.47218  1.0000
  H   H283      1.0  0.03902  0.72982  0.35936  1.0000
  N   N17       1.0  0.21236  0.60492  0.23363  1.0000
  H   H284      1.0  0.24183  0.59696  0.26623  1.0000
  H   H285      1.0  0.23122  0.68037  0.27809  1.0000
  C   C230      1.0  0.05955  0.58739  0.03344  1.0000
  S   S80       1.0  0.00510  0.63246  0.34010  1.0000
  C   C231      1.0  0.01276  0.68560  0.38022  1.0000
  H   H286      1.0  0.22902  0.51924  0.01370  1.0000
  H   H287      1.0  0.09593  0.65005  0.34798  1.0000
  C   C232      1.0  0.04964  0.66223  0.37042  1.0000
  C   C233      1.0  0.15113  0.61233  0.00919  1.0000
  H   H288      1.0  0.99868  0.69580  0.38257  1.0000
  H   H289      1.0  0.06713  0.58090  0.04884  1.0000
  H   H290      1.0  0.15181  0.53138  0.26155  1.0000
  H   H291      1.0  0.05019  0.55102  0.00358  1.0000
  H   H292      1.0  0.07470  0.53339  0.02401  1.0000
  C   C234      1.0  0.15554  0.50050  0.34970  1.0000
  H   H293      1.0  0.05926  0.70878  0.33665  1.0000
  H   H294      1.0  0.03861  0.65359  0.38093  1.0000
  H   H295      1.0  0.00507  0.96979  0.45552  1.0000
  C   C235      1.0  0.06124  0.69276  0.34559  1.0000
  C   C236      1.0  0.03064  0.71932  0.37215  1.0000
  C   C237      1.0  0.14611  0.52175  0.40763  1.0000
  C   C238      1.0  0.07915  0.68078  0.34153  1.0000
  H   H296      1.0  0.20027  0.89268  0.47274  1.0000
  C   C239      1.0  0.07051  0.59129  0.01295  1.0000
  S   S81       1.0  0.00235  0.60748  0.01690  1.0000
  H   H297      1.0  0.23169  0.53284  0.05372  1.0000
  C   C240      1.0  0.03874  0.59235  0.03419  1.0000
  C   C241      1.0  0.24422  0.91273  0.49332  1.0000
  H   H298      1.0  0.17700  0.51312  0.40083  1.0000
  S   S82       1.0  0.09686  0.58575  0.01109  1.0000
  C   C242      1.0  0.24405  0.53531  0.04157  1.0000
  C   C243      1.0  0.04589  0.68387  0.36018  1.0000
  C   C244      1.0  0.19886  0.61456  0.21533  1.0000
  H   H299      1.0  0.13451  0.51612  0.22994  1.0000
  H   H300      1.0  0.15970  0.95696  0.48030  1.0000
  C   C245      1.0  0.12870  0.51595  0.41970  1.0000
  H   H301      1.0  0.00801  0.66896  0.37398  1.0000
  C   C246      1.0  0.23416  0.63894  0.22547  1.0000
  H   H302      1.0  0.00194  0.70865  0.34248  1.0000
  C   C247      1.0  0.21025  0.90125  0.48416  1.0000
  C   C248      1.0  0.24430  0.74811  0.31574  1.0000
  H   H303      1.0  0.17196  0.51100  0.26110  1.0000
  C   C249      1.0  0.23105  0.90153  0.47894  1.0000
  H   H304      1.0  0.22753  0.57294  0.24006  1.0000
  H   H305      1.0  0.19275  0.63136  0.22021  1.0000
  H   H306      1.0  0.06816  0.50428  0.02707  1.0000
  C   C250      1.0  0.20029  0.60261  0.25527  1.0000
  C   C251      1.0  0.12248  0.50224  0.27191  1.0000
  H   H307      1.0  0.24213  0.76216  0.30283  1.0000
  C   C252      1.0  0.23014  0.61866  0.23806  1.0000
  H   H308      1.0  0.23782  0.76502  0.36267  1.0000
  C   C253      1.0  0.02853  0.60101  0.01446  1.0000
  H   H309      1.0  0.01271  0.68210  0.33401  1.0000
  H   H310      1.0  0.18472  0.51296  0.34074  1.0000
  H   H311      1.0  0.18557  0.60382  0.21267  1.0000
  H   H312      1.0  0.20584  0.57161  0.22222  1.0000
  H   H313      1.0  0.06188  0.85611  0.49888  1.0000
  C   C254      1.0  0.15663  0.51447  0.26815  1.0000
  H   H314      1.0  0.18769  0.62336  0.00874  1.0000
  C   C255      1.0  0.14013  0.49905  0.23555  1.0000
  H   H315      1.0  0.11508  0.52594  0.41703  1.0000
  H   H316      1.0  0.20844  0.59331  0.26941  1.0000
  H   H317      1.0  0.22861  0.58320  0.21043  1.0000
  H   H318      1.0  0.19228  0.94905  0.47704  1.0000
  H   H319      1.0  0.18639  0.59317  0.25230  1.0000
  C   C256      1.0  0.06768  0.65049  0.36637  1.0000
  H   H320      1.0  0.03051  0.58958  0.05026  1.0000
  H   H321      1.0  0.06995  0.63368  0.37363  1.0000
  H   H322      1.0  0.15623  0.98034  0.46022  1.0000
  H   H323      1.0  0.19582  0.61931  0.26216  1.0000
  C   C257      1.0  0.19246  0.98566  0.47757  1.0000
  H   H324      1.0  0.24389  0.73202  0.30614  1.0000
  H   H325      1.0  0.03941  0.71829  0.38856  1.0000
  H   H326      1.0  0.15788  0.51565  0.28738  1.0000
  H   H327      1.0  0.13569  0.60790  0.01504  1.0000
  C   C258      1.0  0.21872  0.96123  0.46077  1.0000
  H   H328      1.0  0.14225  0.97874  0.48706  1.0000
  C   C259      1.0  0.23941  0.63018  0.32096  1.0000
  H   H329      1.0  0.11582  0.51828  0.26486  1.0000
  H   H330      1.0  0.23684  0.89318  0.46370  1.0000
  H   H331      1.0  0.12333  0.50434  0.29108  1.0000
  H   H332      1.0  0.22445  0.94449  0.45710  1.0000
  C   C260      1.0  0.17656  0.49983  0.34974  1.0000
  C   C261      1.0  0.22997  0.97982  0.45439  1.0000
  H   H333      1.0  0.99707  0.63037  0.06824  1.0000
  C   C262      1.0  0.07778  0.51631  0.01723  1.0000
  H   H334      1.0  0.23888  0.80001  0.38400  1.0000
  H   H335      1.0  0.23109  0.74817  0.32765  1.0000
  H   H336      1.0  0.24179  0.61622  0.33307  1.0000
  C   C263      1.0  0.99603  0.98452  0.45070  1.0000
  H   H337      1.0  0.18489  0.94971  0.87174  1.0000
  Fe  Fe41      1.0  0.15371  0.92478  0.53710  1.0000
  S   S83       1.0  0.16197  0.94691  0.56647  1.0000
  H   H338      1.0  0.14926  0.97727  0.72303  1.0000
  Fe  Fe42      1.0  0.10838  0.92692  0.55037  1.0000
  S   S84       1.0  0.11423  0.94902  0.58095  1.0000
  S   S85       1.0  0.07451  0.92396  0.54432  1.0000
  Fe  Fe43      1.0  0.13461  0.96773  0.55651  1.0000
  H   H339      1.0  0.16702  0.61272  0.93822  1.0000
  Fe  Fe44      1.0  0.14076  0.92644  0.58884  1.0000
  S   S86       1.0  0.15199  0.91473  0.62500  1.0000
  S   S87       1.0  0.12756  0.94718  0.52561  1.0000
  S   S88       1.0  0.13382  0.90267  0.55984  1.0000
  C   C264      1.0  0.11706  0.87276  0.69312  1.0000
  Fe  Fe45      1.0  0.16514  0.89207  0.80321  1.0000
  S   S89       1.0  0.16789  0.92634  0.78606  1.0000
  S   S90       1.0  0.19003  0.86603  0.81328  1.0000
  Fe  Fe46      1.0  0.11895  0.89915  0.81191  1.0000
  S   S91       1.0  0.11973  0.93431  0.79640  1.0000
  S   S92       1.0  0.09113  0.87940  0.82566  1.0000
  Fe  Fe47      1.0  0.13886  0.91910  0.76784  1.0000
  S   S93       1.0  0.12699  0.93014  0.73167  1.0000
  Fe  Fe48      1.0  0.14874  0.93928  0.81588  1.0000
  S   S94       1.0  0.16179  0.97190  0.83090  1.0000
  S   S95       1.0  0.13739  0.88383  0.78295  1.0000
  S   S96       1.0  0.14678  0.90509  0.83351  1.0000
  H   H340      1.0  0.13276  0.86760  0.69234  1.0000
  H   H341      1.0  0.10247  0.53111  0.98377  1.0000
  C   C265      1.0  0.16089  0.96998  0.68898  1.0000
  C   C266      1.0  0.21541  0.92310  0.51835  1.0000
  H   H342      1.0  0.10348  0.89780  0.75777  1.0000
  H   H343      1.0  0.14802  0.58683  0.95725  1.0000
  C   C267      1.0  0.02662  0.89521  0.51396  1.0000
  C   C268      1.0  0.02302  0.86162  0.82317  1.0000
  C   C269      1.0  0.03037  0.88040  0.81059  1.0000
  C   C270      1.0  0.05095  0.88608  0.81107  1.0000
  C   C271      1.0  0.06477  0.87302  0.82413  1.0000
  C   C272      1.0  0.05739  0.85432  0.83682  1.0000
  C   C273      1.0  0.03680  0.84865  0.83635  1.0000
  H   H344      1.0  0.01997  0.89082  0.80055  1.0000
  H   H345      1.0  0.05599  0.90086  0.80168  1.0000
  H   H346      1.0  0.06774  0.84404  0.84709  1.0000
  H   H347      1.0  0.03164  0.83418  0.84621  1.0000
  C   C274      1.0  0.14438  0.91882  0.65451  1.0000
  C   C275      1.0  0.12665  0.93038  0.66050  1.0000
  C   C276      1.0  0.12156  0.93350  0.68415  1.0000
  C   C277      1.0  0.13400  0.92501  0.70218  1.0000
  C   C278      1.0  0.15160  0.91321  0.69620  1.0000
  C   C279      1.0  0.15672  0.91017  0.67254  1.0000
  H   H348      1.0  0.11682  0.93680  0.64694  1.0000
  H   H349      1.0  0.10789  0.94262  0.68853  1.0000
  H   H350      1.0  0.16134  0.90654  0.70977  1.0000
  H   H351      1.0  0.17043  0.90110  0.66817  1.0000
  C   C280      1.0  0.23620  0.92346  0.51307  1.0000
  H   H352      1.0  0.06149  0.89289  0.69461  1.0000
  C   C281      1.0  0.14849  0.98138  0.70455  1.0000
  C   C282      1.0  0.07701  0.88729  0.69484  1.0000
  C   C283      1.0  0.21278  0.62645  0.95764  1.0000
  C   C284      1.0  0.03913  0.90994  0.52575  1.0000
  C   C285      1.0  0.05989  0.90549  0.52778  1.0000
  H   H353      1.0  0.09641  0.86860  0.76098  1.0000
  H   H354      1.0  0.03245  0.82645  0.54859  1.0000
  H   H355      1.0  0.03264  0.92477  0.53356  1.0000
  C   C286      1.0  0.16307  0.99066  0.85496  1.0000
  H   H356      1.0  0.18838  0.98696  0.52359  1.0000
  H   H357      1.0  0.04841  0.87698  0.72856  1.0000
  N   N18       1.0  0.07736  0.88932  0.73855  1.0000
  C   C287      1.0  0.09065  0.88622  0.75901  1.0000
  H   H358      1.0  0.05830  0.91646  0.72503  1.0000
  H   H359      1.0  0.16884  0.96405  0.65403  1.0000
  C   C288      1.0  0.22696  0.86927  0.78951  1.0000
  C   C289      1.0  0.21549  0.85803  0.80646  1.0000
  C   C290      1.0  0.22469  0.84016  0.81922  1.0000
  H   H360      1.0  0.05253  0.87706  0.75924  1.0000
  H   H361      1.0  0.22025  0.88308  0.77957  1.0000
  H   H362      1.0  0.21609  0.83132  0.83243  1.0000
  H   H363      1.0  0.07829  0.88632  0.65731  1.0000
  C   C291      1.0  0.10788  0.87677  0.71464  1.0000
  H   H364      1.0  0.21858  0.55876  0.95662  1.0000
  C   C292      1.0  0.22171  0.56648  0.97302  1.0000
  H   H365      1.0  0.22062  0.63149  0.99323  1.0000
  H   H366      1.0  0.11729  0.87445  0.72975  1.0000
  H   H367      1.0  0.06342  0.91778  0.75539  1.0000
  H   H368      1.0  0.20091  0.62007  0.92390  1.0000
  H   H369      1.0  0.08266  0.92465  0.73448  1.0000
  C   C293      1.0  0.08643  0.88347  0.67340  1.0000
  C   C294      1.0  0.04484  0.88110  0.58013  1.0000
  H   H370      1.0  0.17988  0.96027  0.51443  1.0000
  H   H371      1.0  0.08423  0.53249  0.96067  1.0000
  C   C295      1.0  0.03942  0.60446  0.99382  1.0000
  H   H372      1.0  0.24004  0.90763  0.84543  1.0000
  H   H373      1.0  0.17125  0.95707  0.69549  1.0000
  C   C296      1.0  0.18949  0.62304  0.99005  1.0000
  C   C297      1.0  0.14533  0.99054  0.65598  1.0000
  H   H374      1.0  0.16218  0.98060  0.52517  1.0000
  H   H375      1.0  0.04561  0.96218  0.51535  1.0000
  C   C298      1.0  0.20866  0.62769  0.98136  1.0000
  H   H376      1.0  0.01495  0.55799  0.99452  1.0000
  H   H377      1.0  0.19383  0.55588  0.98917  1.0000
  C   C299      1.0  0.08751  0.88435  0.71615  1.0000
  C   C300      1.0  0.07005  0.91303  0.73829  1.0000
  C   C301      1.0  0.01210  0.89145  0.87669  1.0000
  H   H378      1.0  0.06503  0.85636  0.74179  1.0000
  H   H379      1.0  0.14063  0.97476  0.87635  1.0000
  C   C302      1.0  0.13818  0.62743  0.97326  1.0000
  H   H380      1.0  0.99607  0.53072  0.97198  1.0000
  C   C303      1.0  0.23793  0.95458  0.89791  1.0000
  N   N19       1.0  0.15334  0.61157  0.98347  1.0000
  C   C304      1.0  0.06007  0.87432  0.74211  1.0000
  H   H381      1.0  0.20131  0.91087  0.82235  1.0000
  H   H382      1.0  0.11392  0.87393  0.65592  1.0000
  C   C305      1.0  0.19329  0.90221  0.86824  1.0000
  C   C306      1.0  0.10645  0.87633  0.67255  1.0000
  H   H383      1.0  0.08279  0.89006  0.77563  1.0000
  C   C307      1.0  0.99648  0.90126  0.89029  1.0000
  C   C308      1.0  0.22284  0.97031  0.90294  1.0000
  H   H384      1.0  0.04662  0.93264  0.87689  1.0000
  H   H385      1.0  0.18969  0.93448  0.83575  1.0000
  N   N20       1.0  0.99771  0.85039  0.56335  1.0000
  C   C309      1.0  0.24357  0.58782  0.99692  1.0000
  C   C310      1.0  0.22719  0.89931  0.85432  1.0000
  H   H386      1.0  0.07558  0.87183  0.57299  1.0000
  H   H387      1.0  0.22789  0.62914  0.95115  1.0000
  H   H388      1.0  0.20959  0.93154  0.53351  1.0000
  H   H389      1.0  0.04165  0.89478  0.86163  1.0000
  C   C311      1.0  0.24490  0.83348  0.81504  1.0000
  S   S97       1.0  0.17556  0.91216  0.50863  1.0000
  C   C312      1.0  0.04146  0.50320  0.97387  1.0000
  C   C313      1.0  0.17367  0.61736  0.97494  1.0000
  H   H390      1.0  0.01077  0.89907  0.51236  1.0000
  H   H391      1.0  0.13752  0.62653  0.95400  1.0000
  H   H392      1.0  0.06704  0.83670  0.55366  1.0000
  C   C314      1.0  0.12209  0.99118  0.62366  1.0000
  H   H393      1.0  0.18967  0.88756  0.85741  1.0000
  H   H394      1.0  0.22582  0.98424  0.91415  1.0000
  C   C315      1.0  0.17825  0.61688  0.95077  1.0000
  H   H395      1.0  0.08143  0.54996  0.98542  1.0000
  C   C316      1.0  0.02236  0.54262  0.98877  1.0000
  C   C317      1.0  0.06030  0.59976  0.99314  1.0000
  C   C318      1.0  0.03274  0.92403  0.88061  1.0000
  N   N21       1.0  0.07442  0.51508  0.99179  1.0000
  H   H396      1.0  0.17917  0.91237  0.86959  1.0000
  C   C319      1.0  0.01943  0.98293  0.50769  1.0000
  H   H397      1.0  0.03184  0.61112  0.97850  1.0000
  H   H398      1.0  0.04875  0.89694  0.58766  1.0000
  C   C320      1.0  0.20392  0.92445  0.83491  1.0000
  C   C321      1.0  0.19984  0.95041  0.87888  1.0000
  H   H399      1.0  0.01065  0.87494  0.86952  1.0000
  C   C322      1.0  0.21480  0.93398  0.87347  1.0000
  H   H400      1.0  0.19704  0.89565  0.88599  1.0000
  C   C323      1.0  0.03465  0.87546  0.50455  1.0000
  N   N22       1.0  0.21007  0.91526  0.85805  1.0000
  C   C324      1.0  0.19757  0.62117  0.94234  1.0000
  C   C325      1.0  0.02993  0.90269  0.87201  1.0000
  H   H401      1.0  0.06868  0.99399  0.51468  1.0000
  C   C326      1.0  0.08613  0.53289  0.97987  1.0000
  C   C327      1.0  0.20384  0.96820  0.89347  1.0000
  C   C328      1.0  0.01772  0.93422  0.89395  1.0000
  H   H402      1.0  0.21559  0.93554  0.82726  1.0000
  C   C329      1.0  0.15648  0.98143  0.61596  1.0000
  H   H403      1.0  0.02002  0.95086  0.90060  1.0000
  C   C330      1.0  0.06806  0.88622  0.51759  1.0000
  H   H404      1.0  0.14152  0.64507  0.97767  1.0000
  C   C331      1.0  0.23408  0.93662  0.88341  1.0000
  C   C332      1.0  0.04258  0.53845  0.99394  1.0000
  H   H405      1.0  0.19213  0.98049  0.89740  1.0000
  C   C333      1.0  0.05281  0.51865  0.98664  1.0000
  H   H406      1.0  0.06858  0.60283  0.97717  1.0000
  C   C334      1.0  0.15931  0.97425  0.66503  1.0000
  S   S98       1.0  0.99655  0.85574  0.82219  1.0000
  H   H407      1.0  0.11796  0.97353  0.62787  1.0000
  H   H408      1.0  0.17258  0.98415  0.61977  1.0000
  C   C335      1.0  0.03508  0.84151  0.55809  1.0000
  H   H409      1.0  0.15334  0.96322  0.61830  1.0000
  C   C336      1.0  0.02471  0.87548  0.57765  1.0000
  C   C337      1.0  0.15120  0.98826  0.87506  1.0000
  C   C338      1.0  0.06003  0.86696  0.57183  1.0000
  H   H410      1.0  0.22294  0.88530  0.84297  1.0000
  H   H411      1.0  0.08398  0.88254  0.51899  1.0000
  H   H412      1.0  0.01349  0.88731  0.58381  1.0000
  H   H413      1.0  0.15445  0.98556  0.59714  1.0000
  C   C339      1.0  0.03981  0.97910  0.51181  1.0000
  C   C340      1.0  0.01172  0.52727  0.97608  1.0000
  H   H414      1.0  0.13378  0.58318  0.98330  1.0000
  H   H415      1.0  0.23234  0.89129  0.87096  1.0000
  H   H416      1.0  0.11999  0.99405  0.60458  1.0000
  C   C341      1.0  0.05516  0.84721  0.56088  1.0000
  H   H417      1.0  0.12276  0.62379  0.97991  1.0000
  H   H418      1.0  0.11282  0.99428  0.51591  1.0000
  C   C342      1.0  0.01918  0.85549  0.56654  1.0000
  H   H419      1.0  0.00092  0.82786  0.53458  1.0000
  C   C343      1.0  0.02126  0.50763  0.96861  1.0000
  C   C344      1.0  0.23992  0.57776  0.97565  1.0000
  C   C345      1.0  0.17605  0.97855  0.51446  1.0000
  C   C346      1.0  0.20756  0.56488  0.99147  1.0000
  H   H420      1.0  0.16023  0.57623  0.98307  1.0000
  C   C347      1.0  0.14866  0.58849  0.97641  1.0000
  H   H421      1.0  0.00109  0.81428  0.56313  1.0000
  C   C348      1.0  0.99981  0.92310  0.89881  1.0000
  C   C349      1.0  0.20222  0.91197  0.50390  1.0000
  C   C350      1.0  0.05547  0.87124  0.50621  1.0000
  H   H422      1.0  0.00940  0.96883  0.50799  1.0000
  N   N23       1.0  0.14302  0.99539  0.63073  1.0000
  C   C351      1.0  0.05283  0.99706  0.51141  1.0000
  C   C352      1.0  0.45425  0.38494  0.48502  1.0000
  Fe  Fe49      1.0  0.39901  0.07553  0.04339  1.0000
  S   S99       1.0  0.40919  0.04377  0.06202  1.0000
  S   S100      1.0  0.42172  0.10356  0.03752  1.0000
  Fe  Fe50      1.0  0.35517  0.05942  0.03782  1.0000
  S   S101      1.0  0.36335  0.02655  0.05611  1.0000
  C   C353      1.0  0.37897  0.05012  0.38685  1.0000
  Fe  Fe51      1.0  0.37999  0.04694  0.08229  1.0000
  S   S102      1.0  0.37658  0.03652  0.12110  1.0000
  Fe  Fe52      1.0  0.39170  0.02624  0.03472  1.0000
  S   S103      1.0  0.37053  0.07982  0.06516  1.0000
  S   S104      1.0  0.38284  0.05805  0.01496  1.0000
  Fe  Fe53      1.0  0.36894  0.04888  0.30553  1.0000
  S   S105      1.0  0.37011  0.07956  0.32759  1.0000
  S   S106      1.0  0.36933  0.01270  0.32129  1.0000
  Fe  Fe54      1.0  0.37425  0.07721  0.26017  1.0000
  S   S107      1.0  0.37564  0.10941  0.28036  1.0000
  S   S108      1.0  0.37707  0.08462  0.22057  1.0000
  Fe  Fe55      1.0  0.39648  0.09071  0.30521  1.0000
  S   S109      1.0  0.42388  0.10511  0.32486  1.0000
  Fe  Fe56      1.0  0.34936  0.09606  0.30100  1.0000
  S   S110      1.0  0.32417  0.12017  0.31381  1.0000
  S   S111      1.0  0.39634  0.05915  0.28421  1.0000
  S   S112      1.0  0.34685  0.06475  0.27986  1.0000
  C   C354      1.0  0.29871  0.12779  0.30688  1.0000
  C   C355      1.0  0.28774  0.11689  0.28996  1.0000
  C   C356      1.0  0.26770  0.12376  0.28510  1.0000
  C   C357      1.0  0.25828  0.14161  0.29697  1.0000
  C   C358      1.0  0.26917  0.15236  0.31406  1.0000
  C   C359      1.0  0.28918  0.14544  0.31897  1.0000
  H   H423      1.0  0.29468  0.10322  0.28060  1.0000
  H   H424      1.0  0.32173  0.01327  0.02507  1.0000
  H   H425      1.0  0.26228  0.16613  0.32334  1.0000
  H   H426      1.0  0.29744  0.15401  0.33212  1.0000
  H   H427      1.0  0.28921  0.18131  0.27308  1.0000
  H   H428      1.0  0.32318  0.40601  0.48493  1.0000
  H   H429      1.0  0.25948  0.11525  0.27188  1.0000
  C   C360      1.0  0.49010  0.12992  0.31981  1.0000
  C   C361      1.0  0.39024  0.01131  0.38459  1.0000
  C   C362      1.0  0.28822  0.10548  0.04758  1.0000
  C   C363      1.0  0.26725  0.08837  0.33854  1.0000
  H   H430      1.0  0.48282  0.10451  0.07208  1.0000
  C   C364      1.0  0.47877  0.13174  0.34037  1.0000
  C   C365      1.0  0.45872  0.12410  0.34149  1.0000
  C   C366      1.0  0.44942  0.11462  0.32211  1.0000
  C   C367      1.0  0.46079  0.11276  0.30157  1.0000
  H   H431      1.0  0.41059  0.01624  0.34181  1.0000
  H   H432      1.0  0.48543  0.13904  0.35546  1.0000
  H   H433      1.0  0.45025  0.12576  0.35751  1.0000
  H   H434      1.0  0.45409  0.10551  0.28646  1.0000
  H   H435      1.0  0.43923  0.06870  0.00795  1.0000
  C   C368      1.0  0.37670  0.05038  0.14854  1.0000
  C   C369      1.0  0.37371  0.03762  0.16922  1.0000
  C   C370      1.0  0.37379  0.04765  0.19134  1.0000
  C   C371      1.0  0.37692  0.07071  0.19318  1.0000
  C   C372      1.0  0.37981  0.08350  0.17250  1.0000
  C   C373      1.0  0.37969  0.07347  0.15039  1.0000
  H   H436      1.0  0.37139  0.01976  0.16813  1.0000
  H   H437      1.0  0.37154  0.03749  0.20693  1.0000
  H   H438      1.0  0.38236  0.10131  0.17356  1.0000
  H   H439      1.0  0.38206  0.08358  0.13478  1.0000
  C   C374      1.0  0.39420  0.03436  0.38020  1.0000
  H   H440      1.0  0.46375  0.31828  0.42436  1.0000
  H   H441      1.0  0.45504  0.04260  0.05794  1.0000
  C   C375      1.0  0.47403  0.37913  0.49159  1.0000
  H   H442      1.0  0.33148  0.02106  0.34738  1.0000
  C   C376      1.0  0.27269  0.39722  0.47806  1.0000
  C   C377      1.0  0.26654  0.40130  0.50099  1.0000
  H   H443      1.0  0.42617  0.03962  0.33394  1.0000
  H   H444      1.0  0.28531  0.32298  0.41913  1.0000
  N   N24       1.0  0.25282  0.32428  0.42093  1.0000
  H   H445      1.0  0.45016  0.38470  0.46685  1.0000
  C   C378      1.0  0.41649  0.06568  0.36902  1.0000
  H   H446      1.0  0.45484  0.13351  0.03232  1.0000
  C   C379      1.0  0.44479  0.10117  0.02178  1.0000
  C   C380      1.0  0.29329  0.39901  0.47259  1.0000
  N   N25       1.0  0.32211  0.11758  0.21836  1.0000
  C   C381      1.0  0.34077  0.12577  0.20707  1.0000
  C   C382      1.0  0.32721  0.09788  0.23355  1.0000
  C   C383      1.0  0.30883  0.10978  0.19967  1.0000
  C   C384      1.0  0.31294  0.13552  0.23265  1.0000
  C   C385      1.0  0.32405  0.14504  0.25081  1.0000
  C   C386      1.0  0.29284  0.14357  0.22959  1.0000
  C   C387      1.0  0.31564  0.16159  0.26495  1.0000
  C   C388      1.0  0.28456  0.16011  0.24392  1.0000
  H   H447      1.0  0.26899  0.16550  0.24190  1.0000
  H   H448      1.0  0.35274  0.12905  0.21988  1.0000
  H   H449      1.0  0.34750  0.11310  0.19516  1.0000
  H   H450      1.0  0.33789  0.14152  0.19677  1.0000
  H   H451      1.0  0.33888  0.10177  0.24645  1.0000
  H   H452      1.0  0.33344  0.08357  0.22340  1.0000
  H   H453      1.0  0.31383  0.09192  0.24341  1.0000
  H   H454      1.0  0.30462  0.12375  0.18737  1.0000
  H   H455      1.0  0.31640  0.09652  0.18913  1.0000
  H   H456      1.0  0.29497  0.10216  0.20701  1.0000
  H   H457      1.0  0.33919  0.13930  0.25469  1.0000
  H   H458      1.0  0.28304  0.13711  0.21660  1.0000
  C   C389      1.0  0.48470  0.08726  0.06696  1.0000
  H   H459      1.0  0.40508  0.07543  0.35874  1.0000
  H   H460      1.0  0.27762  0.05548  0.32877  1.0000
  C   C390      1.0  0.25242  0.09998  0.05074  1.0000
  H   H461      1.0  0.27523  0.33895  0.44248  1.0000
  C   C391      1.0  0.37270  0.00456  0.39601  1.0000
  C   C392      1.0  0.35824  0.02041  0.40258  1.0000
  H   H462      1.0  0.36325  0.01215  0.00391  1.0000
  H   H463      1.0  0.26989  0.27430  0.36208  1.0000
  C   C393      1.0  0.24865  0.11468  0.03138  1.0000
  C   C394      1.0  0.46857  0.05232  0.05888  1.0000
  C   C395      1.0  0.28354  0.06262  0.00798  1.0000
  C   C396      1.0  0.44045  0.48212  0.47631  1.0000
  C   C397      1.0  0.43065  0.02969  0.37961  1.0000
  S   S113      1.0  0.25571  0.38850  0.45596  1.0000
  H   H464      1.0  0.29835  0.39590  0.45501  1.0000
  H   H465      1.0  0.29793  0.12676  0.01928  1.0000
  C   C398      1.0  0.48089  0.12022  0.30051  1.0000
  N   N26       1.0  0.41307  0.04113  0.36843  1.0000
  H   H466      1.0  0.26451  0.13476  0.00470  1.0000
  H   H467      1.0  0.45534  0.02921  0.01040  1.0000
  C   C399      1.0  0.30748  0.40480  0.48958  1.0000
  H   H468      1.0  0.26373  0.34346  0.39110  1.0000
  C   C400      1.0  0.47769  0.44136  0.49387  1.0000
  C   C401      1.0  0.47644  0.32939  0.41982  1.0000
  H   H469      1.0  0.43114  0.07027  0.36092  1.0000
  H   H470      1.0  0.27971  0.05082  0.02180  1.0000
  H   H471      1.0  0.27453  0.30875  0.44400  1.0000
  H   H472      1.0  0.44508  0.03589  0.37225  1.0000
  C   C402      1.0  0.26299  0.29737  0.38961  1.0000
  C   C403      1.0  0.25991  0.27828  0.37646  1.0000
  H   H473      1.0  0.42405  0.48555  0.47823  1.0000
  C   C404      1.0  0.25063  0.10226  0.34346  1.0000
  N   N27       1.0  0.44884  0.46998  0.49702  1.0000
  C   C405      1.0  0.41243  0.03463  0.34374  1.0000
  C   C406      1.0  0.46227  0.01304  0.00667  1.0000
  H   H474      1.0  0.47292  0.28053  0.42266  1.0000
  C   C407      1.0  0.30339  0.07031  0.00623  1.0000
  H   H475      1.0  0.39944  0.04289  0.33479  1.0000
  S   S114      1.0  0.49178  0.37147  0.46978  1.0000
  H   H476      1.0  0.47661  0.24779  0.39800  1.0000
  H   H477      1.0  0.41633  0.07186  0.38713  1.0000
  C   C408      1.0  0.48705  0.04289  0.05248  1.0000
  H   H478      1.0  0.48933  0.11850  0.28448  1.0000
  C   C409      1.0  0.27193  0.09552  0.05867  1.0000
  H   H479      1.0  0.43062  0.03250  0.39870  1.0000
  C   C410      1.0  0.28510  0.11978  0.02839  1.0000
  H   H480      1.0  0.43610  0.43858  0.48715  1.0000
  S   S115      1.0  0.40395  0.99981  0.00973  1.0000
  H   H481      1.0  0.38013  0.06791  0.38331  1.0000
  H   H482      1.0  0.25383  0.11945  0.34732  1.0000
  H   H483      1.0  0.30338  0.10146  0.05331  1.0000
  C   C411      1.0  0.33692  0.00428  0.35175  1.0000
  H   H484      1.0  0.25330  0.35999  0.41376  1.0000
  H   H485      1.0  0.28228  0.09506  0.33886  1.0000
  C   C412      1.0  0.36130  0.04312  0.39787  1.0000
  H   H486      1.0  0.27561  0.30766  0.38493  1.0000
  C   C413      1.0  0.26568  0.12425  0.02020  1.0000
  H   H487      1.0  0.34971  0.05534  0.40235  1.0000
  H   H488      1.0  0.44263  0.47211  0.46033  1.0000
  H   H489      1.0  0.46830  0.42742  0.49846  1.0000
  C   C414      1.0  0.45855  0.11879  0.02236  1.0000
  S   S116      1.0  0.32149  0.06055  0.02738  1.0000
  H   H490      1.0  0.32420  0.16792  0.27929  1.0000
  H   H491      1.0  0.47470  0.34439  0.43103  1.0000
  C   C415      1.0  0.48668  0.26173  0.39566  1.0000
  C   C416      1.0  0.29593  0.16908  0.26153  1.0000
  H   H492      1.0  0.48784  0.02572  0.04665  1.0000
  H   H493      1.0  0.43101  0.01129  0.37686  1.0000
  H   H494      1.0  0.34435  0.01494  0.41061  1.0000
  C   C417      1.0  0.46740  0.07442  0.06614  1.0000
  H   H495      1.0  0.47453  0.33519  0.40140  1.0000
  C   C418      1.0  0.25169  0.34385  0.40455  1.0000
  C   C419      1.0  0.24975  0.30338  0.40804  1.0000
  C   C420      1.0  0.27285  0.32363  0.43205  1.0000
  C   C421      1.0  0.32789  0.99734  0.01782  1.0000
  C   C422      1.0  0.26465  0.06606  0.33279  1.0000
  H   H496      1.0  0.48727  0.13129  0.01057  1.0000
  C   C423      1.0  0.48481  0.28049  0.40977  1.0000
  H   H497      1.0  0.27454  0.08388  0.07316  1.0000
  C   C424      1.0  0.44972  0.08226  0.00874  1.0000
  H   H498      1.0  0.48519  0.29911  0.45323  1.0000
  C   C425      1.0  0.48423  0.48076  0.48685  1.0000
  H   H499      1.0  0.45287  0.08185  0.07057  1.0000
  H   H500      1.0  0.42444  0.39518  0.49650  1.0000
  C   C426      1.0  0.47701  0.11751  0.01015  1.0000
  C   C427      1.0  0.47019  0.46387  0.49265  1.0000
  H   H501      1.0  0.40031  0.99822  0.37854  1.0000
  C   C428      1.0  0.43965  0.39102  0.50179  1.0000
  C   C429      1.0  0.43596  0.45033  0.50194  1.0000
  Fe  Fe57      1.0  0.35143  0.42621  0.53955  1.0000
  S   S117      1.0  0.35349  0.46128  0.55343  1.0000
  S   S118      1.0  0.31877  0.41420  0.53544  1.0000
  Fe  Fe58      1.0  0.39757  0.41839  0.54521  1.0000
  S   S119      1.0  0.40166  0.45276  0.55958  1.0000
  S   S120      1.0  0.42664  0.39731  0.54744  1.0000
  Fe  Fe59      1.0  0.37388  0.44605  0.58108  1.0000
  S   S121      1.0  0.37157  0.45718  0.61914  1.0000
  Fe  Fe60      1.0  0.38115  0.46467  0.53101  1.0000
  S   S122      1.0  0.37086  0.41096  0.56849  1.0000
  S   S123      1.0  0.37815  0.43044  0.51530  1.0000
  Fe  Fe61      1.0  0.39062  0.40242  0.80422  1.0000
  S   S124      1.0  0.38606  0.43470  0.78288  1.0000
  S   S125      1.0  0.41854  0.38891  0.82467  1.0000
  Fe  Fe62      1.0  0.34530  0.39053  0.80021  1.0000
  S   S126      1.0  0.33833  0.42147  0.77851  1.0000
  S   S127      1.0  0.32353  0.36430  0.81521  1.0000
  Fe  Fe63      1.0  0.36716  0.41392  0.75902  1.0000
  S   S128      1.0  0.36836  0.40753  0.71952  1.0000
  Fe  Fe64      1.0  0.35736  0.44012  0.80410  1.0000
  S   S129      1.0  0.34155  0.47225  0.81828  1.0000
  S   S130      1.0  0.37312  0.38162  0.77960  1.0000
  S   S131      1.0  0.36299  0.40927  0.82650  1.0000
  C   C430      1.0  0.30316  0.42792  0.63035  1.0000
  C   C431      1.0  0.46808  0.08108  0.99638  1.0000
  C   C432      1.0  0.27294  0.08590  0.97448  1.0000
  S   S132      1.0  0.25441  0.09709  0.95450  1.0000
  C   C433      1.0  0.26836  0.40020  0.84666  1.0000
  C   C434      1.0  0.25660  0.41605  0.80991  1.0000
  H   H502      1.0  0.29415  0.40533  0.69421  1.0000
  H   H503      1.0  0.36045  0.33803  0.80093  1.0000
  C   C435      1.0  0.29852  0.35761  0.80692  1.0000
  C   C436      1.0  0.28905  0.36776  0.78761  1.0000
  C   C437      1.0  0.26938  0.36170  0.78159  1.0000
  C   C438      1.0  0.25876  0.34553  0.79477  1.0000
  C   C439      1.0  0.26821  0.33548  0.81418  1.0000
  C   C440      1.0  0.28793  0.34147  0.82015  1.0000
  H   H504      1.0  0.29691  0.38012  0.77716  1.0000
  H   H505      1.0  0.46974  0.15909  0.93382  1.0000
  H   H506      1.0  0.29501  0.33347  0.83512  1.0000
  H   H507      1.0  0.48245  0.35423  0.85221  1.0000
  H   H508      1.0  0.35726  0.01816  0.97412  1.0000
  C   C441      1.0  0.43608  0.31993  0.78889  1.0000
  H   H509      1.0  0.30084  0.45963  0.80912  1.0000
  H   H510      1.0  0.36558  0.30928  0.85655  1.0000
  H   H511      1.0  0.26032  0.32307  0.82454  1.0000
  N   N28       1.0  0.33436  0.00036  0.99319  1.0000
  H   H512      1.0  0.47192  0.15394  0.96423  1.0000
  C   C442      1.0  0.47124  0.36445  0.79539  1.0000
  C   C443      1.0  0.45173  0.37412  0.79794  1.0000
  C   C444      1.0  0.44320  0.37676  0.82010  1.0000
  C   C445      1.0  0.45460  0.36947  0.83956  1.0000
  C   C446      1.0  0.47406  0.35966  0.83701  1.0000
  H   H513      1.0  0.32001  0.43048  0.82829  1.0000
  H   H514      1.0  0.44331  0.37953  0.78273  1.0000
  H   H515      1.0  0.44832  0.37143  0.85682  1.0000
  H   H516      1.0  0.47457  0.44893  0.87190  1.0000
  N   N29       1.0  0.28763  0.43214  0.82864  1.0000
  C   C447      1.0  0.49394  0.20651  0.89090  1.0000
  C   C448      1.0  0.26850  0.07019  0.99220  1.0000
  C   C449      1.0  0.44463  0.39104  0.52539  1.0000
  C   C450      1.0  0.46440  0.38520  0.53194  1.0000
  C   C451      1.0  0.47380  0.16713  0.95033  1.0000
  H   H517      1.0  0.27579  0.40928  0.53577  1.0000
  H   H518      1.0  0.46841  0.38502  0.55015  1.0000
  C   C452      1.0  0.39978  0.32324  0.78958  1.0000
  C   C453      1.0  0.37072  0.44296  0.64687  1.0000
  C   C454      1.0  0.36899  0.41965  0.64917  1.0000
  C   C455      1.0  0.36809  0.40924  0.67149  1.0000
  C   C456      1.0  0.36875  0.42192  0.69188  1.0000
  C   C457      1.0  0.37013  0.44527  0.68958  1.0000
  C   C458      1.0  0.37113  0.45567  0.66723  1.0000
  H   H519      1.0  0.36808  0.40965  0.63381  1.0000
  H   H520      1.0  0.36693  0.39118  0.67301  1.0000
  H   H521      1.0  0.37063  0.45531  0.70500  1.0000
  H   H522      1.0  0.37226  0.47374  0.66575  1.0000
  C   C459      1.0  0.48620  0.41584  0.82634  1.0000
  H   H523      1.0  0.38124  0.36226  0.82533  1.0000
  H   H524      1.0  0.32962  0.44260  0.64559  1.0000
  H   H525      1.0  0.41776  0.32086  0.75833  1.0000
  C   C460      1.0  0.30799  0.08553  0.98814  1.0000
  N   N30       1.0  0.30779  0.43541  0.60619  1.0000
  H   H526      1.0  0.27196  0.45507  0.85113  1.0000
  C   C461      1.0  0.31311  0.42479  0.67144  1.0000
  C   C462      1.0  0.41786  0.32118  0.77717  1.0000
  H   H527      1.0  0.46259  0.18084  0.95359  1.0000
  H   H528      1.0  0.26227  0.36963  0.76659  1.0000
  H   H529      1.0  0.48915  0.19717  0.97917  1.0000
  C   C463      1.0  0.31708  0.01032  0.98009  1.0000
  H   H530      1.0  0.31196  0.02663  0.98752  1.0000
  C   C464      1.0  0.27073  0.41637  0.82835  1.0000
  H   H531      1.0  0.44760  0.37208  0.61984  1.0000
  H   H532      1.0  0.49420  0.37499  0.52049  1.0000
  C   C465      1.0  0.31637  0.43284  0.64873  1.0000
  C   C466      1.0  0.35076  0.01679  0.99198  1.0000
  C   C467      1.0  0.31186  0.45985  0.60519  1.0000
  H   H533      1.0  0.31388  0.46618  0.58694  1.0000
  C   C468      1.0  0.28316  0.40663  0.65904  1.0000
  H   H534      1.0  0.36218  0.30780  0.80486  1.0000
  H   H535      1.0  0.32601  0.46406  0.61413  1.0000
  H   H536      1.0  0.45011  0.31871  0.77926  1.0000
  H   H537      1.0  0.30388  0.99920  0.98084  1.0000
  C   C469      1.0  0.35847  0.48848  0.85923  1.0000
  C   C470      1.0  0.43634  0.32097  0.81305  1.0000
  C   C471      1.0  0.28800  0.44798  0.80829  1.0000
  H   H538      1.0  0.32311  0.09166  0.98641  1.0000
  N   N31       1.0  0.42478  0.39848  0.62055  1.0000
  C   C472      1.0  0.40941  0.38377  0.61076  1.0000
  C   C473      1.0  0.42210  0.42108  0.60942  1.0000
  C   C474      1.0  0.37988  0.34871  0.83880  1.0000
  C   C475      1.0  0.42291  0.39860  0.64626  1.0000
  C   C476      1.0  0.42434  0.37816  0.65943  1.0000
  C   C477      1.0  0.41960  0.41860  0.65894  1.0000
  C   C478      1.0  0.42204  0.37772  0.68365  1.0000
  C   C479      1.0  0.41759  0.41796  0.68319  1.0000
  C   C480      1.0  0.41855  0.39758  0.69548  1.0000
  H   H539      1.0  0.40975  0.38416  0.59137  1.0000
  H   H540      1.0  0.43362  0.43293  0.61525  1.0000
  H   H541      1.0  0.39406  0.38916  0.61628  1.0000
  H   H542      1.0  0.40691  0.42838  0.61310  1.0000
  C   C481      1.0  0.47558  0.43120  0.83983  1.0000
  H   H543      1.0  0.25732  0.42731  0.79498  1.0000
  C   C482      1.0  0.28080  0.40664  0.51810  1.0000
  C   C483      1.0  0.25292  0.38467  0.84647  1.0000
  H   H544      1.0  0.44700  0.38992  0.59451  1.0000
  H   H545      1.0  0.42698  0.36231  0.65105  1.0000
  H   H546      1.0  0.45698  0.40003  0.62127  1.0000
  H   H547      1.0  0.42267  0.36190  0.69333  1.0000
  H   H548      1.0  0.41443  0.43330  0.69248  1.0000
  H   H549      1.0  0.41614  0.39718  0.71418  1.0000
  H   H550      1.0  0.41158  0.36589  0.61613  1.0000
  H   H551      1.0  0.28899  0.41310  0.58718  1.0000
  H   H552      1.0  0.39193  0.31089  0.86007  1.0000
  C   C484      1.0  0.29141  0.43135  0.58944  1.0000
  C   C485      1.0  0.32592  0.42303  0.59810  1.0000
  C   C486      1.0  0.28638  0.41448  0.63618  1.0000
  H   H553      1.0  0.41791  0.43495  0.65059  1.0000
  H   H554      1.0  0.27709  0.43969  0.59487  1.0000
  H   H555      1.0  0.29512  0.43796  0.57162  1.0000
  H   H556      1.0  0.45461  0.47684  0.53292  1.0000
  H   H557      1.0  0.32357  0.40457  0.59837  1.0000
  H   H558      1.0  0.32990  0.42804  0.57996  1.0000
  H   H559      1.0  0.27565  0.40959  0.62337  1.0000
  H   H560      1.0  0.36549  0.35177  0.84833  1.0000
  H   H561      1.0  0.47759  0.36267  0.77813  1.0000
  H   H562      1.0  0.45062  0.32070  0.82202  1.0000
  H   H563      1.0  0.28832  0.43529  0.86609  1.0000
  H   H564      1.0  0.48025  0.41103  0.80970  1.0000
  H   H565      1.0  0.29665  0.10535  0.95889  1.0000
  C   C487      1.0  0.41840  0.32337  0.82560  1.0000
  H   H566      1.0  0.38626  0.32452  0.77935  1.0000
  H   H567      1.0  0.28996  0.43890  0.79167  1.0000
  H   H568      1.0  0.32370  0.42845  0.68506  1.0000
  H   H569      1.0  0.29935  0.46971  0.61321  1.0000
  C   C488      1.0  0.36225  0.32407  0.81398  1.0000
  H   H570      1.0  0.38208  0.29173  0.83952  1.0000
  H   H571      1.0  0.39239  0.35107  0.85116  1.0000
  H   H572      1.0  0.29880  0.45828  0.85020  1.0000
  H   H573      1.0  0.47155  0.06654  0.98608  1.0000
  C   C489      1.0  0.30687  0.41923  0.82859  1.0000
  H   H574      1.0  0.30793  0.40846  0.81307  1.0000
  C   C490      1.0  0.29288  0.09331  0.97253  1.0000
  H   H575      1.0  0.33922  0.42625  0.60898  1.0000
  H   H576      1.0  0.34550  0.03388  0.99702  1.0000
  C   C491      1.0  0.34266  0.48980  0.84330  1.0000
  C   C492      1.0  0.48263  0.35711  0.81484  1.0000
  C   C493      1.0  0.39951  0.32408  0.81431  1.0000
  H   H577      1.0  0.43136  0.48849  0.52218  1.0000
  H   H578      1.0  0.41953  0.32527  0.84418  1.0000
  H   H579      1.0  0.34837  0.32486  0.82491  1.0000
  C   C494      1.0  0.29653  0.41171  0.67660  1.0000
  N   N32       1.0  0.49451  0.17586  0.94980  1.0000
  N   N33       1.0  0.38070  0.32633  0.82807  1.0000
  H   H580      1.0  0.42361  0.42042  0.59017  1.0000
  C   C495      1.0  0.38011  0.30879  0.84683  1.0000
  C   C496      1.0  0.44496  0.38974  0.61382  1.0000
  H   H581      1.0  0.27412  0.45866  0.80743  1.0000
  C   C497      1.0  0.30140  0.40847  0.51260  1.0000
  H   H582      1.0  0.30868  0.40792  0.84410  1.0000
  H   H583      1.0  0.41996  0.45550  0.50472  1.0000
  H   H584      1.0  0.27033  0.39630  0.66314  1.0000
  S   S133      1.0  0.38914  0.49242  0.50479  1.0000
  H   H585      1.0  0.25349  0.06381  0.99382  1.0000
  C   C498      1.0  0.28657  0.44574  0.84995  1.0000
  H   H586      1.0  0.46144  0.43833  0.83362  1.0000
  H   H587      1.0  0.37041  0.47613  0.85690  1.0000
  H   H588      1.0  0.27873  0.39908  0.86101  1.0000
  C   C499      1.0  0.47908  0.37947  0.51515  1.0000
  H   H589      1.0  0.25173  0.37203  0.86025  1.0000
  H   H590      1.0  0.25087  0.39987  0.50568  1.0000
  H   H591      1.0  0.32115  0.01404  0.96161  1.0000
  H   H592      1.0  0.44064  0.44098  0.51807  1.0000
  C   C500      1.0  0.49158  0.18996  0.90831  1.0000
  H   H593      1.0  0.49078  0.20287  0.87292  1.0000
  H   H594      1.0  0.48655  0.17374  0.90305  1.0000
  C   C501      1.0  0.44730  0.48482  0.51737  1.0000
  C   C502      1.0  0.48190  0.09859  0.99708  1.0000
  C   C503      1.0  0.48298  0.43703  0.86143  1.0000
  C   C504      1.0  0.47661  0.01122  0.98902  1.0000
  H   H595      1.0  0.48099  0.02612  0.97920  1.0000
  H   H596      1.0  0.42874  0.68586  0.45523  1.0000
  H   H597      1.0  0.41993  0.56275  0.47819  1.0000
  Fe  Fe65      1.0  0.43532  0.65067  0.08224  1.0000
  S   S134      1.0  0.42090  0.68235  0.09585  1.0000
  S   S135      1.0  0.42705  0.63259  0.04880  1.0000
  Fe  Fe66      1.0  0.46929  0.65037  0.11898  1.0000
  S   S136      1.0  0.45637  0.68175  0.13540  1.0000
  Fe  Fe67      1.0  0.42582  0.66679  0.13186  1.0000
  S   S137      1.0  0.39862  0.66659  0.15712  1.0000
  Fe  Fe68      1.0  0.45238  0.69503  0.09846  1.0000
  S   S138      1.0  0.46343  0.73063  0.09071  1.0000
  S   S139      1.0  0.43879  0.63430  0.11779  1.0000
  S   S140      1.0  0.46674  0.66452  0.08245  1.0000
  H   H598      1.0  0.31506  0.55244  0.01164  1.0000
  H   H599      1.0  0.35615  0.94383  0.36806  1.0000
  S   S141      1.0  0.47171  0.65490  0.45537  1.0000
  H   H600      1.0  0.40248  0.96772  0.04928  1.0000
  S   S142      1.0  0.46018  0.60107  0.45951  1.0000
  C   C505      1.0  0.29633  0.56847  0.06377  1.0000
  C   C506      1.0  0.25100  0.65161  0.23040  1.0000
  Fe  Fe69      1.0  0.44632  0.63319  0.44443  1.0000
  S   S143      1.0  0.43680  0.64002  0.40690  1.0000
  C   C507      1.0  0.28003  0.74745  0.31113  1.0000
  Fe  Fe70      1.0  0.34843  0.69248  0.28956  1.0000
  S   S144      1.0  0.33058  0.66430  0.30614  1.0000
  S   S145      1.0  0.37485  0.68885  0.26335  1.0000
  Fe  Fe71      1.0  0.33075  0.72755  0.32437  1.0000
  S   S146      1.0  0.31176  0.70187  0.34270  1.0000
  S   S147      1.0  0.33406  0.76482  0.33310  1.0000
  Fe  Fe72      1.0  0.33912  0.67914  0.34042  1.0000
  S   S148      1.0  0.34727  0.65900  0.37311  1.0000
  Fe  Fe73      1.0  0.30428  0.68900  0.30723  1.0000
  S   S149      1.0  0.27141  0.68418  0.29565  1.0000
  S   S150      1.0  0.35852  0.70544  0.32424  1.0000
  S   S151      1.0  0.32180  0.71651  0.28855  1.0000
  Fe  Fe74      1.0  0.31862  0.91914  0.41653  1.0000
  S   S152      1.0  0.29013  0.89888  0.42028  1.0000
  S   S153      1.0  0.31864  0.95248  0.39478  1.0000
  Fe  Fe75      1.0  0.33912  0.89164  0.45679  1.0000
  S   S154      1.0  0.31204  0.87067  0.46317  1.0000
  H   H601      1.0  0.39767  0.83580  0.45578  1.0000
  Fe  Fe76      1.0  0.31100  0.86832  0.42392  1.0000
  S   S155      1.0  0.30505  0.83201  0.41305  1.0000
  Fe  Fe77      1.0  0.29316  0.90239  0.45909  1.0000
  S   S156      1.0  0.27068  0.91409  0.48758  1.0000
  S   S157      1.0  0.33912  0.88824  0.41767  1.0000
  S   S158      1.0  0.32069  0.92373  0.45523  1.0000
  H   H602      1.0  0.37505  0.96765  0.33968  1.0000
  C   C508      1.0  0.41389  0.93616  0.03590  1.0000
  C   C509      1.0  0.37762  0.87259  0.50134  1.0000
  H   H603      1.0  0.31445  0.53556  0.03797  1.0000
  C   C510      1.0  0.39043  0.74343  0.38276  1.0000
  H   H604      1.0  0.26907  0.64351  0.32616  1.0000
  C   C511      1.0  0.32695  0.78265  0.35652  1.0000
  C   C512      1.0  0.31487  0.77543  0.37514  1.0000
  C   C513      1.0  0.30861  0.79069  0.39238  1.0000
  C   C514      1.0  0.31444  0.81331  0.39144  1.0000
  C   C515      1.0  0.32705  0.82034  0.37323  1.0000
  C   C516      1.0  0.33314  0.80514  0.35587  1.0000
  H   H605      1.0  0.30990  0.75827  0.37594  1.0000
  H   H606      1.0  0.29880  0.78503  0.40631  1.0000
  H   H607      1.0  0.33165  0.83764  0.37213  1.0000
  H   H608      1.0  0.34245  0.81099  0.34155  1.0000
  C   C517      1.0  0.41177  0.64608  0.39843  1.0000
  C   C518      1.0  0.40824  0.65839  0.37767  1.0000
  C   C519      1.0  0.38853  0.66310  0.37009  1.0000
  C   C520      1.0  0.37221  0.65506  0.38294  1.0000
  C   C521      1.0  0.37572  0.64306  0.40390  1.0000
  C   C522      1.0  0.39542  0.63871  0.41173  1.0000
  H   H609      1.0  0.42081  0.66419  0.36734  1.0000
  H   H610      1.0  0.38592  0.67257  0.35413  1.0000
  H   H611      1.0  0.36314  0.63680  0.41394  1.0000
  H   H612      1.0  0.39796  0.62916  0.42772  1.0000
  C   C523      1.0  0.33291  0.96869  0.37399  1.0000
  C   C524      1.0  0.38568  0.70552  0.41163  1.0000
  H   H613      1.0  0.31240  0.99710  0.37548  1.0000
  C   C525      1.0  0.39244  0.67312  0.18674  1.0000
  C   C526      1.0  0.40679  0.67963  0.20282  1.0000
  C   C527      1.0  0.40107  0.68440  0.22601  1.0000
  C   C528      1.0  0.38093  0.68290  0.23359  1.0000
  C   C529      1.0  0.36660  0.67635  0.21754  1.0000
  C   C530      1.0  0.37233  0.67148  0.19438  1.0000
  H   H614      1.0  0.42229  0.68100  0.19737  1.0000
  H   H615      1.0  0.41235  0.68948  0.23813  1.0000
  H   H616      1.0  0.35108  0.67503  0.22294  1.0000
  H   H617      1.0  0.36105  0.66646  0.18222  1.0000
  H   H618      1.0  0.28977  0.82099  0.34384  1.0000
  H   H619      1.0  0.29000  0.78652  0.32253  1.0000
  H   H620      1.0  0.27903  0.59592  0.03131  1.0000
  H   H621      1.0  0.27698  0.65471  0.25206  1.0000
  C   C531      1.0  0.40348  0.62411  0.03758  1.0000
  C   C532      1.0  0.38576  0.62450  0.05085  1.0000
  C   C533      1.0  0.36756  0.61739  0.04120  1.0000
  H   H622      1.0  0.47296  0.59495  0.12102  1.0000
  H   H623      1.0  0.45097  0.69636  0.42448  1.0000
  H   H624      1.0  0.38609  0.63021  0.06858  1.0000
  C   C534      1.0  0.47176  0.56820  0.06967  1.0000
  C   C535      1.0  0.45948  0.77350  0.02272  1.0000
  C   C536      1.0  0.46692  0.78244  0.04316  1.0000
  C   C537      1.0  0.46804  0.76908  0.06375  1.0000
  C   C538      1.0  0.46181  0.74663  0.06419  1.0000
  C   C539      1.0  0.45460  0.73761  0.04368  1.0000
  C   C540      1.0  0.45344  0.75098  0.02311  1.0000
  H   H625      1.0  0.47198  0.79956  0.04309  1.0000
  C   C541      1.0  0.25497  0.64572  0.31711  1.0000
  H   H626      1.0  0.44984  0.72036  0.04369  1.0000
  C   C542      1.0  0.43828  0.70298  0.41362  1.0000
  H   H627      1.0  0.36057  0.78493  0.48919  1.0000
  H   H628      1.0  0.47914  0.56931  0.05230  1.0000
  H   H629      1.0  0.26094  0.55280  0.06590  1.0000
  H   H630      1.0  0.40372  0.52604  0.47291  1.0000
  C   C543      1.0  0.41562  0.55266  0.49323  1.0000
  Fe  Fe78      1.0  0.48431  0.62335  0.47260  1.0000
  S   S159      1.0  0.42841  0.89586  0.01956  1.0000
  C   C544      1.0  0.35070  0.96062  0.36369  1.0000
  H   H631      1.0  0.27089  0.61959  0.27432  1.0000
  Fe  Fe79      1.0  0.45356  0.66034  0.48806  1.0000
  N   N34       1.0  0.29464  0.56462  0.03840  1.0000
  C   C545      1.0  0.46790  0.58277  0.10796  1.0000
  C   C546      1.0  0.36267  0.67786  0.03783  1.0000
  H   H632      1.0  0.30590  0.59768  0.03082  1.0000
  C   C547      1.0  0.27695  0.55133  0.03229  1.0000
  H   H633      1.0  0.27950  0.73094  0.30247  1.0000
  C   C548      1.0  0.25222  0.66401  0.30163  1.0000
  H   H634      1.0  0.25217  0.73046  0.35759  1.0000
  C   C549      1.0  0.24933  0.77683  0.35799  1.0000
  C   C550      1.0  0.41586  0.69073  0.44386  1.0000
  H   H635      1.0  0.43305  0.74299  0.43291  1.0000
  C   C551      1.0  0.29314  0.58684  0.02638  1.0000
  C   C552      1.0  0.42170  0.92478  0.01654  1.0000
  C   C553      1.0  0.41063  0.97094  0.01309  1.0000
  C   C554      1.0  0.26428  0.64451  0.24779  1.0000
  C   C555      1.0  0.37031  0.71269  0.39656  1.0000
  H   H636      1.0  0.32709  0.56206  0.03656  1.0000
  C   C556      1.0  0.39537  0.67791  0.01964  1.0000
  N   N35       1.0  0.26348  0.75023  0.32835  1.0000
  H   H637      1.0  0.41158  0.67832  0.02126  1.0000
  C   C557      1.0  0.26428  0.81269  0.36513  1.0000
  H   H638      1.0  0.27892  0.73331  0.35661  1.0000
  S   S160      1.0  0.42750  0.64011  0.47610  1.0000
  H   H639      1.0  0.27923  0.76048  0.29698  1.0000
  C   C558      1.0  0.37264  0.73162  0.38221  1.0000
  H   H640      1.0  0.41251  0.67545  0.43405  1.0000
  C   C559      1.0  0.40841  0.95915  0.03424  1.0000
  C   C560      1.0  0.40595  0.73638  0.39770  1.0000
  C   C561      1.0  0.47973  0.60668  0.07695  1.0000
  H   H641      1.0  0.43878  0.72317  0.45559  1.0000
  S   S161      1.0  0.36888  0.88870  0.47672  1.0000
  H   H642      1.0  0.47372  0.77622  0.07947  1.0000
  N   N36       1.0  0.48070  0.58342  0.08666  1.0000
  C   C562      1.0  0.35373  0.67470  0.01623  1.0000
  H   H643      1.0  0.36074  0.73694  0.37036  1.0000
  C   C563      1.0  0.37363  0.79529  0.48782  1.0000
  H   H644      1.0  0.26654  0.71484  0.33715  1.0000
  H   H645      1.0  0.46788  0.56569  0.11620  1.0000
  H   H646      1.0  0.45198  0.58743  0.10407  1.0000
  H   H647      1.0  0.44415  0.71702  0.40270  1.0000
  H   H648      1.0  0.28376  0.57925  0.07032  1.0000
  H   H649      1.0  0.38502  0.81885  0.42287  1.0000
  C   C564      1.0  0.24973  0.79684  0.37025  1.0000
  H   H650      1.0  0.39032  0.68119  0.05639  1.0000
  N   N37       1.0  0.40787  0.64183  0.30080  1.0000
  C   C565      1.0  0.40418  0.66573  0.30628  1.0000
  C   C566      1.0  0.42956  0.63881  0.29520  1.0000
  C   C567      1.0  0.39650  0.63654  0.27950  1.0000
  C   C568      1.0  0.40115  0.62775  0.32085  1.0000
  C   C569      1.0  0.41482  0.61688  0.33658  1.0000
  C   C570      1.0  0.38039  0.62593  0.32616  1.0000
  C   C571      1.0  0.40798  0.60472  0.35608  1.0000
  C   C572      1.0  0.37373  0.61351  0.34554  1.0000
  C   C573      1.0  0.38749  0.60299  0.36050  1.0000
  H   H651      1.0  0.41218  0.67039  0.32232  1.0000
  H   H652      1.0  0.40913  0.67714  0.29181  1.0000
  H   H653      1.0  0.38793  0.66949  0.30915  1.0000
  H   H654      1.0  0.43922  0.64504  0.30928  1.0000
  H   H655      1.0  0.43385  0.64855  0.27920  1.0000
  H   H656      1.0  0.43344  0.62085  0.29211  1.0000
  H   H657      1.0  0.38040  0.64171  0.28062  1.0000
  H   H658      1.0  0.40220  0.64585  0.26384  1.0000
  H   H659      1.0  0.39735  0.61828  0.27593  1.0000
  H   H660      1.0  0.43088  0.61804  0.33467  1.0000
  H   H661      1.0  0.36910  0.63481  0.31594  1.0000
  H   H662      1.0  0.41864  0.59730  0.36835  1.0000
  H   H663      1.0  0.35781  0.61304  0.34965  1.0000
  H   H664      1.0  0.38227  0.59420  0.37604  1.0000
  H   H665      1.0  0.46393  0.61265  0.07418  1.0000
  H   H666      1.0  0.43420  0.68934  0.40172  1.0000
  C   C574      1.0  0.40804  0.82126  0.48768  1.0000
  H   H667      1.0  0.41386  0.73495  0.45354  1.0000
  C   C575      1.0  0.31352  0.55308  0.03086  1.0000
  H   H668      1.0  0.35404  0.61775  0.05173  1.0000
  H   H669      1.0  0.47292  0.55039  0.07593  1.0000
  C   C576      1.0  0.26373  0.77197  0.34035  1.0000
  H   H670      1.0  0.48696  0.61847  0.08890  1.0000
  C   C577      1.0  0.42682  0.72864  0.44305  1.0000
  N   N38       1.0  0.42081  0.70995  0.42810  1.0000
  H   H671      1.0  0.49203  0.69658  0.10905  1.0000
  N   N39       1.0  0.36232  0.81379  0.44947  1.0000
  C   C578      1.0  0.37218  0.80785  0.42715  1.0000
  C   C579      1.0  0.34411  0.79993  0.45211  1.0000
  C   C580      1.0  0.35551  0.83763  0.44794  1.0000
  C   C581      1.0  0.37673  0.81065  0.46885  1.0000
  C   C582      1.0  0.26085  0.62467  0.26030  1.0000
  H   H672      1.0  0.26494  0.82795  0.37504  1.0000
  C   C583      1.0  0.32612  0.99060  0.36776  1.0000
  H   H673      1.0  0.35662  0.70316  0.39561  1.0000
  C   C584      1.0  0.26100  0.54697  0.04827  1.0000
  H   H674      1.0  0.41577  0.86950  0.06219  1.0000
  H   H675      1.0  0.37791  0.79016  0.42770  1.0000
  H   H676      1.0  0.36154  0.80968  0.41227  1.0000
  H   H677      1.0  0.34793  0.78166  0.45243  1.0000
  H   H678      1.0  0.33357  0.80279  0.43731  1.0000
  C   C585      1.0  0.27829  0.80873  0.34753  1.0000
  H   H679      1.0  0.34363  0.84035  0.43459  1.0000
  H   H680      1.0  0.34934  0.84325  0.46492  1.0000
  H   H681      1.0  0.36777  0.84923  0.44306  1.0000
  C   C586      1.0  0.36141  0.97423  0.34754  1.0000
  C   C587      1.0  0.40641  0.53183  0.49029  1.0000
  H   H682      1.0  0.40297  0.69479  0.45556  1.0000
  H   H683      1.0  0.29668  0.55229  0.07387  1.0000
  H   H684      1.0  0.38293  0.69042  0.42181  1.0000
  N   N40       1.0  0.41727  0.83404  0.05482  1.0000
  C   C588      1.0  0.41440  0.85281  0.07123  1.0000
  C   C589      1.0  0.43783  0.83544  0.04502  1.0000
  C   C590      1.0  0.40263  0.83774  0.03568  1.0000
  C   C591      1.0  0.41476  0.81153  0.06581  1.0000
  C   C592      1.0  0.41556  0.79204  0.05203  1.0000
  C   C593      1.0  0.41254  0.80810  0.09028  1.0000
  C   C594      1.0  0.41406  0.77054  0.06207  1.0000
  C   C595      1.0  0.41133  0.78646  0.10015  1.0000
  C   C596      1.0  0.41218  0.76773  0.08608  1.0000
  H   H685      1.0  0.42603  0.85234  0.08503  1.0000
  H   H686      1.0  0.48743  0.60830  0.05981  1.0000
  H   H687      1.0  0.39923  0.85257  0.07947  1.0000
  H   H688      1.0  0.44934  0.83170  0.05860  1.0000
  H   H689      1.0  0.44074  0.85249  0.03765  1.0000
  H   H690      1.0  0.44050  0.82341  0.03075  1.0000
  H   H691      1.0  0.38697  0.83545  0.04206  1.0000
  H   H692      1.0  0.40357  0.85501  0.02788  1.0000
  H   H693      1.0  0.40529  0.82619  0.02101  1.0000
  H   H694      1.0  0.41802  0.79319  0.03343  1.0000
  H   H695      1.0  0.41200  0.82179  0.10226  1.0000
  H   H696      1.0  0.41502  0.75590  0.05124  1.0000
  C   C597      1.0  0.38342  0.67944  0.03953  1.0000
  H   H697      1.0  0.41174  0.75097  0.09384  1.0000
  C   C598      1.0  0.40401  0.71728  0.41276  1.0000
  H   H698      1.0  0.29497  0.74817  0.31959  1.0000
  H   H699      1.0  0.35351  0.67857  0.05349  1.0000
  H   H700      1.0  0.41210  0.92720  0.05235  1.0000
  H   H701      1.0  0.41000  0.78412  0.11887  1.0000
  H   H702      1.0  0.45557  0.57240  0.06665  1.0000
  H   H703      1.0  0.39226  0.75790  0.37119  1.0000
  C   C599      1.0  0.36670  0.60990  0.01816  1.0000
  H   H704      1.0  0.41964  0.74577  0.39709  1.0000
  H   H705      1.0  0.31033  0.57744  0.06793  1.0000
  H   H706      1.0  0.33546  0.80424  0.46811  1.0000
  C   C600      1.0  0.26534  0.73146  0.34569  1.0000
  H   H707      1.0  0.45914  0.95877  0.02402  1.0000
  H   H708      1.0  0.29329  0.58535  0.00710  1.0000
  H   H709      1.0  0.33763  0.67317  0.01633  1.0000
  Fe  Fe80      1.0  0.44338  0.60994  0.49234  1.0000
  H   H710      1.0  0.36986  0.98684  0.39889  1.0000
  C   C601      1.0  0.40264  0.61650  0.01458  1.0000
  C   C602      1.0  0.27819  0.78868  0.33534  1.0000
  C   C603      1.0  0.39444  0.82348  0.46932  1.0000
  C   C604      1.0  0.27465  0.54357  0.00931  1.0000
  C   C605      1.0  0.45655  0.99396  0.01926  1.0000
  H   H711      1.0  0.46492  0.92687  0.00356  1.0000
  C   C606      1.0  0.46481  0.97287  0.01401  1.0000
  S   S162      1.0  0.34323  0.60081  0.00712  1.0000
  H   H712      1.0  0.40666  0.88788  0.50048  1.0000
  H   H713      1.0  0.42111  0.83178  0.48808  1.0000
  H   H714      1.0  0.36571  0.97408  0.00975  1.0000
  H   H715      1.0  0.31605  0.98452  0.01958  1.0000
  C   C607      1.0  0.48139  0.92932  0.00459  1.0000
  S   S163      1.0  0.44405  0.69571  0.49953  1.0000
  C   C608      1.0  0.35471  0.99621  0.34147  1.0000
  H   H716      1.0  0.25363  0.66726  0.22100  1.0000
  H   H717      1.0  0.34047  0.99199  0.02939  1.0000
  C   C609      1.0  0.38443  0.60947  0.00491  1.0000
  H   H718      1.0  0.41622  0.61592  0.00417  1.0000
  S   S164      1.0  0.47350  0.85699  0.00451  1.0000
  H   H719      1.0  0.44775  0.74382  0.00741  1.0000
  H   H720      1.0  0.48550  0.93184  0.02305  1.0000
  H   H721      1.0  0.44505  0.99544  0.03266  1.0000
  C   C610      1.0  0.25775  0.53173  0.00289  1.0000
  H   H722      1.0  0.44729  0.49878  0.47322  1.0000
  H   H723      1.0  0.47965  0.49828  0.48588  1.0000
  H   H724      1.0  0.38422  0.60333  0.98735  1.0000
  Fe  Fe81      1.0  0.44812  0.85485  0.94404  1.0000
  S   S165      1.0  0.43220  0.84454  0.97701  1.0000
  S   S166      1.0  0.43793  0.85082  0.90674  1.0000
  H   H725      1.0  0.48097  0.70883  0.57228  1.0000
  C   C611      1.0  0.46925  0.86634  0.67420  1.0000
  S   S167      1.0  0.45712  0.78958  0.99630  1.0000
  H   H726      1.0  0.32956  0.92892  0.52162  1.0000
  S   S168      1.0  0.47671  0.83579  0.95269  1.0000
  S   S169      1.0  0.45882  0.88724  0.95858  1.0000
  Fe  Fe82      1.0  0.31974  0.76342  0.82418  1.0000
  S   S170      1.0  0.30931  0.79488  0.84212  1.0000
  S   S171      1.0  0.30676  0.72886  0.83363  1.0000
  Fe  Fe83      1.0  0.34571  0.79039  0.78844  1.0000
  S   S172      1.0  0.33756  0.82330  0.80526  1.0000
  S   S173      1.0  0.36074  0.78474  0.75244  1.0000
  Fe  Fe84      1.0  0.34188  0.80450  0.83946  1.0000
  S   S174      1.0  0.35273  0.81742  0.87420  1.0000
  Fe  Fe85      1.0  0.30550  0.81139  0.80674  1.0000
  S   S175      1.0  0.28182  0.83657  0.79130  1.0000
  S   S176      1.0  0.35242  0.77223  0.82284  1.0000
  S   S177      1.0  0.31355  0.77918  0.78877  1.0000
  Fe  Fe86      1.0  0.32914  0.56759  0.92424  1.0000
  S   S178      1.0  0.30419  0.59014  0.91038  1.0000
  S   S179      1.0  0.34618  0.53902  0.90510  1.0000
  Fe  Fe87      1.0  0.33160  0.59467  0.97020  1.0000
  S   S180      1.0  0.30648  0.61833  0.95890  1.0000
  H   H727      1.0  0.34004  0.86032  0.60218  1.0000
  Fe  Fe88      1.0  0.29078  0.58754  0.94693  1.0000
  S   S181      1.0  0.25730  0.57917  0.95172  1.0000
  Fe  Fe89      1.0  0.32178  0.61916  0.92374  1.0000
  S   S182      1.0  0.33410  0.65148  0.90684  1.0000
  S   S183      1.0  0.31504  0.56362  0.96007  1.0000
  S   S184      1.0  0.34757  0.59675  0.93582  1.0000
  H   H728      1.0  0.39961  0.71451  0.58470  1.0000
  C   C612      1.0  0.35910  0.50347  0.87800  1.0000
  Fe  Fe90      1.0  0.43731  0.81357  0.64087  1.0000
  S   S185      1.0  0.44047  0.84562  0.61969  1.0000
  S   S186      1.0  0.42751  0.81961  0.67906  1.0000
  Fe  Fe91      1.0  0.45571  0.78618  0.60007  1.0000
  S   S187      1.0  0.46044  0.81700  0.57732  1.0000
  S   S188      1.0  0.46593  0.75063  0.59019  1.0000
  Fe  Fe92      1.0  0.47186  0.83315  0.61020  1.0000
  Fe  Fe93      1.0  0.42897  0.82684  0.58896  1.0000
  S   S189      1.0  0.40039  0.83444  0.56745  1.0000
  S   S190      1.0  0.46885  0.80161  0.63207  1.0000
  S   S191      1.0  0.42410  0.79535  0.61086  1.0000
  H   H729      1.0  0.36347  0.83354  0.54225  1.0000
  H   H730      1.0  0.37728  0.77462  0.88362  1.0000
  C   C613      1.0  0.37300  0.84528  0.53305  1.0000
  C   C614      1.0  0.39252  0.84879  0.54137  1.0000
  C   C615      1.0  0.40466  0.86403  0.52927  1.0000
  C   C616      1.0  0.35824  0.96712  0.99499  1.0000
  H   H731      1.0  0.46433  0.77404  0.94510  1.0000
  H   H732      1.0  0.41966  0.86698  0.53540  1.0000
  H   H733      1.0  0.44849  0.62562  0.58550  1.0000
  C   C617      1.0  0.45059  0.71074  0.52476  1.0000
  C   C618      1.0  0.46499  0.70260  0.54058  1.0000
  C   C619      1.0  0.46976  0.71524  0.56021  1.0000
  C   C620      1.0  0.46009  0.73603  0.56444  1.0000
  C   C621      1.0  0.44568  0.74415  0.54860  1.0000
  C   C622      1.0  0.44100  0.73158  0.52888  1.0000
  H   H734      1.0  0.43807  0.76005  0.55162  1.0000
  H   H735      1.0  0.28799  0.91776  0.53626  1.0000
  H   H736      1.0  0.39605  0.64024  0.56755  1.0000
  H   H737      1.0  0.42012  0.96852  0.97728  1.0000
  H   H738      1.0  0.46038  0.80055  0.91291  1.0000
  C   C623      1.0  0.34077  0.94772  0.95657  1.0000
  C   C624      1.0  0.37950  0.79475  0.73242  1.0000
  C   C625      1.0  0.38165  0.78455  0.71061  1.0000
  C   C626      1.0  0.39613  0.79184  0.69408  1.0000
  C   C627      1.0  0.40882  0.80950  0.69912  1.0000
  C   C628      1.0  0.40662  0.81977  0.72091  1.0000
  C   C629      1.0  0.39209  0.81254  0.73740  1.0000
  H   H739      1.0  0.37203  0.77083  0.70644  1.0000
  H   H740      1.0  0.39751  0.78370  0.67749  1.0000
  H   H741      1.0  0.41625  0.83345  0.72512  1.0000
  H   H742      1.0  0.39073  0.82060  0.75402  1.0000
  C   C630      1.0  0.31443  0.70787  0.85456  1.0000
  C   C631      1.0  0.30205  0.68930  0.85883  1.0000
  C   C632      1.0  0.30760  0.67204  0.87496  1.0000
  C   C633      1.0  0.32578  0.67301  0.88685  1.0000
  C   C634      1.0  0.33823  0.69150  0.88251  1.0000
  C   C635      1.0  0.33256  0.70887  0.86659  1.0000
  H   H743      1.0  0.28799  0.68837  0.84966  1.0000
  H   H744      1.0  0.29777  0.65808  0.87812  1.0000
  H   H745      1.0  0.35237  0.69243  0.89147  1.0000
  H   H746      1.0  0.34225  0.72297  0.86342  1.0000
  Fe  Fe94      1.0  0.48652  0.86745  0.96957  1.0000
  H   H747      1.0  0.35771  0.82109  0.64768  1.0000
  H   H748      1.0  0.39895  0.67877  0.56474  1.0000
  H   H749      1.0  0.47263  0.68672  0.53760  1.0000
  C   C636      1.0  0.41374  0.84319  0.89758  1.0000
  C   C637      1.0  0.41102  0.83716  0.87430  1.0000
  C   C638      1.0  0.39236  0.82952  0.86667  1.0000
  C   C639      1.0  0.37622  0.82803  0.88227  1.0000
  C   C640      1.0  0.37886  0.83445  0.90544  1.0000
  C   C641      1.0  0.39751  0.84201  0.91308  1.0000
  H   H750      1.0  0.42348  0.83811  0.86217  1.0000
  H   H751      1.0  0.39050  0.82464  0.84881  1.0000
  H   H752      1.0  0.36640  0.83339  0.91757  1.0000
  H   H753      1.0  0.39936  0.84676  0.93097  1.0000
  C   C642      1.0  0.32790  0.52103  0.86573  1.0000
  C   C643      1.0  0.34388  0.51992  0.88147  1.0000
  H   H754      1.0  0.31609  0.53355  0.86791  1.0000
  C   C644      1.0  0.41065  0.63166  0.57142  1.0000
  C   C645      1.0  0.41289  0.54731  0.53493  1.0000
  H   H755      1.0  0.37881  0.68809  0.95248  1.0000
  H   H756      1.0  0.29944  0.86819  0.54019  1.0000
  H   H757      1.0  0.35069  0.85396  0.50702  1.0000
  C   C646      1.0  0.38916  0.76528  0.89272  1.0000
  H   H758      1.0  0.32899  0.65458  0.98387  1.0000
  H   H759      1.0  0.25158  0.81962  0.82495  1.0000
  H   H760      1.0  0.42967  0.92802  0.98028  1.0000
  H   H761      1.0  0.25571  0.87123  0.77194  1.0000
  H   H762      1.0  0.36290  0.92115  0.96121  1.0000
  H   H763      1.0  0.37424  0.83516  0.68256  1.0000
  C   C647      1.0  0.35697  0.93696  0.96761  1.0000
  H   H764      1.0  0.24613  0.93224  0.52435  1.0000
  H   H765      1.0  0.46006  0.64011  0.56088  1.0000
  H   H766      1.0  0.43886  0.66105  0.53256  1.0000
  H   H767      1.0  0.41475  0.80504  0.52064  1.0000
  C   C648      1.0  0.36550  0.67315  0.99553  1.0000
  Fe  Fe95      1.0  0.46125  0.82684  0.98670  1.0000
  H   H768      1.0  0.44589  0.61552  0.55668  1.0000
  C   C649      1.0  0.42897  0.79440  0.94156  1.0000
  C   C650      1.0  0.36565  0.94662  0.98682  1.0000
  C   C651      1.0  0.42817  0.66642  0.57709  1.0000
  H   H769      1.0  0.45768  0.66181  0.59369  1.0000
  H   H770      1.0  0.32752  0.68477  0.97890  1.0000
  C   C652      1.0  0.40399  0.73004  0.90592  1.0000
  H   H771      1.0  0.43116  0.73119  0.92472  1.0000
  H   H772      1.0  0.40363  0.71186  0.90689  1.0000
  H   H773      1.0  0.37650  0.73318  0.88635  1.0000
  H   H774      1.0  0.44110  0.80382  0.94991  1.0000
  C   C653      1.0  0.36240  0.68793  0.95592  1.0000
  C   C654      1.0  0.33232  0.89235  0.55239  1.0000
  C   C655      1.0  0.32817  0.87853  0.57224  1.0000
  H   H775      1.0  0.44538  0.75450  0.95245  1.0000
  C   C656      1.0  0.34340  0.87135  0.58748  1.0000
  C   C657      1.0  0.36760  0.89190  0.56461  1.0000
  C   C658      1.0  0.36309  0.87792  0.58357  1.0000
  C   C659      1.0  0.38661  0.67486  0.99794  1.0000
  S   S192      1.0  0.42936  0.58720  0.52026  1.0000
  C   C660      1.0  0.34177  0.97859  0.98418  1.0000
  C   C661      1.0  0.30022  0.91208  0.54835  1.0000
  H   H776      1.0  0.37503  0.87173  0.59491  1.0000
  H   H777      1.0  0.30653  0.92728  0.55620  1.0000
  N   N41       1.0  0.34254  0.60408  0.85020  1.0000
  C   C662      1.0  0.35260  0.62486  0.84209  1.0000
  C   C663      1.0  0.32085  0.60925  0.85359  1.0000
  C   C664      1.0  0.35104  0.59763  0.87327  1.0000
  C   C665      1.0  0.34508  0.58630  0.83273  1.0000
  C   C666      1.0  0.33823  0.59006  0.80960  1.0000
  C   C667      1.0  0.35379  0.56479  0.83809  1.0000
  C   C668      1.0  0.34001  0.57337  0.79292  1.0000
  C   C669      1.0  0.35554  0.54827  0.82125  1.0000
  C   C670      1.0  0.34860  0.55249  0.79876  1.0000
  H   H778      1.0  0.34578  0.63229  0.82602  1.0000
  H   H779      1.0  0.35145  0.63827  0.85534  1.0000
  H   H780      1.0  0.36881  0.62154  0.83845  1.0000
  H   H781      1.0  0.31375  0.61661  0.83765  1.0000
  H   H782      1.0  0.31827  0.62170  0.86756  1.0000
  H   H783      1.0  0.31255  0.59380  0.85853  1.0000
  H   H784      1.0  0.34331  0.58288  0.88116  1.0000
  H   H785      1.0  0.36739  0.59358  0.87208  1.0000
  H   H786      1.0  0.34931  0.61145  0.88586  1.0000
  H   H787      1.0  0.33124  0.60588  0.80431  1.0000
  H   H788      1.0  0.35913  0.56004  0.85526  1.0000
  H   H789      1.0  0.33455  0.57656  0.77540  1.0000
  H   H790      1.0  0.36201  0.53188  0.82582  1.0000
  H   H791      1.0  0.39659  0.67332  0.98315  1.0000
  H   H792      1.0  0.25608  0.52662  0.98501  1.0000
  C   C671      1.0  0.35838  0.83135  0.68324  1.0000
  H   H793      1.0  0.42864  0.72408  0.60878  1.0000
  H   H794      1.0  0.29519  0.88295  0.51343  1.0000
  C   C672      1.0  0.30694  0.87859  0.52658  1.0000
  C   C673      1.0  0.40490  0.77675  0.90267  1.0000
  C   C674      1.0  0.38870  0.74196  0.89430  1.0000
  C   C675      1.0  0.47267  0.84875  0.71222  1.0000
  H   H795      1.0  0.46461  0.88250  0.68205  1.0000
  N   N42       1.0  0.42800  0.64531  0.56395  1.0000
  H   H796      1.0  0.31316  0.87287  0.57590  1.0000
  H   H797      1.0  0.45441  0.77878  0.89288  1.0000
  C   C676      1.0  0.32738  0.50619  0.84680  1.0000
  H   H798      1.0  0.32170  0.81156  0.64922  1.0000
  C   C677      1.0  0.42614  0.65066  0.53874  1.0000
  H   H799      1.0  0.33429  0.90374  0.50518  1.0000
  H   H800      1.0  0.40463  0.79479  0.90074  1.0000
  H   H801      1.0  0.48753  0.95597  0.95228  1.0000
  C   C678      1.0  0.44798  0.79042  0.90598  1.0000
  H   H802      1.0  0.42611  0.63516  0.52829  1.0000
  N   N43       1.0  0.35666  0.66955  0.97236  1.0000
  C   C679      1.0  0.41181  0.68205  0.57537  1.0000
  Fe  Fe96      1.0  0.44538  0.87534  0.99242  1.0000
  H   H803      1.0  0.45519  0.85731  0.67043  1.0000
  H   H804      1.0  0.35511  0.68625  0.93863  1.0000
  H   H805      1.0  0.25711  0.59712  0.99895  1.0000
  H   H806      1.0  0.42025  0.78590  0.95568  1.0000
  N   N44       1.0  0.31504  0.83046  0.72742  1.0000
  C   C680      1.0  0.32667  0.83925  0.74706  1.0000
  C   C681      1.0  0.29756  0.84593  0.72358  1.0000
  C   C682      1.0  0.30754  0.80814  0.73482  1.0000
  C   C683      1.0  0.32693  0.82838  0.70565  1.0000
  C   C684      1.0  0.34762  0.83372  0.70406  1.0000
  C   C685      1.0  0.31787  0.82051  0.68517  1.0000
  C   C686      1.0  0.44645  0.63112  0.56703  1.0000
  C   C687      1.0  0.42389  0.93658  0.99540  1.0000
  H   H807      1.0  0.38306  0.89649  0.56134  1.0000
  H   H808      1.0  0.33250  0.85624  0.74298  1.0000
  H   H809      1.0  0.31725  0.84086  0.76305  1.0000
  H   H810      1.0  0.33945  0.82774  0.75184  1.0000
  H   H811      1.0  0.30249  0.86272  0.71722  1.0000
  H   H812      1.0  0.28878  0.84840  0.74001  1.0000
  H   H813      1.0  0.28682  0.83944  0.71082  1.0000
  H   H814      1.0  0.29880  0.80907  0.75140  1.0000
  H   H815      1.0  0.29739  0.80091  0.72188  1.0000
  H   H816      1.0  0.32022  0.79588  0.73764  1.0000
  H   H817      1.0  0.35604  0.83922  0.71878  1.0000
  H   H818      1.0  0.30228  0.81587  0.68515  1.0000
  H   H819      1.0  0.32070  0.97570  0.95521  1.0000
  H   H820      1.0  0.46529  0.94309  0.96366  1.0000
  C   C688      1.0  0.36429  0.64792  0.96316  1.0000
  H   H821      1.0  0.43798  0.80259  0.89647  1.0000
  C   C689      1.0  0.42820  0.70789  0.60054  1.0000
  C   C690      1.0  0.39721  0.87590  0.50946  1.0000
  H   H822      1.0  0.35739  0.90902  0.53428  1.0000
  C   C691      1.0  0.32884  0.81801  0.66450  1.0000
  C   C692      1.0  0.41980  0.74141  0.91605  1.0000
  H   H823      1.0  0.39935  0.51639  0.54703  1.0000
  N   N45       1.0  0.43725  0.77800  0.92480  1.0000
  H   H824      1.0  0.31039  0.91784  0.50417  1.0000
  C   C693      1.0  0.35256  0.89898  0.54909  1.0000
  H   H825      1.0  0.46784  0.86459  0.72060  1.0000
  N   N46       1.0  0.31604  0.89897  0.53603  1.0000
  H   H826      1.0  0.41521  0.55333  0.55230  1.0000
  C   C694      1.0  0.34908  0.82339  0.66356  1.0000
  H   H827      1.0  0.34978  0.53944  0.78594  1.0000
  C   C695      1.0  0.42071  0.76525  0.91468  1.0000
  C   C696      1.0  0.45233  0.76374  0.93748  1.0000
  C   C697      1.0  0.36564  0.85695  0.51311  1.0000
  C   C698      1.0  0.40041  0.51863  0.50962  1.0000
  H   H828      1.0  0.35780  0.70462  0.96277  1.0000
  H   H829      1.0  0.35869  0.64508  0.94534  1.0000
  H   H830      1.0  0.41905  0.80730  0.93316  1.0000
  H   H831      1.0  0.41210  0.66010  0.53430  1.0000
  H   H832      1.0  0.48803  0.92678  0.95957  1.0000
  C   C699      1.0  0.40449  0.80621  0.50606  1.0000
  H   H833      1.0  0.31847  0.86785  0.51792  1.0000
  H   H834      1.0  0.29287  0.90213  0.56246  1.0000
  H   H835      1.0  0.32824  0.66612  0.95499  1.0000
  H   H836      1.0  0.41111  0.62786  0.59046  1.0000
  C   C700      1.0  0.44430  0.69278  0.60302  1.0000
  C   C701      1.0  0.44443  0.67234  0.59148  1.0000
  H   H837      1.0  0.45428  0.50138  0.51402  1.0000
  C   C702      1.0  0.41839  0.95952  0.99372  1.0000
  H   H838      1.0  0.45875  0.83886  0.71027  1.0000
  C   C703      1.0  0.33438  0.66878  0.97269  1.0000
  H   H839      1.0  0.45715  0.69748  0.61319  1.0000
  C   C704      1.0  0.33318  0.96824  0.96464  1.0000
  C   C705      1.0  0.25630  0.84452  0.79790  1.0000
  H   H840      1.0  0.42985  0.73808  0.51678  1.0000
  C   C706      1.0  0.48195  0.94338  0.96518  1.0000
  C   C707      1.0  0.40388  0.52636  0.53200  1.0000
  H   H841      1.0  0.37158  0.50234  0.88993  1.0000
  H   H842      1.0  0.46001  0.75162  0.92578  1.0000
  H   H843      1.0  0.33413  0.94014  0.94155  1.0000
  H   H844      1.0  0.41049  0.61533  0.56224  1.0000
  S   S193      1.0  0.46822  0.63066  0.50641  1.0000
  H   H845      1.0  0.35928  0.63361  0.97433  1.0000
  C   C708      1.0  0.41195  0.70251  0.58682  1.0000
  C   C709      1.0  0.41872  0.56061  0.51559  1.0000
  C   C710      1.0  0.32300  0.91295  0.51595  1.0000
  H   H846      1.0  0.38091  0.64688  0.96213  1.0000
  H   H847      1.0  0.37835  0.93832  0.99533  1.0000
  N   N47       1.0  0.48798  0.94828  0.98930  1.0000
  H   H848      1.0  0.31511  0.50762  0.83461  1.0000
  C   C711      1.0  0.47931  0.97036  0.99591  1.0000
  N   N48       1.0  0.48285  0.85269  0.68946  1.0000
  H   H849      1.0  0.48763  0.89352  0.70969  1.0000
  H   H850      1.0  0.38457  0.78185  0.52072  1.0000
  H   H851      1.0  0.49220  0.83226  0.66069  1.0000
  H   H852      1.0  0.25272  0.95633  0.90529  1.0000
  H   H853      1.0  0.47660  0.87031  0.65718  1.0000
  H   H854      1.0  0.47143  0.82157  0.67703  1.0000
  H   H855      1.0  0.24646  0.92509  0.88021  1.0000
  C   C712      1.0  0.24713  0.86249  0.78523  1.0000
  C   C713      1.0  0.48587  0.83048  0.67863  1.0000
  H   H856      1.0  0.48268  0.83923  0.72452  1.0000
  H   H857      1.0  0.28547  0.54731  0.99578  1.0000
  C   C714      1.0  0.38736  0.79322  0.50610  1.0000
  C   C715      1.0  0.48501  0.99023  0.98364  1.0000
  H   H858      1.0  0.48849  0.91306  0.99939  1.0000
  H   H859      1.0  0.58258  0.06351  0.40176  1.0000
  S   S194      1.0  0.57337  0.13601  0.05248  1.0000
  C   C716      1.0  0.50383  0.07819  0.06072  1.0000
  C   C717      1.0  0.55517  0.07609  0.43434  1.0000
  Fe  Fe97      1.0  0.66714  0.18552  0.16989  1.0000
  S   S195      1.0  0.68234  0.15726  0.15051  1.0000
  S   S196      1.0  0.65094  0.17213  0.20308  1.0000
  Fe  Fe98      1.0  0.68354  0.22037  0.13379  1.0000
  S   S197      1.0  0.70032  0.19396  0.11334  1.0000
  S   S198      1.0  0.67635  0.25681  0.12128  1.0000
  Fe  Fe99      1.0  0.67193  0.17437  0.11756  1.0000
  S   S199      1.0  0.66215  0.15677  0.08496  1.0000
  Fe  Fe100     1.0  0.70988  0.17847  0.14801  1.0000
  S   S200      1.0  0.73820  0.08381  0.47082  1.0000
  S   S201      1.0  0.65469  0.20097  0.13663  1.0000
  S   S202      1.0  0.69501  0.20647  0.16868  1.0000
  Fe  Fe101     1.0  0.67669  0.40974  0.02663  1.0000
  S   S203      1.0  0.70907  0.39924  0.03213  1.0000
  S   S204      1.0  0.65865  0.43600  0.04821  1.0000
  H   H860      1.0  0.60717  0.23620  0.38596  1.0000
  H   H861      1.0  0.51172  0.11282  0.09016  1.0000
  Fe  Fe102     1.0  0.69804  0.36350  0.02990  1.0000
  S   S205      1.0  0.71066  0.33507  0.05403  1.0000
  H   H862      1.0  0.51478  0.48850  0.47755  1.0000
  S   S206      1.0  0.66558  0.37389  0.02622  1.0000
  C   C718      1.0  0.61922  0.22675  0.39565  1.0000
  H   H863      1.0  0.50312  0.41874  0.48979  1.0000
  Fe  Fe103     1.0  0.56134  0.34328  0.44935  1.0000
  S   S207      1.0  0.57077  0.32135  0.41866  1.0000
  Fe  Fe104     1.0  0.56549  0.39106  0.46872  1.0000
  S   S208      1.0  0.57693  0.42693  0.47087  1.0000
  S   S209      1.0  0.58423  0.35917  0.47246  1.0000
  S   S210      1.0  0.54448  0.37621  0.44316  1.0000
  S   S211      1.0  0.64035  0.12351  0.48521  1.0000
  H   H864      1.0  0.52493  0.08734  0.09861  1.0000
  Fe  Fe105     1.0  0.57760  0.18569  0.31919  1.0000
  S   S212      1.0  0.57331  0.14888  0.32625  1.0000
  S   S213      1.0  0.59182  0.20217  0.28650  1.0000
  Fe  Fe106     1.0  0.55537  0.19801  0.36473  1.0000
  S   S214      1.0  0.54941  0.16154  0.37402  1.0000
  S   S215      1.0  0.54381  0.22278  0.39194  1.0000
  Fe  Fe107     1.0  0.58174  0.15595  0.36343  1.0000
  S   S216      1.0  0.60572  0.13365  0.38156  1.0000
  Fe  Fe108     1.0  0.54106  0.15778  0.33617  1.0000
  S   S217      1.0  0.51582  0.13883  0.31724  1.0000
  S   S218      1.0  0.58795  0.19231  0.35574  1.0000
  S   S219      1.0  0.54517  0.19460  0.32764  1.0000
  C   C719      1.0  0.63142  0.12653  0.45610  1.0000
  C   C720      1.0  0.61432  0.14026  0.45172  1.0000
  C   C721      1.0  0.60650  0.14306  0.42903  1.0000
  C   C722      1.0  0.61553  0.13188  0.41039  1.0000
  C   C723      1.0  0.63255  0.11807  0.41479  1.0000
  C   C724      1.0  0.64054  0.11550  0.43743  1.0000
  H   H865      1.0  0.60711  0.14885  0.46602  1.0000
  H   H866      1.0  0.59329  0.15354  0.42610  1.0000
  H   H867      1.0  0.63966  0.10925  0.40057  1.0000
  H   H868      1.0  0.65363  0.10481  0.44046  1.0000
  C   C725      1.0  0.56392  0.29345  0.41218  1.0000
  C   C726      1.0  0.55139  0.28085  0.42682  1.0000
  C   C727      1.0  0.54560  0.25919  0.42045  1.0000
  C   C728      1.0  0.55249  0.24968  0.39957  1.0000
  C   C729      1.0  0.56548  0.26201  0.38523  1.0000
  C   C730      1.0  0.57106  0.28380  0.39147  1.0000
  H   H869      1.0  0.54604  0.28787  0.44294  1.0000
  H   H870      1.0  0.53551  0.24983  0.43166  1.0000
  H   H871      1.0  0.57079  0.25504  0.36903  1.0000
  H   H872      1.0  0.58077  0.29339  0.38000  1.0000
  C   C731      1.0  0.60820  0.47132  0.41539  1.0000
  C   C732      1.0  0.60580  0.47847  0.43827  1.0000
  C   C733      1.0  0.59614  0.46468  0.45497  1.0000
  C   C734      1.0  0.58894  0.44352  0.44906  1.0000
  C   C735      1.0  0.59139  0.43635  0.42621  1.0000
  C   C736      1.0  0.60094  0.45021  0.40947  1.0000
  H   H873      1.0  0.55350  0.05814  0.42986  1.0000
  H   H874      1.0  0.59442  0.47035  0.47264  1.0000
  H   H875      1.0  0.58593  0.42013  0.42141  1.0000
  H   H876      1.0  0.60275  0.44450  0.39183  1.0000
  C   C737      1.0  0.66185  0.45927  0.06721  1.0000
  C   C738      1.0  0.64479  0.47189  0.07429  1.0000
  H   H877      1.0  0.63023  0.46771  0.06762  1.0000
  H   H878      1.0  0.52437  0.30983  0.38703  1.0000
  C   C739      1.0  0.63489  0.18117  0.22640  1.0000
  C   C740      1.0  0.62907  0.16533  0.24366  1.0000
  C   C741      1.0  0.61635  0.17146  0.26241  1.0000
  C   C742      1.0  0.60914  0.19362  0.26420  1.0000
  C   C743      1.0  0.61492  0.20943  0.24691  1.0000
  C   C744      1.0  0.62771  0.20331  0.22822  1.0000
  H   H879      1.0  0.63435  0.14810  0.24243  1.0000
  H   H880      1.0  0.61197  0.15899  0.27533  1.0000
  H   H881      1.0  0.60937  0.22658  0.24791  1.0000
  H   H882      1.0  0.63193  0.21574  0.21516  1.0000
  C   C745      1.0  0.68592  0.27736  0.10106  1.0000
  C   C746      1.0  0.70584  0.27701  0.09318  1.0000
  C   C747      1.0  0.71297  0.29456  0.07850  1.0000
  C   C748      1.0  0.70023  0.31240  0.07088  1.0000
  C   C749      1.0  0.68010  0.31234  0.07813  1.0000
  C   C750      1.0  0.67312  0.29513  0.09334  1.0000
  H   H883      1.0  0.71596  0.26362  0.09896  1.0000
  H   H884      1.0  0.72857  0.29438  0.07314  1.0000
  H   H885      1.0  0.67003  0.32582  0.07251  1.0000
  H   H886      1.0  0.65770  0.29571  0.09933  1.0000
  C   C751      1.0  0.59804  0.14215  0.06132  1.0000
  C   C752      1.0  0.61460  0.13770  0.04695  1.0000
  C   C753      1.0  0.63410  0.14204  0.05463  1.0000
  C   C754      1.0  0.63727  0.15115  0.07662  1.0000
  C   C755      1.0  0.62071  0.15588  0.09093  1.0000
  C   C756      1.0  0.60117  0.15119  0.08337  1.0000
  H   H887      1.0  0.61243  0.13061  0.03001  1.0000
  H   H888      1.0  0.64683  0.13840  0.04343  1.0000
  H   H889      1.0  0.62296  0.16292  0.10787  1.0000
  H   H890      1.0  0.58844  0.15467  0.09460  1.0000
  N   N49       1.0  0.64653  0.23358  0.05847  1.0000
  C   C757      1.0  0.63518  0.24847  0.07444  1.0000
  C   C758      1.0  0.65550  0.21489  0.07276  1.0000
  C   C759      1.0  0.66338  0.24628  0.04790  1.0000
  C   C760      1.0  0.63290  0.22600  0.04010  1.0000
  H   H891      1.0  0.55492  0.20067  0.25857  1.0000
  C   C761      1.0  0.49784  0.43612  0.48905  1.0000
  H   H892      1.0  0.71819  0.17447  0.20527  1.0000
  H   H893      1.0  0.51129  0.34247  0.40133  1.0000
  H   H894      1.0  0.69964  0.11722  0.21444  1.0000
  H   H895      1.0  0.62948  0.26404  0.06550  1.0000
  H   H896      1.0  0.62211  0.23968  0.08230  1.0000
  H   H897      1.0  0.64471  0.25395  0.08901  1.0000
  H   H898      1.0  0.66441  0.20298  0.06191  1.0000
  H   H899      1.0  0.64385  0.20526  0.08248  1.0000
  H   H900      1.0  0.66590  0.22113  0.08615  1.0000
  C   C762      1.0  0.51116  0.45306  0.48314  1.0000
  H   H901      1.0  0.67444  0.25115  0.06125  1.0000
  H   H902      1.0  0.67159  0.23605  0.03479  1.0000
  H   H903      1.0  0.52677  0.44883  0.47938  1.0000
  N   N50       1.0  0.56244  0.08953  0.41399  1.0000
  C   C763      1.0  0.64628  0.48985  0.08993  1.0000
  N   N51       1.0  0.61256  0.22023  0.41951  1.0000
  H   H904      1.0  0.68650  0.13082  0.25208  1.0000
  H   H905      1.0  0.69349  0.15830  0.26210  1.0000
  H   H906      1.0  0.61482  0.41152  0.49074  1.0000
  C   C764      1.0  0.51191  0.33505  0.41925  1.0000
  H   H907      1.0  0.72317  0.04336  0.49377  1.0000
  C   C765      1.0  0.65245  0.20371  0.46479  1.0000
  H   H908      1.0  0.63365  0.18991  0.04889  1.0000
  C   C766      1.0  0.65082  0.47150  0.34099  1.0000
  C   C767      1.0  0.66492  0.49544  0.09905  1.0000
  C   C768      1.0  0.58035  0.16959  0.20332  1.0000
  N   N52       1.0  0.64978  0.49111  0.32454  1.0000
  H   H909      1.0  0.63196  0.18094  0.40726  1.0000
  C   C769      1.0  0.72803  0.12990  0.26073  1.0000
  C   C770      1.0  0.55315  0.15742  0.27027  1.0000
  H   H910      1.0  0.53825  0.11104  0.08665  1.0000
  H   H911      1.0  0.67113  0.45846  0.15363  1.0000
  H   H912      1.0  0.54603  0.15950  0.28767  1.0000
  H   H913      1.0  0.61737  0.25358  0.43217  1.0000
  H   H914      1.0  0.50278  0.07195  0.37562  1.0000
  C   C771      1.0  0.58296  0.08096  0.40824  1.0000
  H   H915      1.0  0.65834  0.26224  0.03920  1.0000
  C   C772      1.0  0.54927  0.08863  0.39338  1.0000
  C   C773      1.0  0.55513  0.09896  0.37193  1.0000
  H   H916      1.0  0.59310  0.08106  0.42357  1.0000
  C   C774      1.0  0.59524  0.20514  0.41782  1.0000
  N   N53       1.0  0.70657  0.14904  0.22914  1.0000
  C   C775      1.0  0.52384  0.08942  0.35390  1.0000
  H   H917      1.0  0.56128  0.49108  0.43125  1.0000
  C   C776      1.0  0.68998  0.14833  0.24657  1.0000
  C   C777      1.0  0.70830  0.17273  0.22087  1.0000
  H   H918      1.0  0.61164  0.49448  0.44318  1.0000
  Fe  Fe109     1.0  0.56308  0.34994  0.50154  1.0000
  C   C778      1.0  0.57037  0.17343  0.22437  1.0000
  C   C779      1.0  0.56368  0.11316  0.42123  1.0000
  C   C780      1.0  0.57117  0.15749  0.18607  1.0000
  S   S220      1.0  0.54126  0.33211  0.47878  1.0000
  H   H919      1.0  0.59056  0.09136  0.39470  1.0000
  H   H920      1.0  0.67103  0.17365  0.46549  1.0000
  C   C781      1.0  0.53000  0.07876  0.39419  1.0000
  H   H921      1.0  0.59934  0.23725  0.44888  1.0000
  H   H922      1.0  0.51404  0.09013  0.33888  1.0000
  H   H923      1.0  0.59029  0.19899  0.43533  1.0000
  N   N54       1.0  0.69042  0.38528  0.10354  1.0000
  C   C782      1.0  0.71075  0.38892  0.09362  1.0000
  C   C783      1.0  0.69094  0.36445  0.11821  1.0000
  C   C784      1.0  0.67673  0.38144  0.08385  1.0000
  C   C785      1.0  0.68432  0.40480  0.11769  1.0000
  C   C786      1.0  0.69595  0.41076  0.13713  1.0000
  C   C787      1.0  0.66736  0.41883  0.11231  1.0000
  H   H924      1.0  0.69511  0.34945  0.10775  1.0000
  H   H925      1.0  0.72248  0.38939  0.10719  1.0000
  C   C788      1.0  0.55089  0.16512  0.22894  1.0000
  H   H926      1.0  0.71119  0.40506  0.08347  1.0000
  H   H927      1.0  0.70910  0.40095  0.14218  1.0000
  H   H928      1.0  0.67600  0.36133  0.12632  1.0000
  H   H929      1.0  0.70215  0.36501  0.13235  1.0000
  H   H930      1.0  0.66116  0.37813  0.08993  1.0000
  H   H931      1.0  0.67632  0.39607  0.07144  1.0000
  H   H932      1.0  0.68166  0.36663  0.07365  1.0000
  H   H933      1.0  0.71543  0.37523  0.08167  1.0000
  H   H934      1.0  0.65773  0.41602  0.09765  1.0000
  H   H935      1.0  0.72018  0.01323  0.49369  1.0000
  N   N55       1.0  0.52189  0.09223  0.06161  1.0000
  C   C789      1.0  0.51967  0.11137  0.04487  1.0000
  C   C790      1.0  0.52424  0.10120  0.08530  1.0000
  C   C791      1.0  0.54084  0.07996  0.05569  1.0000
  H   H936      1.0  0.52721  0.14572  0.21281  1.0000
  C   C792      1.0  0.70074  0.13524  0.20923  1.0000
  H   H937      1.0  0.56584  0.07647  0.44918  1.0000
  H   H938      1.0  0.57814  0.18282  0.23720  1.0000
  H   H939      1.0  0.50638  0.12224  0.04874  1.0000
  C   C793      1.0  0.62387  0.24182  0.02431  1.0000
  C   C794      1.0  0.72606  0.14052  0.23839  1.0000
  H   H940      1.0  0.53296  0.12238  0.04504  1.0000
  H   H941      1.0  0.57900  0.15452  0.16977  1.0000
  C   C795      1.0  0.60533  0.24097  0.43112  1.0000
  H   H942      1.0  0.54213  0.49479  0.40957  1.0000
  C   C796      1.0  0.50438  0.47536  0.48212  1.0000
  H   H943      1.0  0.65803  0.15996  0.42840  1.0000
  Fe  Fe110     1.0  0.71410  0.09355  0.49808  1.0000
  H   H944      1.0  0.64996  0.44853  0.12056  1.0000
  H   H945      1.0  0.54494  0.13971  0.17636  1.0000
  S   S221      1.0  0.69781  0.12707  0.49661  1.0000
  C   C797      1.0  0.74403  0.16550  0.49188  1.0000
  H   H946      1.0  0.54854  0.12036  0.42537  1.0000
  H   H947      1.0  0.69382  0.45554  0.07111  1.0000
  H   H948      1.0  0.54374  0.06557  0.06796  1.0000
  H   H949      1.0  0.57332  0.11475  0.43683  1.0000
  H   H950      1.0  0.69348  0.18008  0.21545  1.0000
  H   H951      1.0  0.59281  0.24944  0.42137  1.0000
  H   H952      1.0  0.63589  0.46364  0.34330  1.0000
  C   C798      1.0  0.68053  0.46502  0.07615  1.0000
  H   H953      1.0  0.62325  0.21197  0.38497  1.0000
  H   H954      1.0  0.56926  0.10743  0.37007  1.0000
  C   C799      1.0  0.61416  0.19671  0.02069  1.0000
  H   H955      1.0  0.58216  0.21379  0.40943  1.0000
  C   C800      1.0  0.53988  0.19323  0.25655  1.0000
  H   H956      1.0  0.55473  0.13908  0.26724  1.0000
  C   C801      1.0  0.62915  0.20828  0.43196  1.0000
  S   S222      1.0  0.61990  0.48817  0.39356  1.0000
  H   H957      1.0  0.63230  0.23141  0.46096  1.0000
  C   C802      1.0  0.55199  0.14916  0.18986  1.0000
  H   H958      1.0  0.51033  0.16811  0.24025  1.0000
  H   H959      1.0  0.52405  0.07080  0.40973  1.0000
  H   H960      1.0  0.63972  0.44918  0.30631  1.0000
  H   H961      1.0  0.67573  0.15558  0.23934  1.0000
  C   C803      1.0  0.61049  0.23517  0.00724  1.0000
  H   H962      1.0  0.59536  0.17593  0.20046  1.0000
  C   C804      1.0  0.67460  0.44337  0.14405  1.0000
  H   H963      1.0  0.54059  0.08279  0.44110  1.0000
  H   H964      1.0  0.54057  0.07370  0.03760  1.0000
  H   H965      1.0  0.61024  0.17919  0.01935  1.0000
  H   H966      1.0  0.57017  0.12406  0.40729  1.0000
  H   H967      1.0  0.71174  0.13632  0.19460  1.0000
  H   H968      1.0  0.51801  0.10532  0.02683  1.0000
  H   H969      1.0  0.53203  0.20269  0.24227  1.0000
  H   H970      1.0  0.51201  0.30041  0.45086  1.0000
  C   C805      1.0  0.63735  0.21600  0.45306  1.0000
  H   H971      1.0  0.63260  0.23761  0.39611  1.0000
  C   C806      1.0  0.62764  0.20316  0.03773  1.0000
  C   C807      1.0  0.63905  0.46325  0.29417  1.0000
  H   H972      1.0  0.50354  0.24582  0.36826  1.0000
  H   H973      1.0  0.68595  0.14086  0.20197  1.0000
  C   C808      1.0  0.66265  0.43774  0.12541  1.0000
  H   H974      1.0  0.59870  0.19022  0.40713  1.0000
  C   C809      1.0  0.69115  0.42981  0.15002  1.0000
  H   H975      1.0  0.71544  0.12767  0.27240  1.0000
  H   H976      1.0  0.70046  0.43430  0.16451  1.0000
  H   H977      1.0  0.55411  0.09104  0.05650  1.0000
  H   H978      1.0  0.62944  0.44172  0.26687  1.0000
  C   C810      1.0  0.63737  0.18793  0.42320  1.0000
  C   C811      1.0  0.50172  0.26064  0.37875  1.0000
  N   N56       1.0  0.49625  0.31799  0.42323  1.0000
  H   H979      1.0  0.66204  0.45866  0.33523  1.0000
  H   H980      1.0  0.51340  0.16343  0.27089  1.0000
  N   N57       1.0  0.54108  0.16884  0.25179  1.0000
  C   C812      1.0  0.49775  0.31005  0.44784  1.0000
  C   C813      1.0  0.52037  0.16009  0.25355  1.0000
  H   H981      1.0  0.52023  0.14152  0.25182  1.0000
  H   H982      1.0  0.50997  0.34934  0.43124  1.0000
  C   C814      1.0  0.49820  0.29866  0.40755  1.0000
  H   H983      1.0  0.65533  0.47653  0.35877  1.0000
  H   H984      1.0  0.56852  0.16421  0.27141  1.0000
  H   H985      1.0  0.71431  0.18342  0.23470  1.0000
  H   H986      1.0  0.53171  0.19663  0.27314  1.0000
  C   C815      1.0  0.68200  0.48283  0.09198  1.0000
  Fe  Fe111     1.0  0.52563  0.36591  0.47424  1.0000
  C   C816      1.0  0.51323  0.29713  0.38989  1.0000
  S   S223      1.0  0.54553  0.38266  0.49942  1.0000
  C   C817      1.0  0.54193  0.15280  0.21097  1.0000
  C   C818      1.0  0.65238  0.17577  0.43514  1.0000
  Fe  Fe112     1.0  0.56736  0.13104  0.01408  1.0000
  C   C819      1.0  0.54263  0.09914  0.35252  1.0000
  C   C820      1.0  0.51754  0.07925  0.37466  1.0000
  S   S224      1.0  0.73742  0.15666  0.16002  1.0000
  H   H987      1.0  0.52670  0.27727  0.36278  1.0000
  H   H988      1.0  0.62698  0.25952  0.02516  1.0000
  C   C821      1.0  0.65974  0.18348  0.45603  1.0000
  H   H989      1.0  0.52724  0.32782  0.42235  1.0000
  H   H990      1.0  0.62678  0.47243  0.23721  1.0000
  C   C822      1.0  0.63307  0.45871  0.27147  1.0000
  H   H991      1.0  0.54730  0.10728  0.33636  1.0000
  H   H992      1.0  0.56827  0.49273  0.40141  1.0000
  H   H993      1.0  0.51820  0.04724  0.04785  1.0000
  H   H994      1.0  0.68138  0.49002  0.31637  1.0000
  C   C823      1.0  0.50448  0.05554  0.05332  1.0000
  H   H995      1.0  0.73673  0.15464  0.47912  1.0000
  C   C824      1.0  0.64380  0.48541  0.30065  1.0000
  H   H996      1.0  0.65844  0.20978  0.48093  1.0000
  C   C825      1.0  0.60560  0.21265  0.00547  1.0000
  H   H997      1.0  0.69651  0.48678  0.09888  1.0000
  C   C826      1.0  0.63156  0.47595  0.25472  1.0000
  H   H998      1.0  0.62817  0.38668  0.50000  1.0000
  S   S225      1.0  0.68514  0.07437  0.50010  1.0000
  H   H999      1.0  0.74342  0.14959  0.20739  1.0000
  H   H1000     1.0  0.74360  0.04374  0.07560  1.0000
  C   C827      1.0  0.74377  0.14209  0.22464  1.0000
  C   C828      1.0  0.51479  0.27841  0.37570  1.0000
  H   H1001     1.0  0.74467  0.02663  0.46797  1.0000
  H   H1002     1.0  0.49736  0.32431  0.46008  1.0000
  Fe  Fe113     1.0  0.66921  0.10831  0.50160  1.0000
  C   C829      1.0  0.62436  0.22400  0.53437  1.0000
  S   S226      1.0  0.55143  0.12484  0.94950  1.0000
  S   S227      1.0  0.58669  0.14232  0.98423  1.0000
  Fe  Fe114     1.0  0.55833  0.15668  0.96826  1.0000
  S   S228      1.0  0.55645  0.19418  0.95861  1.0000
  Fe  Fe115     1.0  0.57848  0.10964  0.96779  1.0000
  S   S229      1.0  0.60401  0.08962  0.95078  1.0000
  S   S230      1.0  0.65392  0.35368  0.96130  1.0000
  H   H1003     1.0  0.58411  0.39184  0.53984  1.0000
  Fe  Fe116     1.0  0.55443  0.28739  0.85368  1.0000
  S   S231      1.0  0.53859  0.31868  0.86645  1.0000
  S   S232      1.0  0.54838  0.25049  0.86303  1.0000
  Fe  Fe117     1.0  0.57940  0.31325  0.81653  1.0000
  S   S233      1.0  0.56543  0.34647  0.82693  1.0000
  S   S234      1.0  0.60662  0.30480  0.79270  1.0000
  Fe  Fe118     1.0  0.56935  0.33432  0.86419  1.0000
  S   S235      1.0  0.57951  0.36001  0.89064  1.0000
  Fe  Fe119     1.0  0.53542  0.32918  0.82864  1.0000
  S   S236      1.0  0.50751  0.34552  0.81031  1.0000
  S   S237      1.0  0.58512  0.30238  0.85395  1.0000
  S   S238      1.0  0.54936  0.29663  0.81581  1.0000
  H   H1004     1.0  0.51161  0.24838  0.92345  1.0000
  H   H1005     1.0  0.66085  0.26907  0.57931  1.0000
  H   H1006     1.0  0.68609  0.00935  0.74167  1.0000
  S   S239      1.0  0.57253  0.33679  0.53743  1.0000
  H   H1007     1.0  0.60317  0.21100  0.84664  1.0000
  Fe  Fe120     1.0  0.68438  0.26574  0.63361  1.0000
  S   S240      1.0  0.70177  0.29057  0.61181  1.0000
  S   S241      1.0  0.68295  0.22751  0.62932  1.0000
  Fe  Fe121     1.0  0.66167  0.30326  0.66081  1.0000
  S   S242      1.0  0.67682  0.33031  0.63923  1.0000
  S   S243      1.0  0.63685  0.31520  0.68631  1.0000
  Fe  Fe122     1.0  0.67177  0.30867  0.60833  1.0000
  S   S244      1.0  0.66245  0.31880  0.57147  1.0000
  Fe  Fe123     1.0  0.70566  0.31034  0.64471  1.0000
  H   H1008     1.0  0.70115  0.00677  0.59385  1.0000
  S   S245      1.0  0.65441  0.28345  0.62908  1.0000
  S   S246      1.0  0.69044  0.28366  0.66718  1.0000
  H   H1009     1.0  0.68037  0.31075  0.70930  1.0000
  H   H1010     1.0  0.64963  0.22129  0.59682  1.0000
  Fe  Fe124     1.0  0.68822  0.07615  0.53920  1.0000
  S   S247      1.0  0.71778  0.09443  0.53680  1.0000
  S   S248      1.0  0.69049  0.04405  0.56302  1.0000
  Fe  Fe125     1.0  0.69953  0.12685  0.53575  1.0000
  S   S249      1.0  0.71040  0.16095  0.54817  1.0000
  S   S250      1.0  0.50457  0.09629  0.98052  1.0000
  S   S251      1.0  0.67032  0.10903  0.54107  1.0000
  H   H1011     1.0  0.68046  0.37199  0.69754  1.0000
  C   C830      1.0  0.67563  0.02238  0.57664  1.0000
  H   H1012     1.0  0.58540  0.39866  0.50965  1.0000
  H   H1013     1.0  0.71765  0.34511  0.73891  1.0000
  H   H1014     1.0  0.60032  0.39747  0.57301  1.0000
  C   C831      1.0  0.69103  0.20927  0.60670  1.0000
  C   C832      1.0  0.68353  0.18733  0.60632  1.0000
  C   C833      1.0  0.68908  0.17238  0.58851  1.0000
  C   C834      1.0  0.70251  0.17907  0.57098  1.0000
  C   C835      1.0  0.71012  0.20095  0.57143  1.0000
  C   C836      1.0  0.70436  0.21599  0.58906  1.0000
  H   H1015     1.0  0.67328  0.18187  0.61990  1.0000
  H   H1016     1.0  0.68314  0.15563  0.58854  1.0000
  H   H1017     1.0  0.72056  0.20634  0.55804  1.0000
  H   H1018     1.0  0.71040  0.23270  0.58916  1.0000
  C   C837      1.0  0.59761  0.33130  0.54646  1.0000
  C   C838      1.0  0.60145  0.32677  0.57015  1.0000
  C   C839      1.0  0.62119  0.32275  0.57809  1.0000
  C   C840      1.0  0.63729  0.32317  0.56235  1.0000
  C   C841      1.0  0.63344  0.32745  0.53863  1.0000
  C   C842      1.0  0.61371  0.33144  0.53069  1.0000
  H   H1019     1.0  0.58910  0.32661  0.58248  1.0000
  H   H1020     1.0  0.62395  0.31960  0.59642  1.0000
  H   H1021     1.0  0.64582  0.32781  0.52635  1.0000
  H   H1022     1.0  0.50522  0.14952  0.92717  1.0000
  C   C843      1.0  0.61400  0.30686  0.76266  1.0000
  C   C844      1.0  0.63207  0.29622  0.75553  1.0000
  C   C845      1.0  0.63906  0.29801  0.73224  1.0000
  C   C846      1.0  0.62821  0.31081  0.71569  1.0000
  C   C847      1.0  0.61008  0.32133  0.72280  1.0000
  C   C848      1.0  0.60295  0.31928  0.74602  1.0000
  H   H1023     1.0  0.64084  0.28662  0.76815  1.0000
  H   H1024     1.0  0.65291  0.28965  0.72721  1.0000
  H   H1025     1.0  0.60149  0.33126  0.71026  1.0000
  H   H1026     1.0  0.58907  0.32761  0.75108  1.0000
  C   C849      1.0  0.63333  0.35624  0.94153  1.0000
  C   C850      1.0  0.62913  0.33797  0.92728  1.0000
  C   C851      1.0  0.61291  0.33890  0.91154  1.0000
  C   C852      1.0  0.60049  0.35810  0.90990  1.0000
  C   C853      1.0  0.60468  0.37639  0.92410  1.0000
  C   C854      1.0  0.62099  0.37552  0.93975  1.0000
  H   H1027     1.0  0.63855  0.32299  0.92846  1.0000
  H   H1028     1.0  0.60994  0.32474  0.90076  1.0000
  H   H1029     1.0  0.59525  0.39136  0.92304  1.0000
  H   H1030     1.0  0.62395  0.38969  0.95055  1.0000
  C   C855      1.0  0.55548  0.20921  0.93153  1.0000
  C   C856      1.0  0.55712  0.23274  0.93146  1.0000
  C   C857      1.0  0.55543  0.24561  0.91062  1.0000
  C   C858      1.0  0.55189  0.23508  0.88960  1.0000
  C   C859      1.0  0.55043  0.21153  0.88963  1.0000
  C   C860      1.0  0.55229  0.19863  0.91044  1.0000
  H   H1031     1.0  0.55952  0.24111  0.94768  1.0000
  H   H1032     1.0  0.55651  0.26370  0.91090  1.0000
  H   H1033     1.0  0.54759  0.20321  0.87348  1.0000
  H   H1034     1.0  0.55093  0.18058  0.91020  1.0000
  C   C861      1.0  0.60296  0.06165  0.94088  1.0000
  C   C862      1.0  0.62020  0.05173  0.93075  1.0000
  C   C863      1.0  0.62017  0.02932  0.92331  1.0000
  C   C864      1.0  0.60293  0.01652  0.92611  1.0000
  C   C865      1.0  0.58563  0.02656  0.93593  1.0000
  C   C866      1.0  0.58562  0.04897  0.94330  1.0000
  H   H1035     1.0  0.63363  0.06146  0.92868  1.0000
  H   H1036     1.0  0.63336  0.02210  0.91513  1.0000
  H   H1037     1.0  0.57215  0.01689  0.93794  1.0000
  H   H1038     1.0  0.57223  0.05641  0.95093  1.0000
  S   S252      1.0  0.73189  0.32915  0.66154  1.0000
  C   C867      1.0  0.66698  0.33947  0.77858  1.0000
  C   C868      1.0  0.67979  0.00707  0.69330  1.0000
  C   C869      1.0  0.62765  0.04786  0.99351  1.0000
  H   H1039     1.0  0.63752  0.24652  0.60565  1.0000
  H   H1040     1.0  0.55152  0.39903  0.89367  1.0000
  C   C870      1.0  0.50408  0.40596  0.83452  1.0000
  H   H1041     1.0  0.55009  0.41921  0.84411  1.0000
  S   S253      1.0  0.70347  0.36267  0.99111  1.0000
  C   C871      1.0  0.65922  0.00702  0.65870  1.0000
  C   C872      1.0  0.62072  0.27530  0.89801  1.0000
  H   H1042     1.0  0.65546  0.06433  0.99879  1.0000
  C   C873      1.0  0.67523  0.01549  0.67097  1.0000
  C   C874      1.0  0.62603  0.38194  0.58855  1.0000
  H   H1043     1.0  0.59742  0.25360  0.91029  1.0000
  C   C875      1.0  0.65502  0.37628  0.56389  1.0000
  H   H1044     1.0  0.72760  0.00525  0.54396  1.0000
  H   H1045     1.0  0.51130  0.39348  0.82373  1.0000
  H   H1046     1.0  0.59754  0.42912  0.54839  1.0000
  C   C876      1.0  0.62355  0.20569  0.51953  1.0000
  H   H1047     1.0  0.65274  0.38656  0.52863  1.0000
  C   C877      1.0  0.63013  0.01023  0.97864  1.0000
  H   H1048     1.0  0.62304  0.22468  0.59336  1.0000
  H   H1049     1.0  0.61143  0.20461  0.50716  1.0000
  C   C878      1.0  0.61559  0.39185  0.56982  1.0000
  H   H1050     1.0  0.66370  0.26119  0.54957  1.0000
  C   C879      1.0  0.68515  0.00595  0.59109  1.0000
  C   C880      1.0  0.59412  0.24820  0.82269  1.0000
  C   C881      1.0  0.63064  0.27138  0.85762  1.0000
  C   C882      1.0  0.63252  0.28185  0.87904  1.0000
  H   H1051     1.0  0.58181  0.24264  0.83445  1.0000
  H   H1052     1.0  0.59217  0.26667  0.81999  1.0000
  H   H1053     1.0  0.59166  0.24039  0.80557  1.0000
  H   H1054     1.0  0.63992  0.27768  0.84357  1.0000
  H   H1055     1.0  0.64293  0.29545  0.88088  1.0000
  C   C883      1.0  0.62406  0.40409  0.50519  1.0000
  H   H1056     1.0  0.62208  0.28365  0.91448  1.0000
  C   C884      1.0  0.70999  0.35378  0.72406  1.0000
  C   C885      1.0  0.50095  0.22756  0.89643  1.0000
  C   C886      1.0  0.62452  0.39397  0.54737  1.0000
  H   H1057     1.0  0.59320  0.23551  0.87314  1.0000
  H   H1058     1.0  0.63675  0.34857  0.78864  1.0000
  N   N58       1.0  0.64050  0.24359  0.56837  1.0000
  C   C887      1.0  0.67598  0.34582  0.73739  1.0000
  C   C888      1.0  0.68091  0.33820  0.76029  1.0000
  C   C889      1.0  0.66029  0.25460  0.56740  1.0000
  H   H1059     1.0  0.52213  0.36702  0.85254  1.0000
  C   C890      1.0  0.63752  0.23361  0.59200  1.0000
  C   C891      1.0  0.63987  0.22549  0.55113  1.0000
  H   H1060     1.0  0.69551  0.35209  0.68182  1.0000
  H   H1061     1.0  0.70052  0.31010  0.72984  1.0000
  C   C892      1.0  0.61850  0.02843  0.98635  1.0000
  C   C893      1.0  0.64776  0.34829  0.77463  1.0000
  H   H1062     1.0  0.70760  0.37174  0.72849  1.0000
  C   C894      1.0  0.64244  0.35598  0.75243  1.0000
  H   H1063     1.0  0.52431  0.16347  0.94276  1.0000
  S   S254      1.0  0.73526  0.41648  0.96882  1.0000
  N   N59       1.0  0.74276  0.02461  0.51718  1.0000
  H   H1064     1.0  0.62795  0.00258  0.58173  1.0000
  H   H1065     1.0  0.62809  0.26685  0.80936  1.0000
  H   H1066     1.0  0.67031  0.34544  0.68910  1.0000
  H   H1067     1.0  0.61254  0.23658  0.53266  1.0000
  C   C895      1.0  0.50091  0.42729  0.86979  1.0000
  Fe  Fe126     1.0  0.53432  0.11474  0.98218  1.0000
  C   C896      1.0  0.68386  0.35375  0.69576  1.0000
  S   S255      1.0  0.67984  0.41132  0.98729  1.0000
  H   H1068     1.0  0.62738  0.23957  0.79787  1.0000
  C   C897      1.0  0.60684  0.25840  0.89561  1.0000
  H   H1069     1.0  0.65068  0.36001  0.71707  1.0000
  C   C898      1.0  0.52566  0.37533  0.86911  1.0000
  H   H1070     1.0  0.62641  0.26999  0.54746  1.0000
  C   C899      1.0  0.65452  0.20785  0.55166  1.0000
  H   H1071     1.0  0.74101  0.37974  0.92909  1.0000
  H   H1072     1.0  0.53862  0.36589  0.87694  1.0000
  H   H1073     1.0  0.54096  0.42612  0.88644  1.0000
  H   H1074     1.0  0.50559  0.43231  0.88679  1.0000
  H   H1075     1.0  0.64718  0.03328  0.56251  1.0000
  C   C900      1.0  0.64850  0.04898  0.99353  1.0000
  C   C901      1.0  0.65362  0.18968  0.53675  1.0000
  N   N60       1.0  0.53019  0.39938  0.86546  1.0000
  C   C902      1.0  0.69449  0.31911  0.71419  1.0000
  C   C903      1.0  0.51197  0.41129  0.85655  1.0000
  C   C904      1.0  0.65487  0.02090  0.57346  1.0000
  C   C905      1.0  0.59427  0.39159  0.52445  1.0000
  H   H1076     1.0  0.61871  0.37983  0.60535  1.0000
  H   H1077     1.0  0.50345  0.24013  0.88280  1.0000
  N   N61       1.0  0.61421  0.24241  0.83225  1.0000
  H   H1078     1.0  0.61534  0.20863  0.81922  1.0000
  H   H1079     1.0  0.52637  0.40522  0.90223  1.0000
  N   N62       1.0  0.61297  0.40414  0.52774  1.0000
  H   H1080     1.0  0.72092  0.35307  0.70924  1.0000
  C   C906      1.0  0.53744  0.40797  0.88791  1.0000
  H   H1081     1.0  0.69543  0.33066  0.76411  1.0000
  C   C907      1.0  0.54693  0.40132  0.84836  1.0000
  C   C908      1.0  0.61578  0.21768  0.83595  1.0000
  C   C909      1.0  0.61674  0.25385  0.85466  1.0000
  H   H1082     1.0  0.62612  0.27492  0.57793  1.0000
  C   C910      1.0  0.74113  0.00427  0.53240  1.0000
  H   H1083     1.0  0.63721  0.17409  0.50962  1.0000
  H   H1084     1.0  0.64493  0.24500  0.82054  1.0000
  C   C911      1.0  0.64396  0.00335  0.58442  1.0000
  H   H1085     1.0  0.54384  0.39280  0.83181  1.0000
  H   H1086     1.0  0.60945  0.25491  0.56687  1.0000
  H   H1087     1.0  0.68421  0.02858  0.66297  1.0000
  C   C912      1.0  0.62941  0.24872  0.81434  1.0000
  H   H1088     1.0  0.63003  0.21278  0.84492  1.0000
  H   H1089     1.0  0.66491  0.17627  0.53788  1.0000
  C   C913      1.0  0.60470  0.24795  0.87426  1.0000
  C   C914      1.0  0.62488  0.26150  0.56483  1.0000
  H   H1090     1.0  0.64985  0.99974  0.74446  1.0000
  H   H1091     1.0  0.51254  0.37308  0.88097  1.0000
  H   H1092     1.0  0.70565  0.31644  0.69993  1.0000
  H   H1093     1.0  0.56106  0.39324  0.85515  1.0000
  H   H1094     1.0  0.66658  0.20771  0.56407  1.0000
  C   C915      1.0  0.66033  0.03074  0.98615  1.0000
  H   H1095     1.0  0.61098  0.33461  0.51237  1.0000
  C   C916      1.0  0.65620  0.35469  0.73398  1.0000
  H   H1096     1.0  0.74201  0.39937  0.89083  1.0000
  H   H1097     1.0  0.74125  0.13522  0.52727  1.0000
  C   C917      1.0  0.63805  0.18848  0.52085  1.0000
  H   H1098     1.0  0.69116  0.00853  0.96145  1.0000
  H   H1099     1.0  0.69243  0.01435  0.70171  1.0000
  H   H1100     1.0  0.67091  0.33316  0.79582  1.0000
  H   H1101     1.0  0.59511  0.20751  0.99233  1.0000
  H   H1102     1.0  0.65359  0.36581  0.59988  1.0000
  C   C918      1.0  0.64469  0.38598  0.54498  1.0000
  H   H1103     1.0  0.67635  0.03293  0.98625  1.0000
  H   H1104     1.0  0.62724  0.36214  0.74930  1.0000
  C   C919      1.0  0.50344  0.21571  0.93692  1.0000
  H   H1105     1.0  0.59769  0.37372  0.52077  1.0000
  H   H1106     1.0  0.67281  0.24318  0.57292  1.0000
  C   C920      1.0  0.65143  0.01077  0.97836  1.0000
  N   N63       1.0  0.69071  0.34331  0.71813  1.0000
  H   H1107     1.0  0.62114  0.43770  0.53614  1.0000
  H   H1108     1.0  0.67014  0.36951  0.56159  1.0000
  C   C921      1.0  0.64570  0.37414  0.58557  1.0000
  Fe  Fe127     1.0  0.67127  0.37485  0.98738  1.0000
  C   C922      1.0  0.60751  0.42779  0.53287  1.0000
  H   H1109     1.0  0.60377  0.24753  0.99537  1.0000
  S   S256      1.0  0.53931  0.14740  0.99950  1.0000
  H   H1110     1.0  0.65581  0.01346  0.64133  1.0000
  H   H1111     1.0  0.51511  0.18836  0.97505  1.0000
  C   C923      1.0  0.49921  0.18308  0.97371  1.0000
  Fe  Fe128     1.0  0.71194  0.39897  0.99284  1.0000
  H   H1112     1.0  0.61852  0.06234  0.99837  1.0000
  H   H1113     1.0  0.66293  0.00608  0.93428  1.0000
  H   H1114     1.0  0.71047  0.02947  0.51722  1.0000
  C   C924      1.0  0.50556  0.23218  0.91939  1.0000
  H   H1115     1.0  0.60226  0.02790  0.98567  1.0000
  H   H1116     1.0  0.73205  0.04702  0.54372  1.0000
  C   C925      1.0  0.50867  0.15727  0.94404  1.0000
  S   S257      1.0  0.56106  0.09740  0.99904  1.0000
  H   H1117     1.0  0.50819  0.22021  0.95409  1.0000
  H   H1118     1.0  0.50832  0.14343  0.95743  1.0000
  H   H1119     1.0  0.49737  0.16917  0.98679  1.0000
  H   H1120     1.0  0.59926  0.43611  0.51808  1.0000
  H   H1121     1.0  0.63786  0.41425  0.50586  1.0000
  C   C926      1.0  0.49628  0.19403  0.93190  1.0000
  C   C927      1.0  0.72336  0.02776  0.50481  1.0000
  H   H1122     1.0  0.73176  0.17071  0.50406  1.0000
  C   C928      1.0  0.74527  0.04437  0.53201  1.0000
  Fe  Fe129     1.0  0.65737  0.56104  0.41593  1.0000
  S   S258      1.0  0.66148  0.53487  0.38841  1.0000
  S   S259      1.0  0.67913  0.56655  0.44635  1.0000
  Fe  Fe130     1.0  0.61429  0.57285  0.39966  1.0000
  S   S260      1.0  0.61602  0.54799  0.37084  1.0000
  S   S261      1.0  0.58398  0.59163  0.39894  1.0000
  Fe  Fe131     1.0  0.63003  0.52431  0.39729  1.0000
  Fe  Fe132     1.0  0.64701  0.56020  0.36351  1.0000
  S   S262      1.0  0.66168  0.56361  0.32718  1.0000
  S   S263      1.0  0.62658  0.54841  0.42666  1.0000
  S   S264      1.0  0.64466  0.58721  0.39056  1.0000
  H   H1123     1.0  0.50669  0.55822  0.47904  1.0000
  Fe  Fe133     1.0  0.65030  0.54649  0.13787  1.0000
  S   S265      1.0  0.64625  0.58045  0.12007  1.0000
  S   S266      1.0  0.66782  0.51746  0.11967  1.0000
  Fe  Fe134     1.0  0.63674  0.56630  0.18525  1.0000
  S   S267      1.0  0.63224  0.60115  0.16966  1.0000
  S   S268      1.0  0.62701  0.56050  0.22343  1.0000
  Fe  Fe135     1.0  0.61689  0.58438  0.14010  1.0000
  S   S269      1.0  0.58941  0.60007  0.12024  1.0000
  Fe  Fe136     1.0  0.66172  0.59467  0.15104  1.0000
  S   S270      1.0  0.68419  0.62328  0.14544  1.0000
  S   S271      1.0  0.62010  0.54942  0.15626  1.0000
  S   S272      1.0  0.66703  0.56081  0.16834  1.0000
  S   S273      1.0  0.51665  0.61029  0.47651  1.0000
  C   C929      1.0  0.71038  0.62788  0.14991  1.0000
  C   C930      1.0  0.72281  0.61262  0.16225  1.0000
  H   H1124     1.0  0.56284  0.65487  0.16016  1.0000
  C   C931      1.0  0.71882  0.64788  0.14111  1.0000
  H   H1125     1.0  0.71670  0.59729  0.16941  1.0000
  N   N64       1.0  0.71187  0.57269  0.10064  1.0000
  H   H1126     1.0  0.70944  0.65988  0.13159  1.0000
  C   C932      1.0  0.52282  0.62390  0.13098  1.0000
  C   C933      1.0  0.53259  0.62654  0.10943  1.0000
  C   C934      1.0  0.55284  0.61925  0.10660  1.0000
  C   C935      1.0  0.56382  0.60923  0.12519  1.0000
  C   C936      1.0  0.55409  0.60675  0.14677  1.0000
  C   C937      1.0  0.53381  0.61397  0.14957  1.0000
  H   H1127     1.0  0.52455  0.63398  0.09483  1.0000
  H   H1128     1.0  0.56009  0.62130  0.08981  1.0000
  H   H1129     1.0  0.56214  0.59912  0.16129  1.0000
  H   H1130     1.0  0.52655  0.61174  0.16635  1.0000
  C   C938      1.0  0.56557  0.59665  0.42093  1.0000
  C   C939      1.0  0.54708  0.60672  0.41449  1.0000
  C   C940      1.0  0.53197  0.61110  0.43122  1.0000
  C   C941      1.0  0.53523  0.60548  0.45467  1.0000
  C   C942      1.0  0.55369  0.59529  0.46110  1.0000
  C   C943      1.0  0.56878  0.59087  0.44436  1.0000
  H   H1131     1.0  0.54446  0.61134  0.39644  1.0000
  H   H1132     1.0  0.51787  0.61894  0.42600  1.0000
  H   H1133     1.0  0.55635  0.59087  0.47918  1.0000
  H   H1134     1.0  0.58297  0.58331  0.44965  1.0000
  C   C944      1.0  0.65161  0.56412  0.29847  1.0000
  C   C945      1.0  0.63096  0.56399  0.29423  1.0000
  C   C946      1.0  0.62380  0.56315  0.27119  1.0000
  C   C947      1.0  0.63709  0.56261  0.25200  1.0000
  C   C948      1.0  0.65775  0.56275  0.25625  1.0000
  C   C949      1.0  0.66492  0.56361  0.27929  1.0000
  H   H1135     1.0  0.62049  0.56439  0.30871  1.0000
  H   H1136     1.0  0.60779  0.56288  0.26820  1.0000
  H   H1137     1.0  0.66820  0.56150  0.24187  1.0000
  H   H1138     1.0  0.68093  0.56339  0.28234  1.0000
  C   C950      1.0  0.70486  0.57393  0.45001  1.0000
  C   C951      1.0  0.71300  0.57353  0.47262  1.0000
  C   C952      1.0  0.54448  0.52596  0.45630  1.0000
  C   C953      1.0  0.50624  0.68771  0.11412  1.0000
  C   C954      1.0  0.71711  0.58096  0.43144  1.0000
  H   H1139     1.0  0.70373  0.56816  0.48715  1.0000
  H   H1140     1.0  0.54664  0.56977  0.06139  1.0000
  H   H1141     1.0  0.71119  0.58145  0.41396  1.0000
  H   H1142     1.0  0.66997  0.51750  0.31371  1.0000
  C   C955      1.0  0.54223  0.69009  0.11813  1.0000
  H   H1143     1.0  0.50870  0.67341  0.10222  1.0000
  C   C956      1.0  0.54390  0.53327  0.43260  1.0000
  C   C957      1.0  0.73468  0.60655  0.09843  1.0000
  C   C958      1.0  0.51591  0.57584  0.07222  1.0000
  C   C959      1.0  0.55853  0.68891  0.10202  1.0000
  H   H1144     1.0  0.66340  0.63727  0.18996  1.0000
  H   H1145     1.0  0.64549  0.51967  0.28672  1.0000
  C   C960      1.0  0.51521  0.55776  0.44296  1.0000
  H   H1146     1.0  0.70178  0.57949  0.13536  1.0000
  C   C961      1.0  0.56175  0.66479  0.14413  1.0000
  C   C962      1.0  0.73669  0.64999  0.21249  1.0000
  C   C963      1.0  0.70121  0.65188  0.20359  1.0000
  H   H1147     1.0  0.68232  0.60159  0.19184  1.0000
  C   C964      1.0  0.52322  0.71468  0.09011  1.0000
  C   C965      1.0  0.73697  0.58782  0.43553  1.0000
  N   N65       1.0  0.67732  0.62296  0.22091  1.0000
  C   C966      1.0  0.73354  0.63135  0.22699  1.0000
  C   C967      1.0  0.66113  0.63642  0.20921  1.0000
  H   H1148     1.0  0.52737  0.55654  0.40900  1.0000
  H   H1149     1.0  0.50360  0.68040  0.13182  1.0000
  H   H1150     1.0  0.68964  0.66013  0.19328  1.0000
  H   H1151     1.0  0.65621  0.61409  0.24825  1.0000
  H   H1152     1.0  0.55568  0.51385  0.46236  1.0000
  C   C968      1.0  0.70668  0.63406  0.50042  1.0000
  H   H1153     1.0  0.67235  0.63697  0.25474  1.0000
  H   H1154     1.0  0.68158  0.60841  0.25558  1.0000
  H   H1155     1.0  0.61956  0.50070  0.33417  1.0000
  C   C969      1.0  0.73291  0.58019  0.47668  1.0000
  C   C970      1.0  0.52024  0.72038  0.13115  1.0000
  C   C971      1.0  0.69659  0.58768  0.08923  1.0000
  N   N66       1.0  0.55889  0.52452  0.41573  1.0000
  H   H1156     1.0  0.51838  0.71290  0.14892  1.0000
  C   C972      1.0  0.72413  0.64091  0.46389  1.0000
  H   H1157     1.0  0.71268  0.60805  0.24091  1.0000
  C   C973      1.0  0.70745  0.63338  0.45191  1.0000
  C   C974      1.0  0.52873  0.54943  0.42637  1.0000
  C   C975      1.0  0.67171  0.62057  0.24591  1.0000
  C   C976      1.0  0.70347  0.56519  0.12339  1.0000
  C   C977      1.0  0.54443  0.67767  0.13938  1.0000
  C   C978      1.0  0.73930  0.65263  0.14457  1.0000
  H   H1158     1.0  0.55875  0.56090  0.10112  1.0000
  H   H1159     1.0  0.54158  0.53010  0.38443  1.0000
  C   C979      1.0  0.71477  0.55277  0.08583  1.0000
  H   H1160     1.0  0.53312  0.73195  0.13158  1.0000
  C   C980      1.0  0.52967  0.56548  0.11699  1.0000
  H   H1161     1.0  0.72325  0.67431  0.18903  1.0000
  H   H1162     1.0  0.53253  0.67731  0.15226  1.0000
  H   H1163     1.0  0.59099  0.52381  0.41103  1.0000
  H   H1164     1.0  0.68868  0.58876  0.21933  1.0000
  H   H1165     1.0  0.67482  0.50591  0.34180  1.0000
  N   N67       1.0  0.52344  0.70306  0.11328  1.0000
  C   C981      1.0  0.72418  0.64162  0.48862  1.0000
  H   H1166     1.0  0.66019  0.65380  0.21590  1.0000
  C   C982      1.0  0.69744  0.63292  0.21836  1.0000
  H   H1167     1.0  0.68841  0.55785  0.12139  1.0000
  H   H1168     1.0  0.71292  0.55202  0.13216  1.0000
  H   H1169     1.0  0.72318  0.61749  0.09101  1.0000
  H   H1170     1.0  0.58095  0.54851  0.42467  1.0000
  C   C983      1.0  0.72056  0.66027  0.20091  1.0000
  C   C984      1.0  0.67781  0.60044  0.21052  1.0000
  H   H1171     1.0  0.64612  0.62886  0.21208  1.0000
  H   H1172     1.0  0.55828  0.69763  0.08537  1.0000
  C   C985      1.0  0.57576  0.67584  0.10694  1.0000
  C   C986      1.0  0.66984  0.50149  0.32402  1.0000
  C   C987      1.0  0.57734  0.66377  0.12790  1.0000
  H   H1173     1.0  0.58787  0.67469  0.09428  1.0000
  H   H1174     1.0  0.69268  0.60237  0.10019  1.0000
  C   C988      1.0  0.53611  0.56996  0.07587  1.0000
  C   C989      1.0  0.71425  0.62288  0.22993  1.0000
  H   H1175     1.0  0.63295  0.49921  0.09506  1.0000
  H   H1176     1.0  0.70025  0.54443  0.08248  1.0000
  H   H1177     1.0  0.66284  0.59244  0.21158  1.0000
  C   C990      1.0  0.53111  0.53475  0.47281  1.0000
  H   H1178     1.0  0.72158  0.55754  0.06872  1.0000
  H   H1179     1.0  0.70794  0.63225  0.43310  1.0000
  H   H1180     1.0  0.68227  0.57885  0.08638  1.0000
  C   C991      1.0  0.57932  0.53002  0.42342  1.0000
  H   H1181     1.0  0.50426  0.57076  0.43809  1.0000
  H   H1182     1.0  0.55823  0.55265  0.39137  1.0000
  C   C992      1.0  0.54296  0.56479  0.09821  1.0000
  H   H1183     1.0  0.50633  0.73067  0.12768  1.0000
  H   H1184     1.0  0.59043  0.65308  0.13132  1.0000
  C   C993      1.0  0.50947  0.57150  0.11360  1.0000
  C   C994      1.0  0.69017  0.62641  0.48824  1.0000
  H   H1185     1.0  0.73877  0.57971  0.49417  1.0000
  C   C995      1.0  0.55645  0.53406  0.39177  1.0000
  H   H1186     1.0  0.53237  0.52969  0.49098  1.0000
  H   H1187     1.0  0.67717  0.62010  0.49755  1.0000
  H   H1188     1.0  0.63863  0.51131  0.35248  1.0000
  H   H1189     1.0  0.56810  0.52731  0.37962  1.0000
  H   H1190     1.0  0.72459  0.53962  0.09408  1.0000
  H   H1191     1.0  0.67802  0.61937  0.45466  1.0000
  H   H1192     1.0  0.51142  0.58004  0.05461  1.0000
  H   H1193     1.0  0.70183  0.59384  0.07185  1.0000
  H   H1194     1.0  0.58313  0.52247  0.44068  1.0000
  H   H1195     1.0  0.50880  0.72418  0.08708  1.0000
  C   C996      1.0  0.69055  0.62610  0.46403  1.0000
  H   H1196     1.0  0.53526  0.56213  0.13444  1.0000
  C   C997      1.0  0.64221  0.50247  0.28308  1.0000
  C   C998      1.0  0.50193  0.57675  0.09098  1.0000
  C   C999      1.0  0.73133  0.58361  0.10437  1.0000
  C   C1000     1.0  0.55751  0.49974  0.41447  1.0000
  C   C1001     1.0  0.51655  0.55068  0.46614  1.0000
  C   C1002     1.0  0.63502  0.50741  0.33419  1.0000
  H   H1197     1.0  0.50028  0.57254  0.12911  1.0000
  H   H1198     1.0  0.53537  0.72715  0.08846  1.0000
  H   H1199     1.0  0.52466  0.70251  0.07575  1.0000
  H   H1200     1.0  0.63476  0.52373  0.32444  1.0000
  H   H1201     1.0  0.73701  0.64528  0.45336  1.0000
  H   H1202     1.0  0.63480  0.51131  0.24753  1.0000
  C   C1003     1.0  0.74504  0.58760  0.45816  1.0000
  H   H1203     1.0  0.51535  0.95400  0.00772  1.0000
  S   S274      1.0  0.49698  0.63216  0.13571  1.0000
  C   C1004     1.0  0.74326  0.61740  0.16573  1.0000
  N   N68       1.0  0.74167  0.64911  0.50198  1.0000
  H   H1204     1.0  0.74545  0.66812  0.13774  1.0000
  C   C1005     1.0  0.63612  0.49780  0.26052  1.0000
  S   S275      1.0  0.51468  0.88882  0.96731  1.0000
  Fe  Fe137     1.0  0.64405  0.93040  0.86987  1.0000
  S   S276      1.0  0.65350  0.90451  0.89725  1.0000
  S   S277      1.0  0.65426  0.92061  0.83281  1.0000
  Fe  Fe138     1.0  0.62455  0.96043  0.90773  1.0000
  S   S278      1.0  0.63304  0.93630  0.93695  1.0000
  H   H1205     1.0  0.74515  0.76826  0.60199  1.0000
  Fe  Fe139     1.0  0.66327  0.93319  0.91908  1.0000
  S   S279      1.0  0.69447  0.93813  0.93560  1.0000
  Fe  Fe140     1.0  0.62253  0.90981  0.91287  1.0000
  S   S280      1.0  0.60253  0.88015  0.92205  1.0000
  S   S281      1.0  0.65531  0.95914  0.89091  1.0000
  S   S282      1.0  0.61268  0.93378  0.88440  1.0000
  H   H1206     1.0  0.62313  0.91030  0.58179  1.0000
  Fe  Fe141     1.0  0.64257  0.93477  0.63815  1.0000
  S   S283      1.0  0.64417  0.89943  0.62492  1.0000
  S   S284      1.0  0.63862  0.96517  0.61231  1.0000
  Fe  Fe142     1.0  0.63834  0.91647  0.68920  1.0000
  S   S285      1.0  0.64008  0.88025  0.67823  1.0000
  S   S286      1.0  0.62845  0.92938  0.72527  1.0000
  Fe  Fe143     1.0  0.66561  0.89146  0.65454  1.0000
  S   S287      1.0  0.69469  0.87257  0.64262  1.0000
  Fe  Fe144     1.0  0.61855  0.89091  0.64939  1.0000
  S   S288      1.0  0.59221  0.86812  0.63848  1.0000
  S   S289      1.0  0.66487  0.92744  0.66694  1.0000
  S   S290      1.0  0.61591  0.92652  0.66128  1.0000
  C   C1006     1.0  0.71775  0.85872  0.65143  1.0000
  C   C1007     1.0  0.73195  0.85250  0.63426  1.0000
  H   H1207     1.0  0.66692  0.95584  0.97448  1.0000
  C   C1008     1.0  0.72212  0.85318  0.67471  1.0000
  C   C1009     1.0  0.53835  0.86825  0.68846  1.0000
  H   H1208     1.0  0.58903  0.91271  0.61912  1.0000
  H   H1209     1.0  0.71147  0.85772  0.68818  1.0000
  C   C1010     1.0  0.52370  0.86051  0.62339  1.0000
  C   C1011     1.0  0.53710  0.84204  0.62313  1.0000
  C   C1012     1.0  0.55778  0.84473  0.62789  1.0000
  C   C1013     1.0  0.56560  0.86584  0.63324  1.0000
  C   C1014     1.0  0.55211  0.88423  0.63402  1.0000
  C   C1015     1.0  0.53146  0.88156  0.62908  1.0000
  H   H1210     1.0  0.53162  0.82571  0.61877  1.0000
  H   H1211     1.0  0.56787  0.83028  0.62723  1.0000
  H   H1212     1.0  0.55754  0.90057  0.63831  1.0000
  H   H1213     1.0  0.52141  0.89605  0.62946  1.0000
  C   C1016     1.0  0.64693  0.92372  0.80297  1.0000
  C   C1017     1.0  0.63046  0.93708  0.79584  1.0000
  C   C1018     1.0  0.62515  0.93859  0.77206  1.0000
  C   C1019     1.0  0.63612  0.92678  0.75500  1.0000
  C   C1020     1.0  0.65266  0.91355  0.76209  1.0000
  C   C1021     1.0  0.65800  0.91208  0.78587  1.0000
  H   H1214     1.0  0.62178  0.94620  0.80865  1.0000
  H   H1215     1.0  0.61231  0.94890  0.76687  1.0000
  H   H1216     1.0  0.66126  0.90427  0.74932  1.0000
  H   H1217     1.0  0.67075  0.90164  0.79111  1.0000
  C   C1022     1.0  0.71165  0.92507  0.95596  1.0000
  C   C1023     1.0  0.73105  0.93380  0.95795  1.0000
  H   H1218     1.0  0.58427  0.82869  0.78449  1.0000
  H   H1219     1.0  0.51679  0.96029  0.97697  1.0000
  C   C1024     1.0  0.70666  0.90651  0.97006  1.0000
  H   H1220     1.0  0.61187  0.89795  0.81664  1.0000
  C   C1025     1.0  0.72868  0.78048  0.65698  1.0000
  H   H1221     1.0  0.69184  0.89956  0.96893  1.0000
  H   H1222     1.0  0.70391  0.98927  0.72951  1.0000
  C   C1026     1.0  0.74020  0.84147  0.68057  1.0000
  H   H1223     1.0  0.68192  0.97605  0.61307  1.0000
  H   H1224     1.0  0.73774  0.73873  0.67615  1.0000
  H   H1225     1.0  0.64318  0.98679  0.94026  1.0000
  C   C1027     1.0  0.50179  0.86477  0.69276  1.0000
  C   C1028     1.0  0.67424  0.98841  0.60209  1.0000
  C   C1029     1.0  0.56994  0.88257  0.57555  1.0000
  H   H1226     1.0  0.73514  0.94822  0.94731  1.0000
  C   C1030     1.0  0.53850  0.88602  0.95322  1.0000
  C   C1031     1.0  0.54591  0.86554  0.94487  1.0000
  C   C1032     1.0  0.56546  0.86403  0.93523  1.0000
  C   C1033     1.0  0.57771  0.88300  0.93351  1.0000
  C   C1034     1.0  0.57008  0.90356  0.94131  1.0000
  C   C1035     1.0  0.55070  0.90499  0.95127  1.0000
  H   H1227     1.0  0.53680  0.85077  0.94638  1.0000
  H   H1228     1.0  0.57122  0.84801  0.92937  1.0000
  H   H1229     1.0  0.57928  0.91831  0.94010  1.0000
  H   H1230     1.0  0.54520  0.92093  0.95761  1.0000
  H   H1231     1.0  0.60573  0.93432  0.60950  1.0000
  H   H1232     1.0  0.55355  0.93705  0.58021  1.0000
  C   C1036     1.0  0.51920  0.89770  0.70697  1.0000
  H   H1233     1.0  0.52253  0.84083  0.67579  1.0000
  C   C1037     1.0  0.53757  0.88888  0.69935  1.0000
  H   H1234     1.0  0.63541  0.98334  0.65892  1.0000
  H   H1235     1.0  0.69197  0.95381  0.71369  1.0000
  C   C1038     1.0  0.73551  0.66748  0.51771  1.0000
  C   C1039     1.0  0.66829  0.98974  0.70399  1.0000
  C   C1040     1.0  0.74541  0.86518  0.94104  1.0000
  H   H1236     1.0  0.70628  0.80618  0.66417  1.0000
  C   C1041     1.0  0.51024  0.94876  0.99031  1.0000
  C   C1042     1.0  0.59123  0.92623  0.60573  1.0000
  H   H1237     1.0  0.65962  0.97123  0.99992  1.0000
  H   H1238     1.0  0.51864  0.91387  0.71527  1.0000
  C   C1043     1.0  0.72122  0.88572  0.91706  1.0000
  C   C1044     1.0  0.65349  0.98690  0.59883  1.0000
  H   H1239     1.0  0.55021  0.85478  0.57099  1.0000
  H   H1240     1.0  0.71353  0.85965  0.94168  1.0000
  C   C1045     1.0  0.55128  0.87287  0.57216  1.0000
  C   C1046     1.0  0.57166  0.90617  0.57806  1.0000
  H   H1241     1.0  0.72886  0.85662  0.61620  1.0000
  H   H1242     1.0  0.69219  0.98367  0.75699  1.0000
  C   C1047     1.0  0.65923  0.99018  0.94374  1.0000
  C   C1048     1.0  0.55355  0.91917  0.57751  1.0000
  S   S291      1.0  0.60197  0.98803  0.91771  1.0000
  C   C1049     1.0  0.60870  0.90143  0.57987  1.0000
  H   H1243     1.0  0.60858  0.88802  0.59373  1.0000
  H   H1244     1.0  0.59791  0.85829  0.75829  1.0000
  H   H1245     1.0  0.68201  0.94787  0.74245  1.0000
  C   C1050     1.0  0.74049  0.90518  0.98727  1.0000
  C   C1051     1.0  0.65484  0.98191  0.74268  1.0000
  C   C1052     1.0  0.68539  0.99392  0.97165  1.0000
  H   H1246     1.0  0.59310  0.92977  0.54675  1.0000
  H   H1247     1.0  0.51720  0.93195  0.98699  1.0000
  C   C1053     1.0  0.52079  0.85636  0.68501  1.0000
  H   H1248     1.0  0.58265  0.87109  0.57692  1.0000
  C   C1054     1.0  0.59407  0.93577  0.56490  1.0000
  H   H1249     1.0  0.61151  0.89268  0.77466  1.0000
  C   C1055     1.0  0.73657  0.89854  0.90750  1.0000
  C   C1056     1.0  0.74029  0.76910  0.63988  1.0000
  H   H1250     1.0  0.70107  0.81672  0.62295  1.0000
  H   H1251     1.0  0.51937  0.87838  0.56968  1.0000
  C   C1057     1.0  0.72095  0.89670  0.98556  1.0000
  H   H1252     1.0  0.58416  0.83288  0.82636  1.0000
  C   C1058     1.0  0.74534  0.92399  0.97343  1.0000
  C   C1059     1.0  0.53386  0.88616  0.57143  1.0000
  H   H1253     1.0  0.60903  0.94358  0.56698  1.0000
  C   C1060     1.0  0.53497  0.90926  0.57417  1.0000
  C   C1061     1.0  0.71166  0.80326  0.62754  1.0000
  H   H1254     1.0  0.58290  0.94967  0.56702  1.0000
  H   H1255     1.0  0.73996  0.98891  0.52185  1.0000
  H   H1256     1.0  0.66646  0.94609  0.71761  1.0000
  C   C1062     1.0  0.72281  0.79253  0.61030  1.0000
  C   C1063     1.0  0.73692  0.77566  0.61624  1.0000
  N   N69       1.0  0.59111  0.91703  0.58200  1.0000
  H   H1257     1.0  0.73066  0.77680  0.67532  1.0000
  H   H1258     1.0  0.55124  0.89813  0.70162  1.0000
  H   H1259     1.0  0.52127  0.91939  0.57428  1.0000
  C   C1064     1.0  0.67860  0.95597  0.72523  1.0000
  H   H1260     1.0  0.60920  0.89341  0.56258  1.0000
  H   H1261     1.0  0.57921  0.93913  0.60837  1.0000
  H   H1262     1.0  0.55265  0.86162  0.68215  1.0000
  N   N70       1.0  0.59869  0.86942  0.85138  1.0000
  C   C1065     1.0  0.59098  0.85016  0.86542  1.0000
  C   C1066     1.0  0.61968  0.87304  0.85866  1.0000
  C   C1067     1.0  0.58627  0.88951  0.85721  1.0000
  C   C1068     1.0  0.59815  0.86600  0.82594  1.0000
  C   C1069     1.0  0.59029  0.84642  0.81594  1.0000
  C   C1070     1.0  0.60568  0.88263  0.81031  1.0000
  C   C1071     1.0  0.59023  0.84377  0.79179  1.0000
  C   C1072     1.0  0.60554  0.87979  0.78623  1.0000
  C   C1073     1.0  0.59787  0.86040  0.77699  1.0000
  H   H1263     1.0  0.60001  0.83456  0.86241  1.0000
  H   H1264     1.0  0.59176  0.85326  0.88445  1.0000
  H   H1265     1.0  0.57489  0.84717  0.86176  1.0000
  H   H1266     1.0  0.62094  0.87413  0.87790  1.0000
  H   H1267     1.0  0.62578  0.88897  0.85143  1.0000
  H   H1268     1.0  0.62986  0.85914  0.85298  1.0000
  H   H1269     1.0  0.57049  0.88775  0.85145  1.0000
  H   H1270     1.0  0.58591  0.89233  0.87634  1.0000
  H   H1271     1.0  0.59210  0.90515  0.84896  1.0000
  S   S292      1.0  0.49750  0.85865  0.61591  1.0000
  C   C1074     1.0  0.68951  0.99116  0.73929  1.0000
  H   H1272     1.0  0.70576  0.88929  0.91215  1.0000
  C   C1075     1.0  0.71460  0.79726  0.65082  1.0000
  C   C1076     1.0  0.50155  0.88589  0.70374  1.0000
  H   H1273     1.0  0.74320  0.83724  0.69862  1.0000
  H   H1274     1.0  0.64292  0.96805  0.69759  1.0000
  C   C1077     1.0  0.72564  0.86905  0.93372  1.0000
  H   H1275     1.0  0.64187  0.97270  0.73598  1.0000
  H   H1276     1.0  0.73289  0.72587  0.64887  1.0000
  N   N71       1.0  0.67284  0.98002  0.72738  1.0000
  C   C1078     1.0  0.65765  0.97034  0.98076  1.0000
  H   H1277     1.0  0.65769  0.97467  0.76044  1.0000
  N   N72       1.0  0.66335  0.99172  0.96893  1.0000
  H   H1278     1.0  0.71688  0.88228  0.99621  1.0000
  H   H1279     1.0  0.62220  0.99614  0.97191  1.0000
  C   C1079     1.0  0.64771  0.99007  0.66866  1.0000
  H   H1280     1.0  0.73290  0.91196  0.89509  1.0000
  H   H1281     1.0  0.66826  0.97645  0.93571  1.0000
  H   H1282     1.0  0.69378  0.97891  0.96505  1.0000
  H   H1283     1.0  0.64183  0.96594  0.97748  1.0000
  H   H1284     1.0  0.72459  0.66192  0.53123  1.0000
  H   H1285     1.0  0.73865  0.62349  0.52907  1.0000
  C   C1080     1.0  0.65214  0.98148  0.69089  1.0000
  H   H1286     1.0  0.70582  0.63347  0.51919  1.0000
  H   H1287     1.0  0.72068  0.79762  0.59224  1.0000
  H   H1288     1.0  0.68950  0.99549  0.99026  1.0000
  H   H1289     1.0  0.72854  0.68180  0.50772  1.0000
  C   C1081     1.0  0.74487  0.73301  0.65972  1.0000
  H   H1290     1.0  0.49592  0.81922  0.68920  1.0000
  H   H1291     1.0  0.49576  0.98965  0.96948  1.0000
  H   H1292     1.0  0.90003  0.06734  0.34269  1.0000
  Fe  Fe145     1.0  0.85552  0.06222  0.42861  1.0000
  S   S293      1.0  0.84754  0.03540  0.40372  1.0000
  S   S294      1.0  0.83405  0.07696  0.45646  1.0000
  Fe  Fe146     1.0  0.90078  0.06019  0.41338  1.0000
  S   S295      1.0  0.89507  0.03292  0.38765  1.0000
  S   S296      1.0  0.93394  0.07026  0.41235  1.0000
  Fe  Fe147     1.0  0.86750  0.05333  0.37738  1.0000
  S   S297      1.0  0.85692  0.06558  0.34098  1.0000
  Fe  Fe148     1.0  0.87593  0.01744  0.41597  1.0000
  S   S298      1.0  0.87406  0.08142  0.40186  1.0000
  S   S299      1.0  0.88314  0.04350  0.44208  1.0000
  Fe  Fe149     1.0  0.89685  0.08544  0.15163  1.0000
  S   S300      1.0  0.89192  0.05095  0.16784  1.0000
  S   S301      1.0  0.92706  0.09534  0.13365  1.0000
  Fe  Fe150     1.0  0.85199  0.09890  0.15946  1.0000
  S   S302      1.0  0.84486  0.06571  0.17692  1.0000
  S   S303      1.0  0.83084  0.12807  0.14727  1.0000
  Fe  Fe151     1.0  0.87425  0.06898  0.19594  1.0000
  S   S304      1.0  0.88259  0.05680  0.23322  1.0000
  Fe  Fe152     1.0  0.86290  0.04966  0.14783  1.0000
  S   S305      1.0  0.84753  0.01882  0.13208  1.0000
  S   S306      1.0  0.88037  0.10346  0.18039  1.0000
  S   S307      1.0  0.86883  0.08280  0.12972  1.0000
  C   C1082     1.0  0.98461  0.13904  0.13557  1.0000
  C   C1083     1.0  0.96882  0.14234  0.15177  1.0000
  C   C1084     1.0  0.95144  0.12895  0.15188  1.0000
  C   C1085     1.0  0.94934  0.11198  0.13559  1.0000
  C   C1086     1.0  0.96524  0.10852  0.11957  1.0000
  C   C1087     1.0  0.98271  0.12178  0.11960  1.0000
  H   H1293     1.0  0.82180  0.13041  0.44669  1.0000
  H   H1294     1.0  0.93956  0.13199  0.16439  1.0000
  H   H1295     1.0  0.96397  0.09554  0.10684  1.0000
  C   C1088     1.0  0.78717  0.01578  0.08824  1.0000
  C   C1089     1.0  0.87484  0.05931  0.26300  1.0000
  C   C1090     1.0  0.88485  0.04620  0.28026  1.0000
  C   C1091     1.0  0.87945  0.04756  0.30406  1.0000
  C   C1092     1.0  0.86401  0.06229  0.31108  1.0000
  C   C1093     1.0  0.85406  0.07547  0.29385  1.0000
  C   C1094     1.0  0.85938  0.07399  0.27003  1.0000
  H   H1296     1.0  0.89676  0.03469  0.27510  1.0000
  H   H1297     1.0  0.88715  0.03708  0.31690  1.0000
  H   H1298     1.0  0.84209  0.08692  0.29896  1.0000
  H   H1299     1.0  0.85150  0.08421  0.25710  1.0000
  C   C1095     1.0  0.95178  0.12458  0.37896  1.0000
  H   H1300     1.0  0.92544  0.08689  0.30586  1.0000
  C   C1096     1.0  0.75879  0.04087  0.08180  1.0000
  C   C1097     1.0  0.78926  0.05517  0.09965  1.0000
  C   C1098     1.0  0.76777  0.01963  0.08003  1.0000
  C   C1099     1.0  0.97987  0.10224  0.46103  1.0000
  C   C1100     1.0  0.95991  0.09912  0.46853  1.0000
  C   C1101     1.0  0.94562  0.08950  0.45394  1.0000
  C   C1102     1.0  0.95112  0.08284  0.43156  1.0000
  C   C1103     1.0  0.97113  0.08573  0.42413  1.0000
  C   C1104     1.0  0.98542  0.09533  0.43874  1.0000
  C   C1105     1.0  0.76035  0.02235  0.50139  1.0000
  H   H1301     1.0  0.93034  0.08744  0.45996  1.0000
  H   H1302     1.0  0.97559  0.08063  0.40686  1.0000
  H   H1303     1.0  0.82910  0.14988  0.48305  1.0000
  C   C1106     1.0  0.76492  0.08070  0.46774  1.0000
  C   C1107     1.0  0.77308  0.07552  0.44575  1.0000
  C   C1108     1.0  0.79408  0.07348  0.44214  1.0000
  C   C1109     1.0  0.80734  0.07694  0.46044  1.0000
  C   C1110     1.0  0.79916  0.08189  0.48250  1.0000
  C   C1111     1.0  0.77816  0.08351  0.48621  1.0000
  H   H1304     1.0  0.76309  0.07320  0.43129  1.0000
  H   H1305     1.0  0.80002  0.06976  0.42504  1.0000
  C   C1112     1.0  0.77584  0.02216  0.46243  1.0000
  C   C1113     1.0  0.96691  0.13119  0.36362  1.0000
  C   C1114     1.0  0.76339  0.14885  0.15582  1.0000
  C   C1115     1.0  0.77624  0.16086  0.14095  1.0000
  C   C1116     1.0  0.79674  0.15437  0.13884  1.0000
  C   C1117     1.0  0.80483  0.13572  0.15139  1.0000
  C   C1118     1.0  0.79193  0.12350  0.16603  1.0000
  C   C1119     1.0  0.77144  0.13005  0.16821  1.0000
  C   C1120     1.0  0.84665  0.99999  0.10804  1.0000
  H   H1306     1.0  0.80641  0.16397  0.12735  1.0000
  H   H1307     1.0  0.79773  0.10909  0.17581  1.0000
  H   H1308     1.0  0.97008  0.17821  0.10009  1.0000
  C   C1121     1.0  0.80387  0.06847  0.13498  1.0000
  H   H1309     1.0  0.78923  0.06694  0.14428  1.0000
  C   C1122     1.0  0.85923  0.00188  0.08848  1.0000
  H   H1310     1.0  0.91306  0.11432  0.30358  1.0000
  N   N73       1.0  0.91375  0.09966  0.33830  1.0000
  H   H1311     1.0  0.95353  0.12678  0.39753  1.0000
  N   N74       1.0  0.80095  0.07336  0.10983  1.0000
  C   C1123     1.0  0.93135  0.00595  0.42767  1.0000
  C   C1124     1.0  0.79690  0.01804  0.49619  1.0000
  H   H1312     1.0  0.81955  0.07626  0.07914  1.0000
  C   C1125     1.0  0.79769  0.03318  0.09811  1.0000
  H   H1313     1.0  0.83080  0.05981  0.10242  1.0000
  C   C1126     1.0  0.93449  0.11472  0.37058  1.0000
  H   H1314     1.0  0.81231  0.08200  0.14339  1.0000
  H   H1315     1.0  0.76173  0.12042  0.17961  1.0000
  C   C1127     1.0  0.79105  0.09589  0.10735  1.0000
  C   C1128     1.0  0.77409  0.13772  0.46701  1.0000
  C   C1129     1.0  0.91289  0.09759  0.31259  1.0000
  C   C1130     1.0  0.76927  0.05845  0.09153  1.0000
  H   H1316     1.0  0.99454  0.11887  0.10697  1.0000
  H   H1317     1.0  0.96993  0.15558  0.16423  1.0000
  H   H1318     1.0  0.89576  0.13007  0.33925  1.0000
  C   C1131     1.0  0.96299  0.00353  0.44784  1.0000
  C   C1132     1.0  0.96480  0.12796  0.33982  1.0000
  H   H1319     1.0  0.77557  0.13528  0.22174  1.0000
  H   H1320     1.0  0.93480  0.02194  0.41831  1.0000
  C   C1133     1.0  0.82098  0.07473  0.09839  1.0000
  H   H1321     1.0  0.76135  0.07441  0.09251  1.0000
  H   H1322     1.0  0.92335  0.10959  0.38329  1.0000
  H   H1323     1.0  0.91818  0.02403  0.46837  1.0000
  H   H1324     1.0  0.77693  0.09710  0.11780  1.0000
  C   C1134     1.0  0.94761  0.11796  0.33126  1.0000
  H   H1325     1.0  0.80076  0.10937  0.11376  1.0000
  C   C1135     1.0  0.97284  0.02208  0.43727  1.0000
  C   C1136     1.0  0.93189  0.11097  0.34649  1.0000
  H   H1326     1.0  0.78776  0.10024  0.08882  1.0000
  C   C1137     1.0  0.93461  0.02391  0.46459  1.0000
  H   H1327     1.0  0.95542  0.10439  0.48573  1.0000
  H   H1328     1.0  0.89884  0.08949  0.30707  1.0000
  H   H1329     1.0  0.87007  0.01513  0.08753  1.0000
  H   H1330     1.0  0.94707  0.11573  0.31269  1.0000
  H   H1331     1.0  0.91213  0.07681  0.36800  1.0000
  H   H1332     1.0  0.77814  0.11717  0.26085  1.0000
  H   H1333     1.0  0.80806  0.01909  0.46095  1.0000
  H   H1334     1.0  0.82944  0.08944  0.10438  1.0000
  C   C1138     1.0  0.79485  0.01954  0.47213  1.0000
  C   C1139     1.0  0.79798  0.15329  0.49346  1.0000
  C   C1140     1.0  0.89544  0.11232  0.34567  1.0000
  H   H1335     1.0  0.75966  0.00607  0.07238  1.0000
  H   H1336     1.0  0.80920  0.08465  0.49680  1.0000
  H   H1337     1.0  0.88153  0.10475  0.33892  1.0000
  H   H1338     1.0  0.81254  0.05250  0.13817  1.0000
  C   C1141     1.0  0.99361  0.02184  0.43366  1.0000
  C   C1142     1.0  0.91322  0.07668  0.34871  1.0000
  H   H1339     1.0  0.93748  0.04007  0.45522  1.0000
  H   H1340     1.0  0.92698  0.06675  0.34420  1.0000
  H   H1341     1.0  0.89355  0.11242  0.36489  1.0000
  N   N75       1.0  0.89351  0.15565  0.11966  1.0000
  C   C1143     1.0  0.87948  0.17487  0.11490  1.0000
  C   C1144     1.0  0.88619  0.13625  0.10658  1.0000
  C   C1145     1.0  0.89242  0.14956  0.14477  1.0000
  C   C1146     1.0  0.91433  0.16192  0.11349  1.0000
  C   C1147     1.0  0.92321  0.18063  0.12397  1.0000
  C   C1148     1.0  0.92653  0.14955  0.09766  1.0000
  C   C1149     1.0  0.94301  0.18652  0.11896  1.0000
  C   C1150     1.0  0.94626  0.15572  0.09266  1.0000
  C   C1151     1.0  0.95451  0.17408  0.10335  1.0000
  H   H1342     1.0  0.88053  0.18061  0.09637  1.0000
  H   H1343     1.0  0.86358  0.17030  0.11856  1.0000
  H   H1344     1.0  0.88247  0.18948  0.12592  1.0000
  H   H1345     1.0  0.88647  0.13969  0.08747  1.0000
  H   H1346     1.0  0.87044  0.13215  0.11148  1.0000
  H   H1347     1.0  0.89536  0.12077  0.11041  1.0000
  H   H1348     1.0  0.89627  0.16370  0.15605  1.0000
  H   H1349     1.0  0.87704  0.14431  0.15002  1.0000
  H   H1350     1.0  0.90307  0.13539  0.14904  1.0000
  H   H1351     1.0  0.91504  0.19055  0.13652  1.0000
  H   H1352     1.0  0.92149  0.13455  0.08951  1.0000
  H   H1353     1.0  0.94968  0.20050  0.12758  1.0000
  H   H1354     1.0  0.95551  0.14565  0.08113  1.0000
  H   H1355     1.0  0.96443  0.03678  0.43127  1.0000
  H   H1356     1.0  0.77043  0.17532  0.13125  1.0000
  H   H1357     1.0  0.97668  0.13308  0.32797  1.0000
  H   H1358     1.0  0.77440  0.02377  0.44368  1.0000
  C   C1152     1.0  0.76375  0.12364  0.25469  1.0000
  C   C1153     1.0  0.80958  0.13608  0.45786  1.0000
  N   N76       1.0  0.94090  0.00412  0.45086  1.0000
  C   C1154     1.0  0.75879  0.02371  0.47672  1.0000
  C   C1155     1.0  0.76230  0.13383  0.23271  1.0000
  H   H1359     1.0  0.81253  0.02923  0.10462  1.0000
  C   C1156     1.0  0.77764  0.14884  0.48815  1.0000
  H   H1360     1.0  0.94257  0.02409  0.48152  1.0000
  H   H1361     1.0  0.79415  0.99922  0.08698  1.0000
  H   H1362     1.0  0.91469  0.00530  0.42902  1.0000
  C   C1157     1.0  0.78984  0.13175  0.45203  1.0000
  H   H1363     1.0  0.98035  0.13870  0.37024  1.0000
  H   H1364     1.0  0.78680  0.12272  0.43630  1.0000
  H   H1365     1.0  0.74787  0.11362  0.28572  1.0000
  H   H1366     1.0  0.75921  0.13260  0.46232  1.0000
  C   C1158     1.0  0.81364  0.14690  0.47847  1.0000
  H   H1367     1.0  0.74751  0.12138  0.50081  1.0000
  H   H1368     1.0  0.98987  0.04015  0.48120  1.0000
  H   H1369     1.0  0.99047  0.06702  0.49395  1.0000
  H   H1370     1.0  0.74931  0.18081  0.48246  1.0000
  C   C1159     1.0  0.74666  0.12167  0.26866  1.0000
  H   H1371     1.0  0.99325  0.46946  0.00343  1.0000
  C   C1160     1.0  0.99540  0.04914  0.49654  1.0000
  Fe  Fe153     1.0  0.88034  0.46333  0.89798  1.0000
  S   S308      1.0  0.88051  0.44357  0.93147  1.0000
  Fe  Fe154     1.0  0.87323  0.42228  0.86861  1.0000
  S   S309      1.0  0.87349  0.39957  0.90075  1.0000
  S   S310      1.0  0.86593  0.40375  0.83504  1.0000
  Fe  Fe155     1.0  0.85379  0.42578  0.91760  1.0000
  S   S311      1.0  0.82947  0.41358  0.94333  1.0000
  Fe  Fe156     1.0  0.90013  0.41883  0.91236  1.0000
  S   S312      1.0  0.92491  0.40468  0.93603  1.0000
  S   S313      1.0  0.85204  0.44756  0.88507  1.0000
  S   S314      1.0  0.90154  0.43971  0.87924  1.0000
  Fe  Fe157     1.0  0.84309  0.39453  0.64953  1.0000
  S   S315      1.0  0.83988  0.42894  0.66497  1.0000
  S   S316      1.0  0.81610  0.37555  0.63450  1.0000
  Fe  Fe158     1.0  0.89011  0.39633  0.64959  1.0000
  S   S317      1.0  0.88887  0.43109  0.66434  1.0000
  S   S318      1.0  0.91959  0.37438  0.64763  1.0000
  Fe  Fe159     1.0  0.86512  0.41822  0.68914  1.0000
  S   S319      1.0  0.86868  0.43166  0.72624  1.0000
  Fe  Fe160     1.0  0.86372  0.43968  0.63920  1.0000
  S   S320      1.0  0.86035  0.47594  0.62376  1.0000
  S   S321      1.0  0.86691  0.38301  0.67537  1.0000
  S   S322      1.0  0.86637  0.40558  0.62266  1.0000
  H   H1372     1.0  0.80587  0.47162  0.96315  1.0000
  C   C1161     1.0  0.77209  0.36926  0.92773  1.0000
  H   H1373     1.0  0.77277  0.18435  0.51758  1.0000
  H   H1374     1.0  0.96054  0.37330  0.73763  1.0000
  C   C1162     1.0  0.94593  0.39241  0.70130  1.0000
  H   H1375     1.0  0.84766  0.46783  0.57538  1.0000
  H   H1376     1.0  0.77241  0.48954  0.55013  1.0000
  H   H1377     1.0  0.83023  0.40839  0.86686  1.0000
  C   C1163     1.0  0.94509  0.37131  0.63707  1.0000
  C   C1164     1.0  0.95372  0.38635  0.62097  1.0000
  C   C1165     1.0  0.97356  0.38257  0.61250  1.0000
  C   C1166     1.0  0.94915  0.30328  0.60219  1.0000
  C   C1167     1.0  0.97689  0.34913  0.63662  1.0000
  C   C1168     1.0  0.95697  0.35276  0.64488  1.0000
  H   H1378     1.0  0.94501  0.40074  0.61469  1.0000
  H   H1379     1.0  0.74713  0.05986  0.52105  1.0000
  H   H1380     1.0  0.99096  0.37891  0.96418  1.0000
  H   H1381     1.0  0.95066  0.34095  0.65733  1.0000
  C   C1169     1.0  0.95050  0.39681  0.93174  1.0000
  C   C1170     1.0  0.95981  0.39755  0.90982  1.0000
  C   C1171     1.0  0.98035  0.39169  0.90758  1.0000
  C   C1172     1.0  0.91081  0.38906  0.70957  1.0000
  C   C1173     1.0  0.98241  0.38407  0.94898  1.0000
  C   C1174     1.0  0.96193  0.39005  0.95124  1.0000
  H   H1382     1.0  0.95118  0.40261  0.89465  1.0000
  C   C1175     1.0  0.84550  0.47029  0.97210  1.0000
  C   C1176     1.0  0.93403  0.46463  0.95126  1.0000
  H   H1383     1.0  0.95488  0.38941  0.96826  1.0000
  C   C1177     1.0  0.86659  0.41198  0.80487  1.0000
  C   C1178     1.0  0.86214  0.39605  0.78797  1.0000
  C   C1179     1.0  0.86243  0.40172  0.76392  1.0000
  C   C1180     1.0  0.86710  0.42352  0.75637  1.0000
  C   C1181     1.0  0.87163  0.43940  0.77328  1.0000
  C   C1182     1.0  0.87141  0.43371  0.79731  1.0000
  H   H1384     1.0  0.85847  0.37915  0.79351  1.0000
  H   H1385     1.0  0.85905  0.38923  0.75124  1.0000
  H   H1386     1.0  0.87540  0.45628  0.76773  1.0000
  H   H1387     1.0  0.87491  0.44619  0.80995  1.0000
  C   C1183     1.0  0.75521  0.34207  0.65344  1.0000
  C   C1184     1.0  0.76259  0.34271  0.63054  1.0000
  C   C1185     1.0  0.78112  0.35299  0.62520  1.0000
  C   C1186     1.0  0.79269  0.36285  0.64257  1.0000
  C   C1187     1.0  0.78522  0.36241  0.66543  1.0000
  C   C1188     1.0  0.76670  0.35211  0.67077  1.0000
  H   H1388     1.0  0.78663  0.35307  0.60745  1.0000
  H   H1389     1.0  0.79380  0.36982  0.67907  1.0000
  H   H1390     1.0  0.98744  0.39238  0.89059  1.0000
  C   C1189     1.0  0.76162  0.41572  0.96247  1.0000
  C   C1190     1.0  0.76899  0.42904  0.94380  1.0000
  C   C1191     1.0  0.78959  0.42866  0.93761  1.0000
  C   C1192     1.0  0.80323  0.41503  0.95020  1.0000
  C   C1193     1.0  0.79593  0.40195  0.96904  1.0000
  C   C1194     1.0  0.77531  0.40222  0.97511  1.0000
  H   H1391     1.0  0.75857  0.43951  0.93383  1.0000
  H   H1392     1.0  0.79481  0.43882  0.92307  1.0000
  H   H1393     1.0  0.80628  0.39135  0.97897  1.0000
  H   H1394     1.0  0.81193  0.47841  0.62227  1.0000
  H   H1395     1.0  0.83124  0.37777  0.90772  1.0000
  H   H1396     1.0  0.91616  0.34765  0.59983  1.0000
  H   H1397     1.0  0.94861  0.44302  0.91522  1.0000
  C   C1195     1.0  0.99402  0.29498  0.60657  1.0000
  H   H1398     1.0  0.79258  0.41877  0.57575  1.0000
  C   C1196     1.0  0.94942  0.37992  0.74956  1.0000
  H   H1399     1.0  0.76133  0.35176  0.68857  1.0000
  H   H1400     1.0  0.92017  0.30991  0.61797  1.0000
  N   N77       1.0  0.79870  0.43825  0.60606  1.0000
  C   C1197     1.0  0.82047  0.43324  0.60363  1.0000
  C   C1198     1.0  0.78779  0.42027  0.59424  1.0000
  C   C1199     1.0  0.79439  0.46109  0.59640  1.0000
  H   H1401     1.0  0.82881  0.46452  0.93133  1.0000
  H   H1402     1.0  0.94299  0.39782  0.68290  1.0000
  H   H1403     1.0  0.82547  0.43478  0.58516  1.0000
  H   H1404     1.0  0.75856  0.04265  0.54349  1.0000
  H   H1405     1.0  0.79090  0.40344  0.60254  1.0000
  H   H1406     1.0  0.77745  0.15952  0.53581  1.0000
  C   C1200     1.0  0.97841  0.27511  0.57570  1.0000
  H   H1407     1.0  0.82184  0.37365  0.84571  1.0000
  H   H1408     1.0  0.79550  0.41965  0.63859  1.0000
  H   H1409     1.0  0.99048  0.31058  0.54969  1.0000
  H   H1410     1.0  0.98166  0.43846  0.92550  1.0000
  C   C1201     1.0  0.92169  0.39506  0.78275  1.0000
  H   H1411     1.0  0.84046  0.45311  0.96796  1.0000
  C   C1202     1.0  0.93173  0.31614  0.60628  1.0000
  H   H1412     1.0  0.80227  0.44798  0.64193  1.0000
  N   N78       1.0  0.95220  0.47103  0.93784  1.0000
  C   C1203     1.0  0.76646  0.16819  0.52400  1.0000
  H   H1413     1.0  0.93449  0.44638  0.95602  1.0000
  C   C1204     1.0  0.77996  0.01929  0.51067  1.0000
  H   H1414     1.0  0.94287  0.36281  0.57438  1.0000
  C   C1205     1.0  0.92938  0.33739  0.59598  1.0000
  H   H1415     1.0  0.75411  0.33511  0.61693  1.0000
  C   C1206     1.0  0.79310  0.43694  0.63112  1.0000
  N   N79       1.0  0.92944  0.39977  0.71716  1.0000
  C   C1207     1.0  0.75480  0.37972  0.91888  1.0000
  H   H1416     1.0  0.82967  0.44484  0.61377  1.0000
  H   H1417     1.0  0.97341  0.34138  0.56709  1.0000
  C   C1208     1.0  0.75546  0.39089  0.89736  1.0000
  C   C1209     1.0  0.78056  0.48683  0.56624  1.0000
  H   H1418     1.0  0.97979  0.39423  0.59982  1.0000
  H   H1419     1.0  0.86188  0.47096  0.96828  1.0000
  C   C1210     1.0  0.99174  0.38490  0.92713  1.0000
  C   C1211     1.0  0.94446  0.34591  0.58162  1.0000
  H   H1420     1.0  0.83590  0.49390  0.54367  1.0000
  H   H1421     1.0  0.90624  0.41134  0.75476  1.0000
  C   C1212     1.0  0.92698  0.42451  0.71415  1.0000
  H   H1422     1.0  0.93228  0.47406  0.96763  1.0000
  H   H1423     1.0  0.80276  0.35552  0.85748  1.0000
  C   C1213     1.0  0.93297  0.39374  0.74195  1.0000
  C   C1214     1.0  0.82754  0.37058  0.89056  1.0000
  H   H1424     1.0  0.96438  0.48356  0.98107  1.0000
  C   C1215     1.0  0.98370  0.44621  0.94210  1.0000
  C   C1216     1.0  0.96483  0.31140  0.58760  1.0000
  C   C1217     1.0  0.98536  0.36386  0.62005  1.0000
  C   C1218     1.0  0.95184  0.37405  0.77312  1.0000
  H   H1425     1.0  0.95047  0.28714  0.61105  1.0000
  N   N80       1.0  0.98338  0.29770  0.58412  1.0000
  N   N81       1.0  0.81028  0.38277  0.87950  1.0000
  C   C1219     1.0  0.80761  0.37327  0.85610  1.0000
  C   C1220     1.0  0.81580  0.40664  0.87663  1.0000
  C   C1221     1.0  0.79136  0.38124  0.89314  1.0000
  C   C1222     1.0  0.77340  0.39163  0.88459  1.0000
  C   C1223     1.0  0.79018  0.37007  0.91524  1.0000
  C   C1224     1.0  0.97422  0.47116  0.97320  1.0000
  H   H1426     1.0  0.79630  0.38286  0.84557  1.0000
  H   H1427     1.0  0.81751  0.41449  0.89388  1.0000
  H   H1428     1.0  0.80442  0.41676  0.86676  1.0000
  H   H1429     1.0  0.77319  0.40078  0.86816  1.0000
  H   H1430     1.0  0.76577  0.12279  0.52347  1.0000
  C   C1225     1.0  0.80248  0.48014  0.60707  1.0000
  H   H1431     1.0  0.82453  0.35239  0.89310  1.0000
  H   H1432     1.0  0.77673  0.45170  0.56610  1.0000
  H   H1433     1.0  0.85051  0.48136  0.92683  1.0000
  H   H1434     1.0  0.93990  0.43335  0.72160  1.0000
  H   H1435     1.0  0.80308  0.36232  0.92364  1.0000
  H   H1436     1.0  0.84347  0.47181  0.99119  1.0000
  H   H1437     1.0  0.98466  0.28695  0.62034  1.0000
  H   H1438     1.0  0.90773  0.39295  0.69094  1.0000
  C   C1226     1.0  0.84688  0.48569  0.57822  1.0000
  C   C1227     1.0  0.78323  0.46509  0.57565  1.0000
  H   H1439     1.0  0.94749  0.37378  0.70093  1.0000
  H   H1440     1.0  0.77705  0.44175  0.63380  1.0000
  H   H1441     1.0  0.84142  0.37178  0.87967  1.0000
  H   H1442     1.0  0.93712  0.46842  0.90481  1.0000
  H   H1443     1.0  0.93979  0.37688  0.80788  1.0000
  H   H1444     1.0  0.96935  0.27645  0.55952  1.0000
  C   C1228     1.0  0.96202  0.33328  0.57754  1.0000
  H   H1445     1.0  0.96993  0.26506  0.58880  1.0000
  H   H1446     1.0  0.91190  0.37045  0.71162  1.0000
  C   C1229     1.0  0.93799  0.38159  0.78967  1.0000
  C   C1230     1.0  0.85247  0.49393  0.59983  1.0000
  H   H1447     1.0  0.82437  0.41593  0.60991  1.0000
  H   H1448     1.0  0.96387  0.46540  0.90324  1.0000
  C   C1231     1.0  0.91922  0.40108  0.75930  1.0000
  H   H1449     1.0  0.96444  0.36345  0.77858  1.0000
  H   H1450     1.0  0.92574  0.42969  0.69546  1.0000
  H   H1451     1.0  0.91302  0.43115  0.72251  1.0000
  H   H1452     1.0  0.77126  0.42319  0.59515  1.0000
  H   H1453     1.0  0.91076  0.40076  0.79557  1.0000
  H   H1454     1.0  0.89738  0.39488  0.71953  1.0000
  H   H1455     1.0  0.76999  0.39189  0.98951  1.0000
  H   H1456     1.0  0.96052  0.39967  0.70616  1.0000
  H   H1457     1.0  0.78238  0.01823  0.52922  1.0000
  H   H1458     1.0  0.98563  0.33487  0.64309  1.0000
  H   H1459     1.0  0.98765  0.04292  0.51257  1.0000
  H   H1460     1.0  0.75422  0.00183  0.54408  1.0000
  C   C1232     1.0  0.95054  0.46152  0.91426  1.0000
  H   H1461     1.0  0.92013  0.46774  0.94102  1.0000
  C   C1233     1.0  0.97022  0.46294  0.95073  1.0000
  H   H1462     1.0  0.80226  0.16126  0.50928  1.0000
  H   H1463     1.0  0.77157  0.36117  0.94482  1.0000
  H   H1464     1.0  0.99224  0.26492  0.57178  1.0000
  C   C1234     1.0  0.83486  0.48160  0.93379  1.0000
  H   H1465     1.0  0.82565  0.49336  0.92273  1.0000
  H   H1466     1.0  0.89240  0.49267  0.94559  1.0000
  N   N82       1.0  0.83429  0.48798  0.95864  1.0000
  H   H1467     1.0  0.75323  0.17242  0.53526  1.0000
  C   C1235     1.0  0.75352  0.13237  0.51439  1.0000
  C   C1236     1.0  0.81300  0.48806  0.96635  1.0000
  N   N83       1.0  0.76082  0.15381  0.50437  1.0000
  C   C1237     1.0  0.95243  0.49587  0.93490  1.0000
  H   H1468     1.0  0.77232  0.08717  0.50329  1.0000
  H   H1469     1.0  0.81132  0.49110  0.98527  1.0000
  C   C1238     1.0  0.99064  0.46312  0.98619  1.0000
  H   H1470     1.0  0.81178  0.01622  0.50361  1.0000
  S   S323      1.0  0.92771  0.85007  0.47471  1.0000
  S   S324      1.0  0.91519  0.66392  0.01738  1.0000
  S   S325      1.0  0.97238  0.85183  0.44930  1.0000
  Fe  Fe161     1.0  0.94855  0.87672  0.46106  1.0000
  S   S326      1.0  0.94180  0.90336  0.43282  1.0000
  Fe  Fe162     1.0  0.95234  0.82540  0.46470  1.0000
  S   S327      1.0  0.94140  0.79236  0.45011  1.0000
  C   C1239     1.0  0.86450  0.92231  0.11910  1.0000
  S   S328      1.0  0.86535  0.63316  0.47934  1.0000
  Fe  Fe163     1.0  0.93829  0.67350  0.31105  1.0000
  S   S329      1.0  0.94537  0.64029  0.32909  1.0000
  S   S330      1.0  0.92512  0.67093  0.27411  1.0000
  Fe  Fe164     1.0  0.95579  0.69876  0.35238  1.0000
  S   S331      1.0  0.96276  0.66684  0.37282  1.0000
  S   S332      1.0  0.96787  0.73260  0.36350  1.0000
  Fe  Fe165     1.0  0.97546  0.65387  0.33885  1.0000
  Fe  Fe166     1.0  0.93218  0.65598  0.36133  1.0000
  S   S333      1.0  0.90783  0.63427  0.37873  1.0000
  S   S334      1.0  0.96930  0.68608  0.31873  1.0000
  S   S335      1.0  0.92430  0.68894  0.34294  1.0000
  H   H1471     1.0  0.93805  0.67294  0.06711  1.0000
  H   H1472     1.0  0.97630  0.64129  0.03628  1.0000
  C   C1240     1.0  0.92086  0.65961  0.12085  1.0000
  H   H1473     1.0  0.91894  0.60859  0.44982  1.0000
  Fe  Fe167     1.0  0.84409  0.66966  0.12899  1.0000
  S   S336      1.0  0.85093  0.70424  0.14164  1.0000
  S   S337      1.0  0.86600  0.64564  0.11108  1.0000
  Fe  Fe168     1.0  0.80236  0.66794  0.15262  1.0000
  S   S338      1.0  0.80638  0.70235  0.16707  1.0000
  S   S339      1.0  0.77758  0.64265  0.16271  1.0000
  Fe  Fe169     1.0  0.81886  0.71280  0.13181  1.0000
  S   S340      1.0  0.80615  0.74586  0.11534  1.0000
  Fe  Fe170     1.0  0.83828  0.69204  0.17616  1.0000
  S   S341      1.0  0.84918  0.70311  0.21209  1.0000
  S   S342      1.0  0.81283  0.67870  0.11668  1.0000
  S   S343      1.0  0.83349  0.65699  0.16419  1.0000
  Fe  Fe171     1.0  0.82384  0.86651  0.04598  1.0000
  S   S344      1.0  0.84894  0.88629  0.02911  1.0000
  S   S345      1.0  0.83507  0.84142  0.07458  1.0000
  C   C1241     1.0  0.90595  0.54615  0.46098  1.0000
  C   C1242     1.0  0.84346  0.88858  0.12436  1.0000
  H   H1474     1.0  0.91340  0.68521  0.09537  1.0000
  Fe  Fe172     1.0  0.82889  0.91700  0.03453  1.0000
  S   S346      1.0  0.84352  0.94972  0.04702  1.0000
  C   C1243     1.0  0.87813  0.93609  0.10649  1.0000
  S   S347      1.0  0.80434  0.89741  0.05248  1.0000
  C   C1244     1.0  0.92318  0.57476  0.43841  1.0000
  C   C1245     1.0  0.84407  0.96888  0.07083  1.0000
  C   C1246     1.0  0.85794  0.98647  0.07013  1.0000
  C   C1247     1.0  0.83133  0.96715  0.09030  1.0000
  H   H1475     1.0  0.93932  0.98150  0.48073  1.0000
  H   H1476     1.0  0.82034  0.95408  0.09119  1.0000
  C   C1248     1.0  0.81522  0.77128  0.10202  1.0000
  C   C1249     1.0  0.83522  0.77789  0.10366  1.0000
  C   C1250     1.0  0.84113  0.79903  0.09449  1.0000
  C   C1251     1.0  0.82734  0.81372  0.08306  1.0000
  C   C1252     1.0  0.80751  0.80682  0.08081  1.0000
  C   C1253     1.0  0.80151  0.78589  0.09039  1.0000
  H   H1477     1.0  0.84606  0.76693  0.11232  1.0000
  H   H1478     1.0  0.85649  0.80410  0.09647  1.0000
  H   H1479     1.0  0.79661  0.81788  0.07233  1.0000
  H   H1480     1.0  0.78601  0.78107  0.08896  1.0000
  C   C1254     1.0  0.90045  0.65790  0.04245  1.0000
  C   C1255     1.0  0.88826  0.67507  0.05179  1.0000
  C   C1256     1.0  0.87714  0.67141  0.07243  1.0000
  C   C1257     1.0  0.87837  0.65058  0.08410  1.0000
  C   C1258     1.0  0.89042  0.63333  0.07463  1.0000
  C   C1259     1.0  0.90131  0.63690  0.05380  1.0000
  H   H1481     1.0  0.88750  0.69136  0.04310  1.0000
  H   H1482     1.0  0.86792  0.68479  0.07954  1.0000
  H   H1483     1.0  0.89144  0.61719  0.08357  1.0000
  H   H1484     1.0  0.91053  0.62354  0.04672  1.0000
  C   C1260     1.0  0.90398  0.68056  0.25720  1.0000
  C   C1261     1.0  0.90207  0.67302  0.23426  1.0000
  C   C1262     1.0  0.88554  0.67972  0.22022  1.0000
  C   C1263     1.0  0.87058  0.69418  0.22891  1.0000
  C   C1264     1.0  0.87256  0.70190  0.25178  1.0000
  C   C1265     1.0  0.88908  0.69517  0.26583  1.0000
  H   H1485     1.0  0.91346  0.66179  0.22729  1.0000
  H   H1486     1.0  0.88437  0.67362  0.20271  1.0000
  H   H1487     1.0  0.86117  0.71313  0.25874  1.0000
  H   H1488     1.0  0.89033  0.70142  0.28325  1.0000
  C   C1266     1.0  0.87619  0.63389  0.45083  1.0000
  C   C1267     1.0  0.87028  0.61952  0.43334  1.0000
  C   C1268     1.0  0.88009  0.61997  0.41144  1.0000
  C   C1269     1.0  0.89581  0.63488  0.40660  1.0000
  C   C1270     1.0  0.90160  0.64938  0.42403  1.0000
  C   C1271     1.0  0.89192  0.64878  0.44600  1.0000
  H   H1489     1.0  0.85834  0.60786  0.43676  1.0000
  H   H1490     1.0  0.87552  0.60859  0.39818  1.0000
  H   H1491     1.0  0.91366  0.66091  0.42068  1.0000
  H   H1492     1.0  0.89672  0.65990  0.45940  1.0000
  C   C1272     1.0  0.94954  0.77580  0.42627  1.0000
  C   C1273     1.0  0.96514  0.78225  0.41130  1.0000
  C   C1274     1.0  0.97070  0.76869  0.39237  1.0000
  C   C1275     1.0  0.96079  0.74854  0.38819  1.0000
  C   C1276     1.0  0.94528  0.74204  0.40324  1.0000
  C   C1277     1.0  0.93968  0.75563  0.42211  1.0000
  H   H1493     1.0  0.83893  0.87262  0.11629  1.0000
  S   S348      1.0  0.96736  0.82659  0.49952  1.0000
  H   H1494     1.0  0.93747  0.72664  0.40026  1.0000
  H   H1495     1.0  0.92759  0.75047  0.43358  1.0000
  C   C1278     1.0  0.92311  0.92498  0.43303  1.0000
  C   C1279     1.0  0.90901  0.92684  0.45105  1.0000
  C   C1280     1.0  0.89439  0.94430  0.45040  1.0000
  C   C1281     1.0  0.89392  0.96027  0.43199  1.0000
  C   C1282     1.0  0.90796  0.95833  0.41391  1.0000
  C   C1283     1.0  0.92247  0.94075  0.41444  1.0000
  H   H1496     1.0  0.90924  0.91474  0.46538  1.0000
  H   H1497     1.0  0.88344  0.94552  0.46435  1.0000
  H   H1498     1.0  0.90746  0.97017  0.39937  1.0000
  H   H1499     1.0  0.93322  0.93934  0.40033  1.0000
  C   C1284     1.0  0.90290  0.58514  0.47178  1.0000
  H   H1500     1.0  0.93263  0.57962  0.42377  1.0000
  H   H1501     1.0  0.86787  0.98817  0.05523  1.0000
  H   H1502     1.0  0.90906  0.66480  0.13281  1.0000
  N   N84       1.0  0.85814  0.90076  0.10944  1.0000
  S   S349      1.0  0.94774  0.60535  0.00732  1.0000
  H   H1503     1.0  0.75264  0.60553  0.17543  1.0000
  H   H1504     1.0  0.81361  0.84239  0.12540  1.0000
  H   H1505     1.0  0.74612  0.59348  0.42101  1.0000
  N   N85       1.0  0.96503  0.63572  0.07129  1.0000
  C   C1285     1.0  0.75314  0.61639  0.10270  1.0000
  S   S350      1.0  0.75801  0.89155  0.00689  1.0000
  N   N86       1.0  0.92731  0.84330  0.38936  1.0000
  C   C1286     1.0  0.93122  0.83934  0.41447  1.0000
  C   C1287     1.0  0.94217  0.85980  0.38065  1.0000
  C   C1288     1.0  0.90704  0.85378  0.38674  1.0000
  C   C1289     1.0  0.92827  0.82162  0.37722  1.0000
  C   C1290     1.0  0.94192  0.81725  0.35861  1.0000
  C   C1291     1.0  0.91548  0.80390  0.38423  1.0000
  C   C1292     1.0  0.94268  0.79635  0.34795  1.0000
  C   C1293     1.0  0.91638  0.78311  0.37344  1.0000
  C   C1294     1.0  0.92995  0.77934  0.35534  1.0000
  H   H1506     1.0  0.94572  0.83006  0.41708  1.0000
  H   H1507     1.0  0.93186  0.85539  0.42395  1.0000
  H   H1508     1.0  0.91946  0.82924  0.42334  1.0000
  H   H1509     1.0  0.95784  0.85329  0.38307  1.0000
  H   H1510     1.0  0.94111  0.87581  0.39034  1.0000
  H   H1511     1.0  0.93975  0.86433  0.36199  1.0000
  H   H1512     1.0  0.89515  0.84327  0.39479  1.0000
  H   H1513     1.0  0.90599  0.87036  0.39539  1.0000
  H   H1514     1.0  0.90326  0.85652  0.36805  1.0000
  H   H1515     1.0  0.95245  0.82949  0.35225  1.0000
  H   H1516     1.0  0.90506  0.80575  0.39859  1.0000
  H   H1517     1.0  0.95356  0.79303  0.33426  1.0000
  H   H1518     1.0  0.91629  0.98498  0.46515  1.0000
  H   H1519     1.0  0.87147  0.86910  0.09922  1.0000
  S   S351      1.0  0.80947  0.86032  0.01153  1.0000
  H   H1520     1.0  0.78262  0.61195  0.11725  1.0000
  H   H1521     1.0  0.88139  0.71394  0.49236  1.0000
  C   C1295     1.0  0.86349  0.95105  0.14916  1.0000
  C   C1296     1.0  0.93294  0.98386  0.46300  1.0000
  C   C1297     1.0  0.87587  0.88564  0.10616  1.0000
  H   H1522     1.0  0.96905  0.66627  0.05092  1.0000
  C   C1298     1.0  0.93767  0.66375  0.08352  1.0000
  H   H1523     1.0  0.84986  0.88402  0.14169  1.0000
  Fe  Fe173     1.0  0.79174  0.89272  0.01623  1.0000
  H   H1524     1.0  0.88391  0.88251  0.12285  1.0000
  H   H1525     1.0  0.84272  0.88925  0.07930  1.0000
  H   H1526     1.0  0.85754  0.95729  0.16546  1.0000
  H   H1527     1.0  0.85919  0.91177  0.07329  1.0000
  H   H1528     1.0  0.93109  0.76294  0.34754  1.0000
  H   H1529     1.0  0.88383  0.93137  0.08959  1.0000
  H   H1530     1.0  0.92459  0.53965  0.43088  1.0000
  H   H1531     1.0  0.77786  0.57198  0.12780  1.0000
  C   C1299     1.0  0.94783  0.63381  0.11042  1.0000
  H   H1532     1.0  0.89411  0.96720  0.10478  1.0000
  H   H1533     1.0  0.75327  0.67194  0.47572  1.0000
  S   S352      1.0  0.80781  0.63410  0.49490  1.0000
  H   H1534     1.0  0.97292  0.79766  0.41427  1.0000
  H   H1535     1.0  0.84681  0.92134  0.15159  1.0000
  C   C1300     1.0  0.87685  0.96411  0.13631  1.0000
  C   C1301     1.0  0.96046  0.61204  0.06631  1.0000
  N   N87       1.0  0.82977  0.76993  0.18084  1.0000
  C   C1302     1.0  0.83962  0.77594  0.20286  1.0000
  C   C1303     1.0  0.81199  0.75642  0.18718  1.0000
  C   C1304     1.0  0.84375  0.75540  0.16746  1.0000
  C   C1305     1.0  0.82477  0.79035  0.16668  1.0000
  C   C1306     1.0  0.83993  0.80584  0.16054  1.0000
  C   C1307     1.0  0.80529  0.79482  0.15745  1.0000
  C   C1308     1.0  0.83584  0.82460  0.14614  1.0000
  C   C1309     1.0  0.80137  0.81366  0.14314  1.0000
  C   C1310     1.0  0.81659  0.82848  0.13746  1.0000
  H   H1536     1.0  0.83003  0.78786  0.21289  1.0000
  H   H1537     1.0  0.84263  0.76077  0.21420  1.0000
  H   H1538     1.0  0.85446  0.78367  0.19990  1.0000
  H   H1539     1.0  0.80075  0.76636  0.19724  1.0000
  H   H1540     1.0  0.81621  0.74131  0.19807  1.0000
  H   H1541     1.0  0.80462  0.74996  0.17140  1.0000
  H   H1542     1.0  0.85805  0.76378  0.16301  1.0000
  H   H1543     1.0  0.84780  0.73969  0.17738  1.0000
  H   H1544     1.0  0.83684  0.75053  0.15079  1.0000
  H   H1545     1.0  0.85525  0.80307  0.16609  1.0000
  H   H1546     1.0  0.79296  0.78359  0.16019  1.0000
  H   H1547     1.0  0.84785  0.83560  0.14083  1.0000
  H   H1548     1.0  0.78664  0.81621  0.13551  1.0000
  H   H1549     1.0  0.97070  0.60509  0.05270  1.0000
  N   N88       1.0  0.87811  0.63678  0.31259  1.0000
  C   C1311     1.0  0.86466  0.62543  0.32965  1.0000
  C   C1312     1.0  0.89700  0.62313  0.31134  1.0000
  C   C1313     1.0  0.88325  0.65901  0.32165  1.0000
  C   C1314     1.0  0.86792  0.63984  0.28987  1.0000
  C   C1315     1.0  0.84937  0.65196  0.28834  1.0000
  C   C1316     1.0  0.87611  0.63152  0.26873  1.0000
  C   C1317     1.0  0.83967  0.65554  0.26704  1.0000
  C   C1318     1.0  0.86613  0.63497  0.24758  1.0000
  C   C1319     1.0  0.84802  0.64703  0.24671  1.0000
  H   H1550     1.0  0.85974  0.60903  0.32306  1.0000
  H   H1551     1.0  0.87231  0.62216  0.34666  1.0000
  H   H1552     1.0  0.85103  0.63570  0.33368  1.0000
  H   H1553     1.0  0.89428  0.60603  0.30485  1.0000
  H   H1554     1.0  0.90410  0.62089  0.32877  1.0000
  H   H1555     1.0  0.90838  0.63140  0.29990  1.0000
  H   H1556     1.0  0.89356  0.66795  0.30944  1.0000
  H   H1557     1.0  0.86987  0.67008  0.32430  1.0000
  H   H1558     1.0  0.89089  0.65736  0.33878  1.0000
  H   H1559     1.0  0.84244  0.65919  0.30356  1.0000
  H   H1560     1.0  0.89048  0.62286  0.26789  1.0000
  H   H1561     1.0  0.82583  0.66541  0.26611  1.0000
  H   H1562     1.0  0.87289  0.62903  0.23157  1.0000
  H   H1563     1.0  0.84079  0.65043  0.23010  1.0000
  H   H1564     1.0  0.88681  0.89271  0.09341  1.0000
  H   H1565     1.0  0.83582  0.91720  0.08783  1.0000
  H   H1566     1.0  0.96910  0.96943  0.46197  1.0000
  H   H1567     1.0  0.95694  0.61930  0.11539  1.0000
  H   H1568     1.0  0.77100  0.66356  0.49769  1.0000
  H   H1569     1.0  0.88106  0.98042  0.14252  1.0000
  C   C1320     1.0  0.84859  0.90495  0.08654  1.0000
  H   H1570     1.0  0.82939  0.89874  0.12673  1.0000
  C   C1321     1.0  0.96511  0.64840  0.04874  1.0000
  H   H1571     1.0  0.93599  0.96840  0.45291  1.0000
  H   H1572     1.0  0.74624  0.62314  0.23556  1.0000
  H   H1573     1.0  0.96216  0.60073  0.08180  1.0000
  H   H1574     1.0  0.82277  0.98080  0.12360  1.0000
  C   C1322     1.0  0.95025  0.64463  0.08832  1.0000
  H   H1575     1.0  0.90700  0.76955  0.37966  1.0000
  C   C1323     1.0  0.88418  0.95663  0.11504  1.0000
  C   C1324     1.0  0.91855  0.55230  0.44241  1.0000
  H   H1576     1.0  0.90256  0.52858  0.46317  1.0000
  S   S353      1.0  0.87550  0.98220  0.43242  1.0000
  C   C1325     1.0  0.83266  0.98251  0.10868  1.0000
  H   H1577     1.0  0.93118  0.63223  0.14279  1.0000
  H   H1578     1.0  0.98734  0.62584  0.09695  1.0000
  S   S354      1.0  0.82356  0.58280  0.48878  1.0000
  C   C1326     1.0  0.93322  0.64113  0.12631  1.0000
  H   H1579     1.0  0.94478  0.61063  0.06001  1.0000
  S   S355      1.0  0.76996  0.59762  0.46216  1.0000
  H   H1580     1.0  0.98267  0.77394  0.38079  1.0000
  S   S356      1.0  0.96302  0.88188  0.49584  1.0000
  C   C1327     1.0  0.92331  0.67108  0.09969  1.0000
  C   C1328     1.0  0.85736  0.93040  0.14083  1.0000
  H   H1581     1.0  0.95027  0.64777  0.04007  1.0000
  C   C1329     1.0  0.76583  0.58146  0.11929  1.0000
  C   C1330     1.0  0.76861  0.60394  0.11323  1.0000
  C   C1331     1.0  0.75831  0.65758  0.48708  1.0000
  C   C1332     1.0  0.75170  0.63744  0.15700  1.0000
  Fe  Fe174     1.0  0.79336  0.60049  0.49136  1.0000
  Fe  Fe175     1.0  0.83762  0.61609  0.49504  1.0000
  H   H1582     1.0  0.89731  0.59880  0.48221  1.0000
  C   C1333     1.0  0.97524  0.98459  0.45439  1.0000
  C   C1334     1.0  0.98557  0.63652  0.08097  1.0000
  H   H1583     1.0  0.98940  0.65399  0.08547  1.0000
  H   H1584     1.0  0.76476  0.64413  0.47592  1.0000
  C   C1335     1.0  0.91547  0.59108  0.45314  1.0000
  Fe  Fe176     1.0  0.98542  0.85534  0.48508  1.0000
  H   H1585     1.0  0.75528  0.63405  0.09860  1.0000
  H   H1586     1.0  0.85595  0.54370  0.00807  1.0000
  C   C1336     1.0  0.86569  0.54507  0.48434  1.0000
  C   C1337     1.0  0.74751  0.57136  0.11490  1.0000
  H   H1587     1.0  0.85961  0.68125  0.49896  1.0000
  C   C1338     1.0  0.89755  0.56242  0.47612  1.0000
  H   H1588     1.0  0.75178  0.65605  0.20956  1.0000
  H   H1589     1.0  0.85860  0.55653  0.47105  1.0000
  H   H1590     1.0  0.93652  0.99202  0.41636  1.0000
  H   H1591     1.0  0.86962  0.52908  0.47568  1.0000
  H   H1592     1.0  0.74600  0.55397  0.12022  1.0000
  N   N89       1.0  0.88336  0.55559  0.49483  1.0000
  H   H1593     1.0  0.86761  0.58736  0.49807  1.0000
  H   H1594     1.0  0.85400  0.54095  0.49765  1.0000
  H   H1595     1.0  0.87630  0.84044  0.79593  1.0000
  C   C1339     1.0  0.81965  0.81554  0.72017  1.0000
  S   S357      1.0  0.93305  0.85078  0.54620  1.0000
  H   H1596     1.0  0.78234  0.74864  0.66725  1.0000
  H   H1597     1.0  0.88827  0.58305  0.51792  1.0000
  Fe  Fe177     1.0  0.80502  0.80524  0.65364  1.0000
  S   S358      1.0  0.82062  0.77689  0.67400  1.0000
  S   S359      1.0  0.77677  0.81998  0.67205  1.0000
  Fe  Fe178     1.0  0.83885  0.80483  0.61658  1.0000
  S   S360      1.0  0.85639  0.77749  0.63515  1.0000
  S   S361      1.0  0.84760  0.81548  0.57968  1.0000
  Fe  Fe179     1.0  0.82643  0.76089  0.63908  1.0000
  S   S362      1.0  0.82477  0.72306  0.63236  1.0000
  Fe  Fe180     1.0  0.84923  0.79586  0.66836  1.0000
  S   S363      1.0  0.87369  0.80574  0.69463  1.0000
  S   S364      1.0  0.80897  0.78762  0.61942  1.0000
  S   S365      1.0  0.83353  0.82469  0.64905  1.0000
  H   H1598     1.0  0.80899  0.81399  0.70550  1.0000
  H   H1599     1.0  0.81816  0.85018  0.68982  1.0000
  Fe  Fe181     1.0  0.80702  0.62777  0.53363  1.0000
  S   S366      1.0  0.83778  0.61109  0.53418  1.0000
  S   S367      1.0  0.79443  0.65951  0.55140  1.0000
  H   H1600     1.0  0.84357  0.84279  0.69655  1.0000
  Fe  Fe182     1.0  0.82188  0.57847  0.52805  1.0000
  S   S368      1.0  0.83015  0.54190  0.53978  1.0000
  C   C1340     1.0  0.79526  0.86851  0.91808  1.0000
  S   S369      1.0  0.79079  0.59475  0.53018  1.0000
  Fe  Fe183     1.0  0.95433  0.63838  0.94948  1.0000
  S   S370      1.0  0.95170  0.65863  0.91513  1.0000
  Fe  Fe184     1.0  0.94000  0.59385  0.97151  1.0000
  S   S371      1.0  0.92837  0.55791  0.97280  1.0000
  C   C1341     1.0  0.87585  0.57461  0.50898  1.0000
  S   S372      1.0  0.92422  0.62670  0.96261  1.0000
  S   S373      1.0  0.96963  0.60421  0.95590  1.0000
  H   H1601     1.0  0.84959  0.52012  0.92636  1.0000
  S   S374      1.0  0.84368  0.86941  0.95890  1.0000
  Fe  Fe185     1.0  0.93195  0.80854  0.82473  1.0000
  S   S375      1.0  0.93939  0.84365  0.83597  1.0000
  S   S376      1.0  0.90712  0.79682  0.79983  1.0000
  Fe  Fe186     1.0  0.96014  0.78681  0.86127  1.0000
  S   S377      1.0  0.96961  0.82030  0.87409  1.0000
  S   S378      1.0  0.97515  0.75681  0.88014  1.0000
  Fe  Fe187     1.0  0.93677  0.83012  0.87296  1.0000
  S   S379      1.0  0.92728  0.84757  0.90677  1.0000
  Fe  Fe188     1.0  0.97207  0.83157  0.83667  1.0000
  S   S380      1.0  0.92737  0.79596  0.86209  1.0000
  S   S381      1.0  0.96462  0.79714  0.82346  1.0000
  C   C1342     1.0  0.86720  0.86275  0.94522  1.0000
  C   C1343     1.0  0.86722  0.85316  0.92301  1.0000
  C   C1344     1.0  0.88536  0.84813  0.91109  1.0000
  C   C1345     1.0  0.90381  0.85283  0.92116  1.0000
  C   C1346     1.0  0.90382  0.86220  0.94346  1.0000
  C   C1347     1.0  0.88568  0.86706  0.95545  1.0000
  H   H1602     1.0  0.85307  0.84973  0.91486  1.0000
  H   H1603     1.0  0.88501  0.84098  0.89397  1.0000
  H   H1604     1.0  0.91795  0.86593  0.95150  1.0000
  H   H1605     1.0  0.88598  0.87446  0.97247  1.0000
  C   C1348     1.0  0.95664  0.68757  0.90997  1.0000
  C   C1349     1.0  0.94258  0.70120  0.89770  1.0000
  C   C1350     1.0  0.94751  0.72297  0.88955  1.0000
  C   C1351     1.0  0.96686  0.73101  0.89281  1.0000
  C   C1352     1.0  0.98064  0.71770  0.90575  1.0000
  C   C1353     1.0  0.97553  0.69623  0.91446  1.0000
  H   H1606     1.0  0.92802  0.69456  0.89385  1.0000
  H   H1607     1.0  0.93660  0.73304  0.87997  1.0000
  C   C1354     1.0  0.87041  0.85034  0.76038  1.0000
  H   H1608     1.0  0.76005  0.93114  0.97475  1.0000
  C   C1355     1.0  0.88300  0.80233  0.72385  1.0000
  C   C1356     1.0  0.90063  0.81341  0.73006  1.0000
  C   C1357     1.0  0.90837  0.81179  0.75296  1.0000
  C   C1358     1.0  0.89856  0.79904  0.77021  1.0000
  C   C1359     1.0  0.88103  0.78781  0.76397  1.0000
  C   C1360     1.0  0.87330  0.78941  0.74106  1.0000
  H   H1609     1.0  0.90835  0.82344  0.71702  1.0000
  H   H1610     1.0  0.92184  0.82056  0.75727  1.0000
  H   H1611     1.0  0.87322  0.77791  0.77703  1.0000
  H   H1612     1.0  0.85982  0.78067  0.73677  1.0000
  C   C1361     1.0  0.81722  0.70629  0.60861  1.0000
  C   C1362     1.0  0.80367  0.71417  0.59163  1.0000
  C   C1363     1.0  0.79713  0.69974  0.57415  1.0000
  C   C1364     1.0  0.80440  0.67739  0.57290  1.0000
  C   C1365     1.0  0.81841  0.66973  0.58945  1.0000
  C   C1366     1.0  0.82453  0.68398  0.60731  1.0000
  H   H1613     1.0  0.79799  0.73127  0.59211  1.0000
  H   H1614     1.0  0.78632  0.70592  0.56147  1.0000
  H   H1615     1.0  0.82406  0.65258  0.58895  1.0000
  H   H1616     1.0  0.83494  0.67757  0.62034  1.0000
  C   C1367     1.0  0.90951  0.83998  0.55508  1.0000
  C   C1368     1.0  0.90550  0.83668  0.57897  1.0000
  C   C1369     1.0  0.88675  0.82883  0.58679  1.0000
  C   C1370     1.0  0.87172  0.82452  0.57076  1.0000
  C   C1371     1.0  0.87580  0.82755  0.54686  1.0000
  C   C1372     1.0  0.89464  0.83511  0.53902  1.0000
  H   H1617     1.0  0.91690  0.84041  0.59153  1.0000
  H   H1618     1.0  0.88382  0.82657  0.60523  1.0000
  H   H1619     1.0  0.86426  0.82428  0.53432  1.0000
  H   H1620     1.0  0.89750  0.83762  0.52060  1.0000
  C   C1373     1.0  0.83906  0.52403  0.56329  1.0000
  C   C1374     1.0  0.84484  0.53229  0.58481  1.0000
  H   H1621     1.0  0.84409  0.55017  0.58765  1.0000
  C   C1375     1.0  0.89684  0.51665  0.91761  1.0000
  C   C1376     1.0  0.90421  0.53798  0.91167  1.0000
  C   C1377     1.0  0.91376  0.55099  0.92836  1.0000
  C   C1378     1.0  0.91591  0.54279  0.95121  1.0000
  C   C1379     1.0  0.90830  0.52157  0.95721  1.0000
  C   C1380     1.0  0.76626  0.74136  0.62710  1.0000
  H   H1622     1.0  0.90258  0.54448  0.89403  1.0000
  H   H1623     1.0  0.91949  0.56732  0.92353  1.0000
  H   H1624     1.0  0.90960  0.51527  0.97495  1.0000
  C   C1381     1.0  0.75432  0.83513  0.66337  1.0000
  H   H1625     1.0  0.84117  0.70647  0.56481  1.0000
  C   C1382     1.0  0.84029  0.50061  0.56015  1.0000
  C   C1383     1.0  0.85011  0.70877  0.54925  1.0000
  C   C1384     1.0  0.77024  0.76108  0.66248  1.0000
  C   C1385     1.0  0.93344  0.71925  0.95820  1.0000
  N   N90       1.0  0.94134  0.72986  0.81165  1.0000
  C   C1386     1.0  0.93562  0.74643  0.82945  1.0000
  C   C1387     1.0  0.95844  0.73870  0.79775  1.0000
  C   C1388     1.0  0.92406  0.72802  0.79562  1.0000
  C   C1389     1.0  0.94716  0.70841  0.82357  1.0000
  C   C1390     1.0  0.93523  0.68890  0.82290  1.0000
  C   C1391     1.0  0.96457  0.70704  0.83770  1.0000
  H   H1626     1.0  0.83953  0.50828  0.00059  1.0000
  H   H1627     1.0  0.78162  0.89930  0.96475  1.0000
  C   C1392     1.0  0.84496  0.51799  0.98583  1.0000
  H   H1628     1.0  0.94827  0.74985  0.84125  1.0000
  H   H1629     1.0  0.93083  0.76277  0.82134  1.0000
  H   H1630     1.0  0.92293  0.74038  0.84045  1.0000
  C   C1393     1.0  0.74976  0.63003  0.51626  1.0000
  H   H1631     1.0  0.95406  0.75415  0.78752  1.0000
  H   H1632     1.0  0.77752  0.72835  0.63304  1.0000
  H   H1633     1.0  0.92724  0.71546  0.78196  1.0000
  H   H1634     1.0  0.91007  0.72347  0.80516  1.0000
  H   H1635     1.0  0.92048  0.74437  0.78652  1.0000
  S   S382      1.0  0.88461  0.50107  0.89618  1.0000
  H   H1636     1.0  0.91070  0.79949  0.96776  1.0000
  C   C1394     1.0  0.96815  0.88316  0.87305  1.0000
  H   H1637     1.0  0.78041  0.83939  0.94963  1.0000
  H   H1638     1.0  0.99099  0.87106  0.92466  1.0000
  N   N91       1.0  0.78265  0.87416  0.93862  1.0000
  H   H1639     1.0  0.83938  0.67802  0.53511  1.0000
  C   C1395     1.0  0.98701  0.85018  0.58610  1.0000
  C   C1396     1.0  0.78546  0.85573  0.95622  1.0000
  H   H1640     1.0  0.89350  0.75635  0.55700  1.0000
  H   H1641     1.0  0.78950  0.85352  0.90929  1.0000
  H   H1642     1.0  0.93967  0.50233  0.92406  1.0000
  H   H1643     1.0  0.79618  0.84085  0.74716  1.0000
  H   H1644     1.0  0.90689  0.54613  0.51873  1.0000
  H   H1645     1.0  0.94427  0.70571  0.95524  1.0000
  H   H1646     1.0  0.96653  0.50140  0.92623  1.0000
  H   H1647     1.0  0.77744  0.77573  0.65381  1.0000
  H   H1648     1.0  0.95349  0.87487  0.87604  1.0000
  C   C1397     1.0  0.79949  0.50178  0.59768  1.0000
  C   C1398     1.0  0.87376  0.72921  0.52509  1.0000
  H   H1649     1.0  0.76059  0.83615  0.62660  1.0000
  C   C1399     1.0  0.96285  0.90131  0.90938  1.0000
  H   H1650     1.0  0.80156  0.85330  0.96101  1.0000
  H   H1651     1.0  0.83257  0.86895  0.70650  1.0000
  C   C1400     1.0  0.84307  0.51019  0.96279  1.0000
  H   H1652     1.0  0.80550  0.86763  0.73756  1.0000
  C   C1401     1.0  0.75004  0.84082  0.64012  1.0000
  C   C1402     1.0  0.85686  0.85005  0.74193  1.0000
  H   H1653     1.0  0.83819  0.76399  0.55234  1.0000
  C   C1403     1.0  0.75643  0.89463  0.91444  1.0000
  C   C1404     1.0  0.90288  0.73257  0.97638  1.0000
  H   H1654     1.0  0.76314  0.63491  0.52634  1.0000
  Fe  Fe189     1.0  0.93440  0.63887  0.99716  1.0000
  H   H1655     1.0  0.97742  0.87137  0.86260  1.0000
  H   H1656     1.0  0.93090  0.65493  0.83563  1.0000
  N   N92       1.0  0.97790  0.88874  0.89525  1.0000
  H   H1657     1.0  0.86515  0.56896  0.52283  1.0000
  C   C1405     1.0  0.85152  0.51737  0.60283  1.0000
  H   H1658     1.0  0.77724  0.85945  0.97271  1.0000
  S   S383      1.0  0.81511  0.91409  0.99867  1.0000
  C   C1406     1.0  0.84902  0.69234  0.53234  1.0000
  H   H1659     1.0  0.98965  0.88507  0.55497  1.0000
  H   H1660     1.0  0.91501  0.69896  0.98080  1.0000
  H   H1661     1.0  0.97395  0.72141  0.83998  1.0000
  H   H1662     1.0  0.89386  0.76642  0.96907  1.0000
  H   H1663     1.0  0.79583  0.88255  0.90506  1.0000
  C   C1407     1.0  0.86539  0.84095  0.78199  1.0000
  H   H1664     1.0  0.96940  0.85789  0.91277  1.0000
  H   H1665     1.0  0.74758  0.85260  0.95465  1.0000
  H   H1666     1.0  0.83400  0.80696  0.71518  1.0000
  H   H1667     1.0  0.96106  0.65405  0.86039  1.0000
  C   C1408     1.0  0.80349  0.84993  0.73241  1.0000
  N   N93       1.0  0.86368  0.74454  0.56475  1.0000
  C   C1409     1.0  0.84359  0.75510  0.56843  1.0000
  C   C1410     1.0  0.87022  0.73332  0.58684  1.0000
  C   C1411     1.0  0.87788  0.76291  0.55941  1.0000
  C   C1412     1.0  0.86257  0.72768  0.54624  1.0000
  H   H1668     1.0  0.96883  0.90528  0.92680  1.0000
  H   H1669     1.0  0.88292  0.53414  0.52562  1.0000
  H   H1670     1.0  0.98262  0.68712  0.86171  1.0000
  H   H1671     1.0  0.97117  0.74368  0.80877  1.0000
  C   C1413     1.0  0.89318  0.53906  0.51100  1.0000
  H   H1672     1.0  0.83217  0.74272  0.57376  1.0000
  H   H1673     1.0  0.84383  0.76768  0.58245  1.0000
  H   H1674     1.0  0.76362  0.76720  0.67902  1.0000
  H   H1675     1.0  0.76775  0.90519  0.90670  1.0000
  H   H1676     1.0  0.87264  0.74563  0.60077  1.0000
  H   H1677     1.0  0.88452  0.72366  0.58436  1.0000
  H   H1678     1.0  0.87331  0.77288  0.54361  1.0000
  H   H1679     1.0  0.87831  0.77522  0.57373  1.0000
  Fe  Fe190     1.0  0.83337  0.88183  0.99498  1.0000
  H   H1680     1.0  0.85583  0.52407  0.61937  1.0000
  C   C1414     1.0  0.85940  0.54476  0.94921  1.0000
  H   H1681     1.0  0.81881  0.82310  0.77043  1.0000
  C   C1415     1.0  0.95750  0.66882  0.84967  1.0000
  C   C1416     1.0  0.94041  0.66947  0.83585  1.0000
  C   C1417     1.0  0.99444  0.82836  0.55253  1.0000
  C   C1418     1.0  0.86034  0.69418  0.51195  1.0000
  C   C1419     1.0  0.85423  0.53828  0.99032  1.0000
  H   H1682     1.0  0.88526  0.85708  0.75764  1.0000
  N   N94       1.0  0.92383  0.78067  0.93940  1.0000
  C   C1420     1.0  0.94206  0.78268  0.92450  1.0000
  C   C1421     1.0  0.90617  0.78556  0.92439  1.0000
  C   C1422     1.0  0.92476  0.79817  0.95731  1.0000
  C   C1423     1.0  0.92186  0.75823  0.95079  1.0000
  C   C1424     1.0  0.93602  0.74034  0.94749  1.0000
  C   C1425     1.0  0.90522  0.75369  0.96565  1.0000
  H   H1683     1.0  0.78941  0.90963  0.93667  1.0000
  H   H1684     1.0  0.92163  0.68831  0.81289  1.0000
  H   H1685     1.0  0.89768  0.52326  0.50231  1.0000
  H   H1686     1.0  0.94192  0.77063  0.90999  1.0000
  H   H1687     1.0  0.94319  0.79973  0.91630  1.0000
  H   H1688     1.0  0.95607  0.77969  0.93464  1.0000
  H   H1689     1.0  0.90449  0.77229  0.91125  1.0000
  H   H1690     1.0  0.90753  0.80196  0.91482  1.0000
  H   H1691     1.0  0.89193  0.78669  0.93453  1.0000
  H   H1692     1.0  0.93734  0.79457  0.96957  1.0000
  H   H1693     1.0  0.92703  0.81517  0.94931  1.0000
  H   H1694     1.0  0.97812  0.82497  0.55069  1.0000
  H   H1695     1.0  0.94922  0.74205  0.93665  1.0000
  H   H1696     1.0  0.88356  0.74300  0.52110  1.0000
  Fe  Fe191     1.0  0.97684  0.61707  0.99151  1.0000
  C   C1426     1.0  0.98833  0.86792  0.54807  1.0000
  H   H1697     1.0  0.99419  0.83792  0.59852  1.0000
  H   H1698     1.0  0.78722  0.52185  0.56946  1.0000
  C   C1427     1.0  0.82969  0.85089  0.70373  1.0000
  C   C1428     1.0  0.83294  0.83115  0.76710  1.0000
  H   H1699     1.0  0.81327  0.80594  0.73516  1.0000
  H   H1700     1.0  0.85888  0.72151  0.59398  1.0000
  C   C1429     1.0  0.79027  0.89492  0.94883  1.0000
  H   H1701     1.0  0.80629  0.89289  0.95392  1.0000
  C   C1430     1.0  0.84669  0.83137  0.78535  1.0000
  H   H1702     1.0  0.86929  0.56697  0.97557  1.0000
  N   N95       1.0  0.82298  0.83937  0.72555  1.0000
  H   H1703     1.0  0.86216  0.85673  0.72544  1.0000
  C   C1431     1.0  0.76149  0.87782  0.93146  1.0000
  H   H1704     1.0  0.96423  0.72599  0.78533  1.0000
  H   H1705     1.0  0.97207  0.86507  0.54569  1.0000
  C   C1432     1.0  0.85026  0.52446  0.94449  1.0000
  H   H1706     1.0  0.79249  0.85000  0.71784  1.0000
  H   H1707     1.0  0.84307  0.82362  0.80206  1.0000
  C   C1433     1.0  0.83758  0.84051  0.74479  1.0000
  Fe  Fe192     1.0  0.94412  0.85282  0.50856  1.0000
  H   H1708     1.0  0.75601  0.73291  0.61503  1.0000
  H   H1709     1.0  0.98664  0.68585  0.92346  1.0000
  H   H1710     1.0  0.94908  0.89132  0.91264  1.0000
  C   C1434     1.0  0.78875  0.50511  0.57717  1.0000
  H   H1711     1.0  0.77489  0.75422  0.61715  1.0000
  C   C1435     1.0  0.91693  0.71537  0.97259  1.0000
  S   S384      1.0  0.96389  0.65189  0.98382  1.0000
  H   H1712     1.0  0.96538  0.89846  0.86199  1.0000
  H   H1713     1.0  0.80630  0.51596  0.60583  1.0000
  C   C1436     1.0  0.96967  0.68748  0.85037  1.0000
  H   H1714     1.0  0.95782  0.91713  0.90032  1.0000
  H   H1715     1.0  0.81115  0.86476  0.92313  1.0000
  H   H1716     1.0  0.86542  0.55501  0.93504  1.0000
  H   H1717     1.0  0.89009  0.72939  0.98770  1.0000
  H   H1718     1.0  0.99295  0.85621  0.89793  1.0000
  H   H1719     1.0  0.98886  0.93197  0.90926  1.0000
  C   C1437     1.0  0.86162  0.55152  0.97205  1.0000
  H   H1720     1.0  0.98663  0.86689  0.59426  1.0000
  C   C1438     1.0  0.89875  0.50860  0.94055  1.0000
  C   C1439     1.0  0.98305  0.86759  0.90820  1.0000
  H   H1721     1.0  0.97097  0.84549  0.58417  1.0000
  H   H1722     1.0  0.80409  0.50137  0.95691  1.0000
  C   C1440     1.0  0.87263  0.71260  0.50831  1.0000
  H   H1723     1.0  0.75438  0.61580  0.50504  1.0000
  H   H1724     1.0  0.74861  0.67391  0.52736  1.0000
  H   H1725     1.0  0.95098  0.50472  0.95167  1.0000
  N   N96       1.0  0.75516  0.75143  0.64696  1.0000
  H   H1726     1.0  0.75555  0.71906  0.66463  1.0000
  H   H1727     1.0  0.99537  0.86787  0.53052  1.0000
  H   H1728     1.0  0.99563  0.72372  0.90848  1.0000
