data_image0
_chemical_formula_structural       HSHFeSFeS2FeSFeS2FeS2CFeSC2SFeHSFeCFeS2FeCH2CH2CH2C3H2CSHC6H4C6H4C6H4C4SHCHCNH2CHCH2CH2NHCSH2FeCH6SHC2H5CHCNC8H12CNCHCHCSCHCH2C2H2CHSH2C2HSHCH2FeHCHSC4HC6NH8FeHCHCSCHSH4CHC2HCH2CH5C2SH3SH3CHS2H4SCH2C3HC2HCFeHSHSCSHFeNFeSHFeS2FeS2FeSFeS3CSFeSCH4CH3C6HFeH2CH2C6H4C6H3C7H4NC4SHCH6CHCHN2C9H14C3H2CHCHSHFeHCHCSCSH7SHCHCHNH2CSHC3HCH2CHSH2CH2C2NCH2CH4S2C3HCHC4HCHCH3CNCHCHCH2CH3SCH2C2H5NCH4FeS2FeSHSCSCHFeHSFeCSCH3S3H2CHC2HC6H4C6H4C2HC2SC4HCFeCHCHNHSNFeCHC2FeCH3C2SH2CH5CH4CHCH4C2H5C3H2C5FeCH2CH2FeCH2SCH2CHFeSCHFeS2HCSHSHSHFeSCSFeSHFeSFeSCHC4H2CHCSH6CHSHC4SCHCH3C6HCHC6H7CHCH3NH2SC2H4CH2CH4C5H2NCHNCHCHCH3CFeHC4NC5HCHCHCH2CHCFeHC2NH2C2SCHC2H2C2H2CHSCHFeSCFeS2FeHFeS5HNHCHC7H4CH2CH5C7H4CH2CH3FeH3C2HCNHCH4SH3CH2C3HFeSCNHCH2CH5SCH3CHCHSCH2C2HC2HNFeCSHC2H4C2HC3FeS2FeSCSCSC2FeSHSH2CFeSHCH4C7H5SHSC6H4C2HCH2CHFeH2CH2C4HCSHCNH2FeH3FeH2SHC2H3CH5NC8H6C2SH2CH2CHCHCH2NHCH2NCSHFeCHCH6C3HFeHSC2S2HSHFeSFeS2CHSHNCFeSHC7H4C6H4C6H3CHC3H4C8HCNHCNC5SC2HCH7CSCHCHNCHC2H2SH4SHCH2CH2FeHFeSH3C2HCH2SCH2CH4CHSC2H2CH9FeHCFeSCH2CH3SFeHSHSHFeS2CFeCFeHS2HSCHCHNC4H4C3SC4H4C7H4CNHCHCH4C2H2CH2FeHCHCSC2HC2HCHFeH2CH6CH2C2HCSCH3C2H3CSHFeSHFeS2FeS2FeSFeS3HCFeS2FeCSCFeHSFeHSHFeS2H4C7H4CH2C6H4C6H3C6H4C6H3C3NCHC6H3C2H5NC9H14CHCSFeNCNH2NCH2SH2CHNCSHSCFeHCH2SCHCH2CH3FeH2CH5CNSH4C3H2CHCHC3H3CH4C3SHCHC2HCHSC2H2SH2SC4H2C2H4CH6CFeC2HCHCH4SH2S2FeHC2HSFeNC2HC2SC2FeHC2H3SH4NSH8CHCNC9H14CHC2FeC6HC5HCH2CSHC2H3SCH2SH4CSHCFeS2HFeS2FeS2H3CFeSCSH2FeS2FeSFeSHC2NHC3SH3C2SCH2C5H2C9H4C2HC2H2CHCHCHFeH2CH3CNC8H12C2H2C3H4CHC2H4CHCH7FeC2NHC3H2C3H2C2H2SH3NH3C3H2
_chemical_formula_sum              "H864 S192 Fe96 C720 N48"
_cell_length_a       32.8621
_cell_length_b       59.4617
_cell_length_c       57.4365
_cell_angle_alpha    90.0326
_cell_angle_beta     95.8973
_cell_angle_gamma    89.7669

_space_group_name_H-M_alt    "P 1"
_space_group_IT_number       1

loop_
  _space_group_symop_operation_xyz
  'x, y, z'

loop_
  _atom_site_type_symbol
  _atom_site_label
  _atom_site_symmetry_multiplicity
  _atom_site_fract_x
  _atom_site_fract_y
  _atom_site_fract_z
  _atom_site_occupancy
  H   H1        1.0  0.22607  0.11778  0.02472  1.0000
  S   S1        1.0  0.36006  0.02328  0.02755  1.0000
  H   H2        1.0  0.16921  0.99645  0.09926  1.0000
  Fe  Fe1       1.0  0.15976  0.00373  0.39600  1.0000
  S   S2        1.0  0.09248  0.00925  0.38635  1.0000
  Fe  Fe2       1.0  0.18405  0.04517  0.36692  1.0000
  S   S3        1.0  0.11743  0.05232  0.35518  1.0000
  S   S4        1.0  0.23064  0.06834  0.35081  1.0000
  Fe  Fe3       1.0  0.10554  0.04618  0.39259  1.0000
  S   S5        1.0  0.07640  0.07216  0.41573  1.0000
  Fe  Fe4       1.0  0.10995  0.01485  0.34960  1.0000
  S   S6        1.0  0.17256  0.04023  0.40459  1.0000
  S   S7        1.0  0.17691  0.00796  0.35896  1.0000
  Fe  Fe5       1.0  0.44662  0.18208  0.08417  1.0000
  S   S8        1.0  0.41939  0.16508  0.11427  1.0000
  S   S9        1.0  0.42823  0.21954  0.07888  1.0000
  C   C1        1.0  0.39720  0.10975  0.19155  1.0000
  Fe  Fe6       1.0  0.41675  0.13372  0.09225  1.0000
  S   S10       1.0  0.36125  0.11106  0.09097  1.0000
  C   C2        1.0  0.40613  0.12117  0.23290  1.0000
  C   C3        1.0  0.42070  0.11045  0.21373  1.0000
  S   S11       1.0  0.43843  0.15124  0.06121  1.0000
  Fe  Fe7       1.0  0.42655  0.15812  0.34805  1.0000
  H   H3        1.0  0.34400  0.14635  0.04295  1.0000
  S   S12       1.0  0.38636  0.13464  0.36850  1.0000
  Fe  Fe8       1.0  0.45706  0.20796  0.34427  1.0000
  C   C4        1.0  0.47846  0.23825  0.17433  1.0000
  Fe  Fe9       1.0  0.45924  0.17538  0.30269  1.0000
  S   S13       1.0  0.43935  0.17397  0.26291  1.0000
  S   S14       1.0  0.40832  0.18711  0.32383  1.0000
  Fe  Fe10      1.0  0.30383  0.00179  0.01842  1.0000
  C   C5        1.0  0.32523  0.13316  0.03443  1.0000
  H   H4        1.0  0.29455  0.05241  0.00805  1.0000
  H   H5        1.0  0.99600  0.06134  0.39055  1.0000
  C   C6        1.0  0.45420  0.27158  0.35281  1.0000
  H   H6        1.0  0.20359  0.08196  0.02745  1.0000
  H   H7        1.0  0.44886  0.07304  0.19207  1.0000
  C   C7        1.0  0.25875  0.11648  0.02419  1.0000
  H   H8        1.0  0.04377  0.10114  0.44940  1.0000
  H   H9        1.0  0.42626  0.21766  0.14237  1.0000
  C   C8        1.0  0.46081  0.16906  0.23597  1.0000
  C   C9        1.0  0.43517  0.17067  0.21479  1.0000
  C   C10       1.0  0.45011  0.16638  0.19301  1.0000
  H   H10       1.0  0.40332  0.17514  0.21526  1.0000
  H   H11       1.0  0.42972  0.16762  0.17704  1.0000
  C   C11       1.0  0.02501  0.08024  0.41954  1.0000
  S   S15       1.0  0.24054  0.00440  0.02951  1.0000
  H   H12       1.0  0.39638  0.06572  0.18365  1.0000
  C   C12       1.0  0.27459  0.08632  0.35625  1.0000
  C   C13       1.0  0.29353  0.09070  0.37878  1.0000
  C   C14       1.0  0.32758  0.10535  0.38206  1.0000
  C   C15       1.0  0.34345  0.11597  0.36297  1.0000
  C   C16       1.0  0.32469  0.11149  0.34043  1.0000
  C   C17       1.0  0.29064  0.09683  0.33715  1.0000
  H   H13       1.0  0.28201  0.08281  0.39371  1.0000
  H   H14       1.0  0.34155  0.10862  0.39960  1.0000
  H   H15       1.0  0.33623  0.11941  0.32550  1.0000
  H   H16       1.0  0.27647  0.09367  0.31962  1.0000
  C   C18       1.0  0.39273  0.27048  0.01853  1.0000
  C   C19       1.0  0.40352  0.24814  0.01348  1.0000
  C   C20       1.0  0.41418  0.23231  0.03154  1.0000
  C   C21       1.0  0.41434  0.23857  0.05507  1.0000
  C   C22       1.0  0.40337  0.26089  0.06011  1.0000
  C   C23       1.0  0.39258  0.27669  0.04205  1.0000
  H   H17       1.0  0.39762  0.08922  0.13519  1.0000
  H   H18       1.0  0.46542  0.10086  0.15162  1.0000
  H   H19       1.0  0.40327  0.26604  0.07816  1.0000
  H   H20       1.0  0.38443  0.29372  0.04637  1.0000
  C   C24       1.0  0.36036  0.04702  0.04615  1.0000
  C   C25       1.0  0.32680  0.05246  0.05822  1.0000
  C   C26       1.0  0.32745  0.07206  0.07206  1.0000
  C   C27       1.0  0.36180  0.08620  0.07410  1.0000
  C   C28       1.0  0.39568  0.08047  0.06241  1.0000
  C   C29       1.0  0.39487  0.06100  0.04844  1.0000
  H   H21       1.0  0.30047  0.04153  0.05696  1.0000
  H   H22       1.0  0.30125  0.07633  0.08116  1.0000
  H   H23       1.0  0.42235  0.09120  0.06388  1.0000
  H   H24       1.0  0.42105  0.05689  0.03924  1.0000
  C   C30       1.0  0.28289  0.13387  0.03447  1.0000
  C   C31       1.0  0.38450  0.09804  0.14988  1.0000
  C   C32       1.0  0.36807  0.13172  0.23056  1.0000
  C   C33       1.0  0.46783  0.09069  0.39303  1.0000
  S   S16       1.0  0.47153  0.17993  0.37041  1.0000
  H   H25       1.0  0.43041  0.99292  0.03246  1.0000
  C   C34       1.0  0.45892  0.21249  0.14276  1.0000
  H   H26       1.0  0.33855  0.12138  0.17356  1.0000
  C   C35       1.0  0.01803  0.09512  0.43786  1.0000
  N   N1        1.0  0.48672  0.23116  0.15052  1.0000
  H   H27       1.0  0.42511  0.12216  0.24950  1.0000
  H   H28       1.0  0.35766  0.14066  0.24535  1.0000
  C   C36       1.0  0.45045  0.31165  0.36340  1.0000
  H   H29       1.0  0.35546  0.08933  0.15255  1.0000
  C   C37       1.0  0.35839  0.12069  0.18974  1.0000
  H   H30       1.0  0.47877  0.30571  0.30858  1.0000
  H   H31       1.0  0.43883  0.28147  0.20499  1.0000
  C   C38       1.0  0.42345  0.07447  0.17780  1.0000
  H   H32       1.0  0.46361  0.19756  0.15435  1.0000
  H   H33       1.0  0.18191  0.99009  0.19581  1.0000
  N   N2        1.0  0.41343  0.09821  0.17155  1.0000
  H   H34       1.0  0.40403  0.24305  0.99543  1.0000
  C   C39       1.0  0.46613  0.27797  0.33107  1.0000
  S   S17       1.0  0.06862  0.99947  0.31879  1.0000
  H   H35       1.0  0.20751  0.05491  0.01461  1.0000
  H   H36       1.0  0.43347  0.06493  0.16267  1.0000
  Fe  Fe11      1.0  0.48326  0.15426  0.12688  1.0000
  C   C40       1.0  0.46194  0.31808  0.34156  1.0000
  H   H37       1.0  0.25393  0.14652  0.33717  1.0000
  H   H38       1.0  0.47225  0.07215  0.39229  1.0000
  H   H39       1.0  0.37669  0.11447  0.02456  1.0000
  H   H40       1.0  0.45100  0.10317  0.21634  1.0000
  H   H41       1.0  0.24601  0.06406  0.03706  1.0000
  H   H42       1.0  0.29961  0.16509  0.36807  1.0000
  S   S18       1.0  0.47860  0.12138  0.10702  1.0000
  H   H43       1.0  0.47502  0.11058  0.18103  1.0000
  C   C41       1.0  0.99131  0.07268  0.40478  1.0000
  C   C42       1.0  0.27271  0.15622  0.37259  1.0000
  H   H44       1.0  0.47210  0.26521  0.31843  1.0000
  H   H45       1.0  0.43739  0.28397  0.38582  1.0000
  H   H46       1.0  0.46396  0.20681  0.12483  1.0000
  H   H47       1.0  0.11383  0.99502  0.17067  1.0000
  H   H48       1.0  0.46596  0.00004  0.01225  1.0000
  C   C43       1.0  0.44664  0.28860  0.36894  1.0000
  H   H49       1.0  0.42264  0.21532  0.02724  1.0000
  C   C44       1.0  0.48038  0.24932  0.13270  1.0000
  N   N3        1.0  0.16944  0.11796  0.39146  1.0000
  C   C45       1.0  0.14299  0.10857  0.37127  1.0000
  C   C46       1.0  0.18557  0.09880  0.40615  1.0000
  C   C47       1.0  0.14293  0.13195  0.40517  1.0000
  C   C48       1.0  0.20411  0.13141  0.38455  1.0000
  C   C49       1.0  0.21320  0.13337  0.36094  1.0000
  C   C50       1.0  0.23100  0.14242  0.40184  1.0000
  C   C51       1.0  0.24688  0.14574  0.35519  1.0000
  C   C52       1.0  0.26477  0.15459  0.39588  1.0000
  H   H50       1.0  0.44779  0.25482  0.13004  1.0000
  H   H51       1.0  0.16024  0.09662  0.36097  1.0000
  H   H52       1.0  0.11685  0.09887  0.37709  1.0000
  H   H53       1.0  0.12964  0.12208  0.35942  1.0000
  H   H54       1.0  0.20530  0.08774  0.39632  1.0000
  H   H55       1.0  0.16033  0.08832  0.41182  1.0000
  H   H56       1.0  0.20420  0.10429  0.42235  1.0000
  H   H57       1.0  0.13178  0.14716  0.39513  1.0000
  H   H58       1.0  0.11554  0.12240  0.40964  1.0000
  H   H59       1.0  0.15889  0.13757  0.42213  1.0000
  H   H60       1.0  0.19560  0.12495  0.34663  1.0000
  H   H61       1.0  0.22663  0.14128  0.42018  1.0000
  C   C53       1.0  0.46988  0.30102  0.32553  1.0000
  N   N4        1.0  0.25018  0.07926  0.00344  1.0000
  C   C54       1.0  0.22580  0.06971  0.02141  1.0000
  H   H62       1.0  0.44439  0.12720  0.16001  1.0000
  C   C55       1.0  0.45116  0.10962  0.16587  1.0000
  H   H63       1.0  0.28545  0.16245  0.40937  1.0000
  C   C56       1.0  0.34425  0.13148  0.20905  1.0000
  S   S19       1.0  0.44919  0.24274  0.36110  1.0000
  C   C57       1.0  0.46101  0.25950  0.17907  1.0000
  H   H64       1.0  0.37723  0.11539  0.14332  1.0000
  C   C58       1.0  0.45220  0.26521  0.20169  1.0000
  H   H65       1.0  0.45431  0.09521  0.40941  1.0000
  H   H66       1.0  0.47278  0.13242  0.37940  1.0000
  C   C59       1.0  0.31984  0.09750  0.01398  1.0000
  C   C60       1.0  0.34359  0.11515  0.02403  1.0000
  H   H67       1.0  0.31489  0.14002  0.20729  1.0000
  H   H68       1.0  0.26889  0.14782  0.04287  1.0000
  C   C61       1.0  0.27649  0.09763  0.01380  1.0000
  H   H69       1.0  0.45360  0.27195  0.16562  1.0000
  S   S20       1.0  0.47526  0.14544  0.32624  1.0000
  H   H70       1.0  0.33643  0.08373  0.00704  1.0000
  H   H71       1.0  0.44383  0.09524  0.37859  1.0000
  C   C62       1.0  0.46012  0.25001  0.22008  1.0000
  C   C63       1.0  0.47711  0.22908  0.21600  1.0000
  H   H72       1.0  0.45288  0.25439  0.23754  1.0000
  S   S21       1.0  0.37971  0.28969  0.99477  1.0000
  H   H73       1.0  0.48279  0.21715  0.23030  1.0000
  C   C64       1.0  0.48630  0.22328  0.19353  1.0000
  H   H74       1.0  0.48766  0.24348  0.11511  1.0000
  H   H75       1.0  0.99693  0.99893  0.95161  1.0000
  Fe  Fe12      1.0  0.21829  0.99957  0.99121  1.0000
  H   H76       1.0  0.29222  0.29142  0.98512  1.0000
  C   C65       1.0  0.30179  0.28249  0.93939  1.0000
  H   H77       1.0  0.01511  0.01876  0.97389  1.0000
  S   S22       1.0  0.04460  0.03365  0.88462  1.0000
  C   C66       1.0  0.16655  0.02805  0.88607  1.0000
  C   C67       1.0  0.21079  0.28504  0.92766  1.0000
  C   C68       1.0  0.22175  0.08820  0.98386  1.0000
  C   C69       1.0  0.00938  0.19060  0.84061  1.0000
  H   H78       1.0  0.20218  0.07465  0.97526  1.0000
  C   C70       1.0  0.13621  0.02794  0.95087  1.0000
  C   C71       1.0  0.12351  0.00885  0.93793  1.0000
  C   C72       1.0  0.09497  0.01087  0.91792  1.0000
  C   C73       1.0  0.07816  0.03191  0.91086  1.0000
  C   C74       1.0  0.08953  0.05086  0.92438  1.0000
  C   C75       1.0  0.11851  0.04887  0.94419  1.0000
  N   N5        1.0  0.27225  0.27225  0.95412  1.0000
  H   H79       1.0  0.08620  0.99608  0.90765  1.0000
  H   H80       1.0  0.07683  0.06715  0.91920  1.0000
  H   H81       1.0  0.12765  0.06375  0.95420  1.0000
  H   H82       1.0  0.22120  0.30226  0.92914  1.0000
  H   H83       1.0  0.32117  0.25642  0.97644  1.0000
  H   H84       1.0  0.30063  0.23954  0.95246  1.0000
  H   H85       1.0  0.05878  0.31650  0.78496  1.0000
  H   H86       1.0  0.03840  0.18611  0.83451  1.0000
  Fe  Fe13      1.0  0.99902  0.06142  0.87190  1.0000
  H   H87       1.0  0.23889  0.09605  0.97024  1.0000
  C   C76       1.0  0.23349  0.26735  0.93950  1.0000
  H   H88       1.0  0.01313  0.01490  0.53766  1.0000
  C   C77       1.0  0.00141  0.01716  0.95548  1.0000
  S   S23       1.0  0.01533  0.29804  0.82399  1.0000
  C   C78       1.0  0.18028  0.24140  0.92261  1.0000
  H   H89       1.0  0.13020  0.25618  0.90056  1.0000
  S   S24       1.0  0.99364  0.07898  0.83671  1.0000
  H   H90       1.0  0.12195  0.02981  0.85598  1.0000
  H   H91       1.0  0.15726  0.29479  0.90497  1.0000
  H   H92       1.0  0.01427  0.30431  0.74722  1.0000
  H   H93       1.0  0.29091  0.29893  0.93188  1.0000
  C   C79       1.0  0.99757  0.21354  0.84099  1.0000
  H   H94       1.0  0.23209  0.23073  0.94479  1.0000
  C   C80       1.0  0.15881  0.25921  0.91128  1.0000
  C   C81       1.0  0.29216  0.25204  0.96557  1.0000
  H   H95       1.0  0.26979  0.00477  0.92331  1.0000
  C   C82       1.0  0.01434  0.99867  0.54631  1.0000
  H   H96       1.0  0.02485  0.02340  0.94441  1.0000
  H   H97       1.0  0.25410  0.30507  0.96587  1.0000
  C   C83       1.0  0.17408  0.28096  0.91379  1.0000
  H   H98       1.0  0.24011  0.28197  0.98339  1.0000
  H   H99       1.0  0.16816  0.22449  0.92057  1.0000
  H   H100      1.0  0.27223  0.24394  0.97764  1.0000
  H   H101      1.0  0.20896  0.02160  0.91574  1.0000
  H   H102      1.0  0.16002  0.04498  0.89174  1.0000
  C   C84       1.0  0.26426  0.28834  0.97289  1.0000
  C   C85       1.0  0.21713  0.24528  0.93653  1.0000
  S   S25       1.0  0.28198  0.99945  0.98028  1.0000
  H   H103      1.0  0.21086  0.98994  0.94055  1.0000
  H   H104      1.0  0.29167  0.06618  0.97984  1.0000
  H   H105      1.0  0.30751  0.27126  0.92456  1.0000
  S   S26       1.0  0.00031  0.14462  0.84634  1.0000
  H   H106      1.0  0.01745  0.22639  0.83523  1.0000
  H   H107      1.0  0.33185  0.28581  0.94965  1.0000
  H   H108      1.0  0.09120  0.31982  0.81208  1.0000
  C   C86       1.0  0.19464  0.01451  0.89963  1.0000
  H   H109      1.0  0.13456  0.99092  0.84336  1.0000
  S   S27       1.0  0.00637  0.31651  0.59506  1.0000
  S   S28       1.0  0.00914  0.32220  0.66308  1.0000
  H   H110      1.0  0.13571  0.99255  0.94323  1.0000
  H   H111      1.0  0.25296  0.04698  0.98641  1.0000
  H   H112      1.0  0.11269  0.31121  0.78623  1.0000
  H   H113      1.0  0.03288  0.29941  0.70661  1.0000
  S   S29       1.0  0.17427  0.02682  0.97527  1.0000
  C   C87       1.0  0.14496  0.01951  0.86590  1.0000
  H   H114      1.0  0.99029  0.06188  0.94517  1.0000
  H   H115      1.0  0.20052  0.10110  0.98975  1.0000
  C   C88       1.0  0.01031  0.31191  0.71013  1.0000
  C   C89       1.0  0.99988  0.31470  0.73327  1.0000
  C   C90       1.0  0.20259  0.99199  0.89307  1.0000
  H   H116      1.0  0.28398  0.99375  0.89608  1.0000
  C   C91       1.0  0.15193  0.99751  0.85895  1.0000
  C   C92       1.0  0.08932  0.32245  0.79276  1.0000
  H   H117      1.0  0.99072  0.22833  0.56782  1.0000
  C   C93       1.0  0.27356  0.06047  0.99404  1.0000
  Fe  Fe14      1.0  0.33614  0.37190  0.01351  1.0000
  H   H118      1.0  0.03188  0.62158  0.15175  1.0000
  S   S30       1.0  0.34080  0.38896  0.04950  1.0000
  H   H119      1.0  0.41137  0.58633  0.16646  1.0000
  S   S31       1.0  0.45820  0.44556  0.36848  1.0000
  C   C94       1.0  0.21709  0.40369  0.05302  1.0000
  S   S32       1.0  0.40973  0.40627  0.33595  1.0000
  H   H120      1.0  0.15273  0.60806  0.29441  1.0000
  Fe  Fe15      1.0  0.45878  0.43171  0.33183  1.0000
  N   N6        1.0  0.44145  0.42679  0.01592  1.0000
  Fe  Fe16      1.0  0.41183  0.41870  0.37333  1.0000
  S   S33       1.0  0.35152  0.42986  0.38633  1.0000
  H   H121      1.0  0.02931  0.60205  0.24680  1.0000
  Fe  Fe17      1.0  0.39748  0.53768  0.14389  1.0000
  S   S34       1.0  0.34067  0.54347  0.11954  1.0000
  S   S35       1.0  0.46031  0.55376  0.14076  1.0000
  Fe  Fe18      1.0  0.35230  0.50681  0.17590  1.0000
  S   S36       1.0  0.29208  0.51115  0.15294  1.0000
  S   S37       1.0  0.35056  0.48303  0.20761  1.0000
  Fe  Fe19      1.0  0.32999  0.50613  0.12256  1.0000
  S   S38       1.0  0.30939  0.48819  0.08779  1.0000
  Fe  Fe20      1.0  0.30725  0.54818  0.15182  1.0000
  S   S39       1.0  0.26929  0.58127  0.15341  1.0000
  S   S40       1.0  0.38890  0.50000  0.14533  1.0000
  S   S41       1.0  0.36527  0.54405  0.17630  1.0000
  C   C95       1.0  0.29288  0.59028  0.46746  1.0000
  S   S42       1.0  0.03455  0.62422  0.41800  1.0000
  Fe  Fe21      1.0  0.06927  0.63947  0.44976  1.0000
  S   S43       1.0  0.11375  0.62135  0.47633  1.0000
  C   C96       1.0  0.47629  0.58897  0.08091  1.0000
  H   H122      1.0  0.01768  0.61337  0.32525  1.0000
  H   H123      1.0  0.22075  0.56984  0.46791  1.0000
  H   H124      1.0  0.21686  0.40717  0.00568  1.0000
  H   H125      1.0  0.14481  0.59021  0.12649  1.0000
  C   C97       1.0  0.45976  0.49116  0.05035  1.0000
  H   H126      1.0  0.30694  0.57963  0.45445  1.0000
  H   H127      1.0  0.18405  0.42926  0.03118  1.0000
  H   H128      1.0  0.42679  0.57076  0.09433  1.0000
  C   C98       1.0  0.22237  0.59195  0.16294  1.0000
  C   C99       1.0  0.21249  0.61493  0.15951  1.0000
  C   C100      1.0  0.17597  0.62428  0.16664  1.0000
  C   C101      1.0  0.14847  0.61080  0.17741  1.0000
  C   C102      1.0  0.15823  0.58781  0.18076  1.0000
  C   C103      1.0  0.19475  0.57846  0.17363  1.0000
  H   H129      1.0  0.23330  0.62564  0.15124  1.0000
  Fe  Fe22      1.0  0.06026  0.65324  0.18848  1.0000
  H   H130      1.0  0.13729  0.57703  0.18885  1.0000
  H   H131      1.0  0.20151  0.56078  0.17638  1.0000
  C   C104      1.0  0.12428  0.59226  0.47506  1.0000
  H   H132      1.0  0.33081  0.62780  0.15309  1.0000
  H   H133      1.0  0.04648  0.53667  0.47643  1.0000
  C   C105      1.0  0.34482  0.43465  0.41622  1.0000
  C   C106      1.0  0.37316  0.42694  0.43431  1.0000
  C   C107      1.0  0.36570  0.43008  0.45784  1.0000
  C   C108      1.0  0.33034  0.44134  0.46354  1.0000
  C   C109      1.0  0.30236  0.44945  0.44546  1.0000
  C   C110      1.0  0.30943  0.44593  0.42191  1.0000
  H   H134      1.0  0.40044  0.41818  0.43019  1.0000
  H   H135      1.0  0.38751  0.42371  0.47168  1.0000
  H   H136      1.0  0.27491  0.45803  0.44959  1.0000
  H   H137      1.0  0.28723  0.45186  0.40806  1.0000
  C   C111      1.0  0.43320  0.46336  0.27516  1.0000
  C   C112      1.0  0.39807  0.45106  0.26762  1.0000
  C   C113      1.0  0.37378  0.45707  0.24675  1.0000
  C   C114      1.0  0.38434  0.47530  0.23288  1.0000
  C   C115      1.0  0.41988  0.48738  0.24023  1.0000
  C   C116      1.0  0.44396  0.48148  0.26123  1.0000
  H   H138      1.0  0.38964  0.43686  0.27780  1.0000
  H   H139      1.0  0.34641  0.44759  0.24136  1.0000
  H   H140      1.0  0.42850  0.50145  0.22990  1.0000
  C   C117      1.0  0.22933  0.43962  0.08561  1.0000
  C   C118      1.0  0.33324  0.41701  0.05932  1.0000
  C   C119      1.0  0.34735  0.42272  0.08255  1.0000
  C   C120      1.0  0.34133  0.44453  0.09141  1.0000
  C   C121      1.0  0.32071  0.46090  0.07719  1.0000
  C   C122      1.0  0.30710  0.45528  0.05385  1.0000
  C   C123      1.0  0.31331  0.43352  0.04494  1.0000
  H   H141      1.0  0.36277  0.41014  0.09390  1.0000
  H   H142      1.0  0.35191  0.44851  0.10941  1.0000
  H   H143      1.0  0.29103  0.46779  0.04269  1.0000
  H   H144      1.0  0.30219  0.42957  0.02706  1.0000
  N   N7        1.0  0.38867  0.61427  0.14485  1.0000
  C   C124      1.0  0.08255  0.61001  0.33345  1.0000
  C   C125      1.0  0.36042  0.63349  0.14717  1.0000
  C   C126      1.0  0.36990  0.59888  0.12655  1.0000
  C   C127      1.0  0.42836  0.62238  0.13803  1.0000
  S   S44       1.0  0.45834  0.39273  0.38735  1.0000
  H   H145      1.0  0.45758  0.59469  0.06544  1.0000
  C   C128      1.0  0.22867  0.36350  0.04378  1.0000
  H   H146      1.0  0.26690  0.59929  0.45757  1.0000
  H   H147      1.0  0.14935  0.62967  0.26179  1.0000
  H   H148      1.0  0.13149  0.56021  0.09696  1.0000
  H   H149      1.0  0.02007  0.61482  0.28339  1.0000
  H   H150      1.0  0.23531  0.55111  0.49177  1.0000
  H   H151      1.0  0.33991  0.59240  0.13097  1.0000
  C   C129      1.0  0.44637  0.40910  0.03423  1.0000
  H   H152      1.0  0.44419  0.32444  0.37597  1.0000
  C   C130      1.0  0.44784  0.44913  0.02710  1.0000
  H   H153      1.0  0.26253  0.36455  0.04784  1.0000
  N   N8        1.0  0.21092  0.38544  0.03542  1.0000
  N   N9        1.0  0.32493  0.46477  0.32385  1.0000
  C   C131      1.0  0.29573  0.47169  0.34058  1.0000
  C   C132      1.0  0.32118  0.44016  0.31990  1.0000
  C   C133      1.0  0.36689  0.46907  0.33514  1.0000
  C   C134      1.0  0.31547  0.47690  0.30141  1.0000
  C   C135      1.0  0.34345  0.49189  0.29220  1.0000
  C   C136      1.0  0.27720  0.47376  0.28792  1.0000
  C   C137      1.0  0.33375  0.50260  0.27067  1.0000
  C   C138      1.0  0.26813  0.48431  0.26622  1.0000
  C   C139      1.0  0.29649  0.49857  0.25755  1.0000
  H   H154      1.0  0.26369  0.46718  0.33436  1.0000
  H   H155      1.0  0.30280  0.46328  0.35791  1.0000
  H   H156      1.0  0.29690  0.49017  0.34362  1.0000
  H   H157      1.0  0.28961  0.43495  0.31356  1.0000
  H   H158      1.0  0.32946  0.43050  0.33635  1.0000
  H   H159      1.0  0.34174  0.43437  0.30684  1.0000
  H   H160      1.0  0.37168  0.48713  0.33960  1.0000
  H   H161      1.0  0.37310  0.45968  0.35188  1.0000
  H   H162      1.0  0.39051  0.46350  0.32378  1.0000
  H   H163      1.0  0.37367  0.49504  0.30081  1.0000
  H   H164      1.0  0.25433  0.46275  0.29384  1.0000
  H   H165      1.0  0.35612  0.51324  0.26349  1.0000
  H   H166      1.0  0.23936  0.48105  0.25580  1.0000
  H   H167      1.0  0.29018  0.50605  0.24032  1.0000
  C   C140      1.0  0.10892  0.59177  0.25075  1.0000
  C   C141      1.0  0.13217  0.55775  0.45328  1.0000
  C   C142      1.0  0.46644  0.61750  0.15120  1.0000
  H   H168      1.0  0.40227  0.63892  0.10593  1.0000
  H   H169      1.0  0.46436  0.50707  0.05946  1.0000
  C   C143      1.0  0.48578  0.48449  0.03387  1.0000
  H   H170      1.0  0.15043  0.37810  0.04439  1.0000
  C   C144      1.0  0.02364  0.64120  0.11000  1.0000
  H   H171      1.0  0.08082  0.61039  0.35221  1.0000
  S   S45       1.0  0.32139  0.44376  0.49340  1.0000
  H   H172      1.0  0.19544  0.45988  0.05949  1.0000
  Fe  Fe23      1.0  0.46002  0.38208  0.34968  1.0000
  H   H173      1.0  0.12998  0.54887  0.43674  1.0000
  C   C145      1.0  0.12270  0.60913  0.30041  1.0000
  H   H174      1.0  0.06275  0.55646  0.07529  1.0000
  C   C146      1.0  0.39225  0.60178  0.16737  1.0000
  S   S46       1.0  0.30192  0.33941  0.00613  1.0000
  C   C147      1.0  0.04349  0.60194  0.10958  1.0000
  S   S47       1.0  0.46677  0.34693  0.33323  1.0000
  H   H175      1.0  0.02992  0.64304  0.09142  1.0000
  H   H176      1.0  0.11899  0.63418  0.23479  1.0000
  H   H177      1.0  0.14797  0.60749  0.33660  1.0000
  H   H178      1.0  0.00761  0.58189  0.08266  1.0000
  H   H179      1.0  0.16921  0.64194  0.16380  1.0000
  H   H180      1.0  0.05210  0.54689  0.44755  1.0000
  H   H181      1.0  0.21514  0.35759  0.05966  1.0000
  S   S48       1.0  0.99561  0.64423  0.19528  1.0000
  H   H182      1.0  0.10570  0.64797  0.26077  1.0000
  C   C148      1.0  0.42207  0.45649  0.04399  1.0000
  H   H183      1.0  0.44410  0.39192  0.02657  1.0000
  C   C149      1.0  0.14739  0.54650  0.47387  1.0000
  H   H184      1.0  0.46876  0.60734  0.16685  1.0000
  N   N10       1.0  0.27972  0.57663  0.48695  1.0000
  H   H185      1.0  0.03576  0.63223  0.24927  1.0000
  H   H186      1.0  0.26362  0.39492  0.01872  1.0000
  C   C150      1.0  0.03686  0.58450  0.09266  1.0000
  S   S49       1.0  0.01372  0.65319  0.46487  1.0000
  H   H187      1.0  0.36413  0.60703  0.10915  1.0000
  C   C151      1.0  0.05067  0.61619  0.24465  1.0000
  C   C152      1.0  0.02983  0.53973  0.45881  1.0000
  C   C153      1.0  0.46696  0.64207  0.10978  1.0000
  H   H188      1.0  0.09022  0.57690  0.25460  1.0000
  C   C154      1.0  0.24722  0.56094  0.47743  1.0000
  H   H189      1.0  0.39016  0.58413  0.12460  1.0000
  H   H190      1.0  0.40752  0.48234  0.06817  1.0000
  C   C155      1.0  0.04694  0.61171  0.31819  1.0000
  H   H191      1.0  0.23531  0.45353  0.09772  1.0000
  S   S50       1.0  0.16304  0.51816  0.47217  1.0000
  H   H192      1.0  0.05434  0.61705  0.22564  1.0000
  H   H193      1.0  0.14048  0.58890  0.25918  1.0000
  C   C156      1.0  0.45859  0.57552  0.09742  1.0000
  H   H194      1.0  0.25840  0.54859  0.46495  1.0000
  H   H195      1.0  0.36181  0.59594  0.17194  1.0000
  C   C157      1.0  0.08341  0.60357  0.12155  1.0000
  C   C158      1.0  0.42981  0.63499  0.11712  1.0000
  N   N11       1.0  0.09059  0.61283  0.25888  1.0000
  C   C159      1.0  0.23042  0.39174  0.01422  1.0000
  H   H196      1.0  0.03270  0.58448  0.45882  1.0000
  H   H197      1.0  0.47108  0.49112  0.26672  1.0000
  C   C160      1.0  0.08707  0.61147  0.28435  1.0000
  H   H198      1.0  0.26412  0.41600  0.10781  1.0000
  H   H199      1.0  0.05169  0.64634  0.12117  1.0000
  H   H200      1.0  0.21607  0.60700  0.47999  1.0000
  H   H201      1.0  0.11116  0.59210  0.23149  1.0000
  S   S51       1.0  0.46430  0.45722  0.30193  1.0000
  S   S52       1.0  0.10137  0.62148  0.18669  1.0000
  C   C161      1.0  0.00467  0.61611  0.14009  1.0000
  C   C162      1.0  0.04890  0.61257  0.29400  1.0000
  C   C163      1.0  0.23986  0.40068  0.07526  1.0000
  H   H202      1.0  0.25474  0.38500  0.08053  1.0000
  C   C164      1.0  0.16655  0.38195  0.02874  1.0000
  H   H203      1.0  0.09079  0.61635  0.13469  1.0000
  C   C165      1.0  0.24559  0.41843  0.09125  1.0000
  C   C166      1.0  0.20703  0.44317  0.06397  1.0000
  C   C167      1.0  0.11731  0.63195  0.25393  1.0000
  C   C168      1.0  0.12035  0.60859  0.32459  1.0000
  H   H204      1.0  0.02738  0.57479  0.48762  1.0000
  C   C169      1.0  0.10714  0.57175  0.10037  1.0000
  H   H205      1.0  0.32722  0.55197  0.48294  1.0000
  C   C170      1.0  0.12045  0.58052  0.45385  1.0000
  H   H206      1.0  0.10955  0.58917  0.43783  1.0000
  H   H207      1.0  0.40564  0.61240  0.18213  1.0000
  H   H208      1.0  0.22309  0.35011  0.03026  1.0000
  C   C171      1.0  0.11463  0.58867  0.11698  1.0000
  N   N12       1.0  0.01100  0.61790  0.11496  1.0000
  C   C172      1.0  0.42784  0.47721  0.05531  1.0000
  H   H209      1.0  0.31577  0.60310  0.47416  1.0000
  C   C173      1.0  0.06838  0.56968  0.08821  1.0000
  H   H210      1.0  0.42236  0.41010  0.04653  1.0000
  C   C174      1.0  0.48188  0.56867  0.11799  1.0000
  H   H211      1.0  0.39738  0.44614  0.04881  1.0000
  H   H212      1.0  0.02077  0.52310  0.45117  1.0000
  C   C175      1.0  0.20087  0.42552  0.04789  1.0000
  H   H213      1.0  0.47659  0.41041  0.04482  1.0000
  H   H214      1.0  0.35243  0.64239  0.13032  1.0000
  H   H215      1.0  0.46756  0.65090  0.09330  1.0000
  S   S53       1.0  0.39431  0.35824  0.00111  1.0000
  C   C176      1.0  0.47997  0.46384  0.02226  1.0000
  H   H216      1.0  0.99785  0.59849  0.14490  1.0000
  H   H217      1.0  0.99520  0.56928  0.42558  1.0000
  C   C177      1.0  0.01054  0.57682  0.46991  1.0000
  C   C178      1.0  0.47040  0.42159  0.99836  1.0000
  H   H218      1.0  0.37418  0.64594  0.16012  1.0000
  H   H219      1.0  0.15150  0.39691  0.02000  1.0000
  H   H220      1.0  0.37551  0.42685  0.01587  1.0000
  H   H221      1.0  0.99953  0.65369  0.11332  1.0000
  H   H222      1.0  0.16098  0.36779  0.01608  1.0000
  N   N13       1.0  0.99442  0.55503  0.46022  1.0000
  C   C179      1.0  0.39951  0.42548  0.00371  1.0000
  H   H223      1.0  0.22728  0.37822  0.00069  1.0000
  H   H224      1.0  0.22119  0.39251  0.48417  1.0000
  H   H225      1.0  0.39417  0.40915  0.99449  1.0000
  H   H226      1.0  0.24693  0.41794  0.49219  1.0000
  Fe  Fe24      1.0  0.28207  0.35337  0.97005  1.0000
  S   S54       1.0  0.33739  0.33946  0.95467  1.0000
  S   S55       1.0  0.21315  0.34759  0.95861  1.0000
  Fe  Fe25      1.0  0.36956  0.37200  0.96595  1.0000
  S   S56       1.0  0.40291  0.39860  0.94591  1.0000
  H   H227      1.0  0.21131  0.35733  0.49746  1.0000
  S   S57       1.0  0.31236  0.38681  0.97893  1.0000
  C   C180      1.0  0.06654  0.47088  0.53766  1.0000
  S   S58       1.0  0.05603  0.36468  0.55534  1.0000
  C   C181      1.0  0.11417  0.33903  0.72296  1.0000
  H   H228      1.0  0.30331  0.58047  0.53556  1.0000
  Fe  Fe26      1.0  0.21112  0.46922  0.54254  1.0000
  H   H229      1.0  0.21574  0.62999  0.55028  1.0000
  S   S59       1.0  0.17740  0.44874  0.56832  1.0000
  Fe  Fe27      1.0  0.27344  0.50802  0.54105  1.0000
  C   C182      1.0  0.20313  0.35947  0.51508  1.0000
  S   S60       1.0  0.31153  0.53744  0.55709  1.0000
  C   C183      1.0  0.15055  0.55813  0.49513  1.0000
  H   H230      1.0  0.19789  0.41241  0.50228  1.0000
  H   H231      1.0  0.43685  0.43522  0.92183  1.0000
  H   H232      1.0  0.28155  0.42404  0.52983  1.0000
  S   S61       1.0  0.20446  0.50705  0.53968  1.0000
  S   S62       1.0  0.28019  0.47083  0.54703  1.0000
  S   S63       1.0  0.44444  0.54103  0.64652  1.0000
  H   H233      1.0  0.16980  0.36476  0.57763  1.0000
  H   H234      1.0  0.14034  0.33500  0.55124  1.0000
  C   C184      1.0  0.13912  0.58093  0.49568  1.0000
  H   H235      1.0  0.47771  0.37060  0.94826  1.0000
  C   C185      1.0  0.06017  0.36246  0.74877  1.0000
  C   C186      1.0  0.06524  0.35985  0.79863  1.0000
  H   H236      1.0  0.12727  0.33673  0.95066  1.0000
  C   C187      1.0  0.34830  0.53803  0.58207  1.0000
  C   C188      1.0  0.35699  0.51915  0.59624  1.0000
  C   C189      1.0  0.38615  0.52051  0.61601  1.0000
  C   C190      1.0  0.40718  0.54065  0.62178  1.0000
  C   C191      1.0  0.39876  0.55950  0.60749  1.0000
  C   C192      1.0  0.36943  0.55818  0.58778  1.0000
  H   H237      1.0  0.34095  0.50356  0.59212  1.0000
  H   H238      1.0  0.39239  0.50583  0.62695  1.0000
  H   H239      1.0  0.41453  0.57514  0.61175  1.0000
  H   H240      1.0  0.36285  0.57291  0.57699  1.0000
  C   C193      1.0  0.08840  0.38863  0.55919  1.0000
  C   C194      1.0  0.09983  0.39790  0.58127  1.0000
  C   C195      1.0  0.12741  0.41609  0.58370  1.0000
  C   C196      1.0  0.14347  0.42550  0.56410  1.0000
  C   C197      1.0  0.13147  0.41650  0.54195  1.0000
  C   C198      1.0  0.10436  0.39807  0.53957  1.0000
  H   H241      1.0  0.08817  0.39071  0.59656  1.0000
  H   H242      1.0  0.13642  0.42294  0.60092  1.0000
  H   H243      1.0  0.14309  0.42368  0.52669  1.0000
  H   H244      1.0  0.09588  0.39098  0.52242  1.0000
  C   C199      1.0  0.17937  0.34426  0.93208  1.0000
  C   C200      1.0  0.19242  0.34663  0.90973  1.0000
  H   H245      1.0  0.21778  0.39160  0.56479  1.0000
  C   C201      1.0  0.12307  0.33828  0.89095  1.0000
  C   C202      1.0  0.00324  0.49131  0.52915  1.0000
  S   S64       1.0  0.08948  0.33469  0.86440  1.0000
  C   C203      1.0  0.26337  0.59150  0.50453  1.0000
  C   C204      1.0  0.28536  0.38219  0.51437  1.0000
  C   C205      1.0  0.05650  0.36396  0.72433  1.0000
  C   C206      1.0  0.47019  0.52828  0.56995  1.0000
  H   H246      1.0  0.18794  0.63111  0.50858  1.0000
  C   C207      1.0  0.08319  0.35215  0.71145  1.0000
  Fe  Fe28      1.0  0.27554  0.46758  0.50768  1.0000
  C   C208      1.0  0.17503  0.34434  0.52291  1.0000
  H   H247      1.0  0.14319  0.37102  0.79210  1.0000
  C   C209      1.0  0.00518  0.45825  0.55499  1.0000
  H   H248      1.0  0.03731  0.37133  0.75745  1.0000
  N   N14       1.0  0.09538  0.34640  0.78688  1.0000
  H   H249      1.0  0.46419  0.40476  0.99014  1.0000
  S   S65       1.0  0.27340  0.50483  0.50191  1.0000
  N   N15       1.0  0.24774  0.39378  0.52034  1.0000
  Fe  Fe29      1.0  0.02228  0.32425  0.85292  1.0000
  C   C210      1.0  0.04699  0.45576  0.55138  1.0000
  H   H250      1.0  0.03332  0.35466  0.79275  1.0000
  C   C211      1.0  0.26161  0.60515  0.54483  1.0000
  C   C212      1.0  0.13679  0.35336  0.79699  1.0000
  Fe  Fe30      1.0  0.35834  0.32673  0.99132  1.0000
  C   C213      1.0  0.22925  0.61956  0.53762  1.0000
  H   H251      1.0  0.46760  0.51111  0.56229  1.0000
  H   H252      1.0  0.14219  0.58989  0.51217  1.0000
  H   H253      1.0  0.30695  0.55119  0.51038  1.0000
  C   C214      1.0  0.22749  0.40455  0.49886  1.0000
  C   C215      1.0  0.46059  0.42256  0.92463  1.0000
  S   S66       1.0  0.20709  0.46359  0.50372  1.0000
  H   H254      1.0  0.27891  0.36944  0.50034  1.0000
  H   H255      1.0  0.46735  0.43385  0.98361  1.0000
  C   C216      1.0  0.16451  0.34372  0.88943  1.0000
  H   H256      1.0  0.23372  0.42197  0.54189  1.0000
  H   H257      1.0  0.16226  0.54966  0.51111  1.0000
  H   H258      1.0  0.17519  0.34575  0.87237  1.0000
  H   H259      1.0  0.09884  0.46871  0.53564  1.0000
  H   H260      1.0  0.30747  0.39432  0.50782  1.0000
  C   C217      1.0  0.11839  0.33755  0.74740  1.0000
  H   H261      1.0  0.06841  0.37815  0.79533  1.0000
  H   H262      1.0  0.22395  0.35086  0.90805  1.0000
  H   H263      1.0  0.46221  0.54049  0.55550  1.0000
  H   H264      1.0  0.44622  0.52956  0.58222  1.0000
  C   C218      1.0  0.16312  0.34628  0.54541  1.0000
  H   H265      1.0  0.16133  0.34253  0.79105  1.0000
  C   C219      1.0  0.20747  0.37852  0.55255  1.0000
  H   H266      1.0  0.34117  0.57354  0.50409  1.0000
  H   H267      1.0  0.06923  0.35750  0.81802  1.0000
  H   H268      1.0  0.39404  0.43897  0.99029  1.0000
  H   H269      1.0  0.30119  0.37352  0.52994  1.0000
  C   C220      1.0  0.27866  0.59137  0.52862  1.0000
  C   C221      1.0  0.04474  0.48870  0.52662  1.0000
  H   H270      1.0  0.06009  0.50037  0.51599  1.0000
  H   H271      1.0  0.27324  0.60429  0.56319  1.0000
  H   H272      1.0  0.04042  0.43117  0.59143  1.0000
  H   H273      1.0  0.01326  0.41294  0.55517  1.0000
  H   H274      1.0  0.03170  0.37359  0.71519  1.0000
  C   C222      1.0  0.31539  0.56285  0.49655  1.0000
  C   C223      1.0  0.09133  0.34910  0.76109  1.0000
  C   C224      1.0  0.48342  0.38620  0.93951  1.0000
  H   H275      1.0  0.14004  0.35231  0.81651  1.0000
  H   H276      1.0  0.07856  0.33152  0.91496  1.0000
  C   C225      1.0  0.13798  0.33874  0.93360  1.0000
  C   C226      1.0  0.11012  0.33574  0.91329  1.0000
  C   C227      1.0  0.17976  0.36310  0.56028  1.0000
  C   C228      1.0  0.21967  0.37731  0.52951  1.0000
  C   C229      1.0  0.45234  0.40239  0.93610  1.0000
  Fe  Fe31      1.0  0.20517  0.50148  0.50108  1.0000
  C   C230      1.0  0.26048  0.41199  0.53721  1.0000
  H   H277      1.0  0.06489  0.44195  0.55908  1.0000
  H   H278      1.0  0.27743  0.40530  0.55351  1.0000
  C   C231      1.0  0.01043  0.43941  0.59293  1.0000
  H   H279      1.0  0.16189  0.33123  0.51140  1.0000
  H   H280      1.0  0.07900  0.35263  0.69245  1.0000
  Fe  Fe32      1.0  0.00963  0.35131  0.57914  1.0000
  C   C232      1.0  0.21375  0.62024  0.51414  1.0000
  H   H281      1.0  0.01640  0.45601  0.60156  1.0000
  H   H282      1.0  0.13441  0.32959  0.71278  1.0000
  S   S67       1.0  0.99182  0.36914  0.61111  1.0000
  C   C233      1.0  0.99226  0.32532  0.69157  1.0000
  H   H283      1.0  0.14249  0.32685  0.75546  1.0000
  H   H284      1.0  0.99487  0.42850  0.60506  1.0000
  C   C234      1.0  0.23030  0.60637  0.49782  1.0000
  H   H285      1.0  0.17562  0.76283  0.49238  1.0000
  Fe  Fe33      1.0  0.24235  0.96652  0.03110  1.0000
  S   S68       1.0  0.23093  0.94587  0.06321  1.0000
  C   C235      1.0  0.45529  0.98590  0.02275  1.0000
  H   H286      1.0  0.01811  0.83245  0.11733  1.0000
  Fe  Fe34      1.0  0.02405  0.68474  0.44447  1.0000
  S   S69       1.0  0.08208  0.67188  0.43147  1.0000
  S   S70       1.0  0.01217  0.72082  0.45729  1.0000
  H   H287      1.0  0.02482  0.77651  0.22761  1.0000
  C   C236      1.0  0.23205  0.81072  0.48865  1.0000
  S   S71       1.0  0.06784  0.73954  0.19094  1.0000
  H   H288      1.0  0.07170  0.75149  0.24194  1.0000
  S   S72       1.0  0.03815  0.67862  0.16074  1.0000
  H   H289      1.0  0.38801  0.88182  0.00093  1.0000
  S   S73       1.0  0.06595  0.67955  0.21710  1.0000
  H   H290      1.0  0.14287  0.77716  0.45589  1.0000
  Fe  Fe35      1.0  0.03856  0.70440  0.18981  1.0000
  S   S74       1.0  0.99136  0.89735  0.14179  1.0000
  C   C237      1.0  0.08508  0.88816  0.32117  1.0000
  S   S75       1.0  0.02171  0.94372  0.16874  1.0000
  Fe  Fe36      1.0  0.01657  0.87776  0.17361  1.0000
  S   S76       1.0  0.07638  0.89679  0.17572  1.0000
  H   H291      1.0  0.04574  0.89126  0.28890  1.0000
  Fe  Fe37      1.0  0.04635  0.92171  0.19888  1.0000
  S   S77       1.0  0.08900  0.93611  0.22975  1.0000
  Fe  Fe38      1.0  0.04832  0.91818  0.14569  1.0000
  S   S78       1.0  0.06652  0.93392  0.11203  1.0000
  C   C238      1.0  0.03967  0.66466  0.33491  1.0000
  H   H292      1.0  0.22214  0.83444  0.46025  1.0000
  C   C239      1.0  0.04816  0.76725  0.18462  1.0000
  C   C240      1.0  0.21709  0.96337  0.15342  1.0000
  C   C241      1.0  0.06046  0.80810  0.18424  1.0000
  C   C242      1.0  0.01910  0.81229  0.17710  1.0000
  H   H293      1.0  0.41022  0.93511  0.01281  1.0000
  H   H294      1.0  0.09616  0.67017  0.31979  1.0000
  C   C243      1.0  0.11109  0.97639  0.17119  1.0000
  H   H295      1.0  0.12806  0.98898  0.13096  1.0000
  C   C244      1.0  0.17403  0.97190  0.19565  1.0000
  S   S79       1.0  0.11660  0.90774  0.49279  1.0000
  H   H296      1.0  0.09143  0.87050  0.31849  1.0000
  H   H297      1.0  0.16785  0.91288  0.37387  1.0000
  H   H298      1.0  0.08030  0.94407  0.46494  1.0000
  H   H299      1.0  0.05709  0.85789  0.09374  1.0000
  H   H300      1.0  0.01179  0.98451  0.28057  1.0000
  H   H301      1.0  0.15526  0.96878  0.21048  1.0000
  C   C245      1.0  0.04313  0.74044  0.47505  1.0000
  H   H302      1.0  0.06244  0.95145  0.32898  1.0000
  S   S80       1.0  0.06493  0.66154  0.36385  1.0000
  H   H303      1.0  0.40241  0.95617  0.03397  1.0000
  C   C246      1.0  0.00678  0.77143  0.17752  1.0000
  C   C247      1.0  0.08261  0.95426  0.25404  1.0000
  C   C248      1.0  0.04475  0.96359  0.25800  1.0000
  C   C249      1.0  0.05106  0.92245  0.30780  1.0000
  S   S81       1.0  0.30804  0.96437  0.02282  1.0000
  C   C250      1.0  0.05922  0.89976  0.30452  1.0000
  H   H304      1.0  0.10630  0.97041  0.43631  1.0000
  C   C251      1.0  0.11359  0.97350  0.28950  1.0000
  H   H305      1.0  0.20266  0.96213  0.19996  1.0000
  H   H306      1.0  0.22398  0.93835  0.44693  1.0000
  H   H307      1.0  0.06370  0.67320  0.27878  1.0000
  C   C252      1.0  0.16698  0.95629  0.43947  1.0000
  C   C253      1.0  0.12643  0.95779  0.44481  1.0000
  C   C254      1.0  0.11180  0.94282  0.46115  1.0000
  C   C255      1.0  0.13742  0.92626  0.47257  1.0000
  C   C256      1.0  0.17804  0.92489  0.46738  1.0000
  C   C257      1.0  0.19257  0.93972  0.45087  1.0000
  H   H308      1.0  0.33818  0.91353  0.99676  1.0000
  C   C258      1.0  0.07480  0.78577  0.18795  1.0000
  H   H309      1.0  0.12787  0.93556  0.18768  1.0000
  C   C259      1.0  0.18467  0.94234  0.07620  1.0000
  C   C260      1.0  0.14846  0.95324  0.06758  1.0000
  C   C261      1.0  0.11270  0.95041  0.07885  1.0000
  C   C262      1.0  0.11273  0.93673  0.09884  1.0000
  C   C263      1.0  0.14889  0.92575  0.10742  1.0000
  C   C264      1.0  0.18465  0.92857  0.09613  1.0000
  H   H310      1.0  0.14806  0.96388  0.05229  1.0000
  H   H311      1.0  0.08485  0.95892  0.07204  1.0000
  H   H312      1.0  0.14928  0.91489  0.12252  1.0000
  H   H313      1.0  0.21254  0.92006  0.10288  1.0000
  H   H314      1.0  0.14643  0.95232  0.26713  1.0000
  H   H315      1.0  0.16261  0.96125  0.36982  1.0000
  H   H316      1.0  0.12342  0.88937  0.35305  1.0000
  C   C265      1.0  0.00932  0.78253  0.24207  1.0000
  H   H317      1.0  0.09117  0.97068  0.15543  1.0000
  C   C266      1.0  0.10334  0.89929  0.34103  1.0000
  H   H318      1.0  0.06380  0.93553  0.38367  1.0000
  H   H319      1.0  0.04607  0.79700  0.48798  1.0000
  H   H320      1.0  0.07884  0.72816  0.26110  1.0000
  N   N16       1.0  0.02098  0.74528  0.26248  1.0000
  H   H321      1.0  0.06941  0.96055  0.36670  1.0000
  H   H322      1.0  0.15661  0.93120  0.39676  1.0000
  S   S82       1.0  0.18677  0.97382  0.41800  1.0000
  C   C267      1.0  0.00474  0.76859  0.26168  1.0000
  C   C268      1.0  0.05483  0.77944  0.48882  1.0000
  H   H323      1.0  0.45097  0.94183  0.03485  1.0000
  H   H324      1.0  0.10150  0.95638  0.39311  1.0000
  H   H325      1.0  0.12706  0.96512  0.34439  1.0000
  H   H326      1.0  0.44512  0.79749  0.02894  1.0000
  C   C269      1.0  0.14519  0.94068  0.17291  1.0000
  H   H327      1.0  0.40723  0.78236  0.01039  1.0000
  H   H328      1.0  0.02392  0.89017  0.07363  1.0000
  C   C270      1.0  0.43245  0.79481  0.01048  1.0000
  H   H329      1.0  0.01800  0.95991  0.24604  1.0000
  H   H330      1.0  0.12745  0.93513  0.15635  1.0000
  H   H331      1.0  0.00473  0.73886  0.22562  1.0000
  H   H332      1.0  0.10683  0.78286  0.19355  1.0000
  C   C271      1.0  0.11695  0.95939  0.26992  1.0000
  C   C272      1.0  0.18087  0.80649  0.45552  1.0000
  C   C273      1.0  0.00277  0.66745  0.28781  1.0000
  C   C274      1.0  0.24011  0.96789  0.13481  1.0000
  C   C275      1.0  0.18282  0.98775  0.11474  1.0000
  H   H333      1.0  0.12324  0.90808  0.38953  1.0000
  H   H334      1.0  0.14032  0.97717  0.30147  1.0000
  N   N17       1.0  0.44077  0.96665  0.00763  1.0000
  C   C276      1.0  0.03240  0.76346  0.47442  1.0000
  H   H335      1.0  0.03126  0.93154  0.29471  1.0000
  N   N18       1.0  0.15187  0.96528  0.17284  1.0000
  C   C277      1.0  0.06907  0.93372  0.32756  1.0000
  H   H336      1.0  0.00983  0.71424  0.24355  1.0000
  C   C278      1.0  0.00279  0.84635  0.10777  1.0000
  H   H337      1.0  0.00646  0.76901  0.46268  1.0000
  C   C279      1.0  0.04135  0.97761  0.27764  1.0000
  H   H338      1.0  0.08141  0.82206  0.18696  1.0000
  H   H339      1.0  0.27097  0.96134  0.13492  1.0000
  H   H340      1.0  0.08251  0.75630  0.27285  1.0000
  C   C280      1.0  0.09602  0.92257  0.34473  1.0000
  Fe  Fe39      1.0  0.00084  0.67197  0.22230  1.0000
  H   H341      1.0  0.16624  0.94405  0.34440  1.0000
  C   C281      1.0  0.08648  0.94739  0.37750  1.0000
  C   C282      1.0  0.04508  0.67001  0.29283  1.0000
  C   C283      1.0  0.14434  0.95215  0.35539  1.0000
  C   C284      1.0  0.14211  0.92108  0.38182  1.0000
  N   N19       1.0  0.11690  0.93536  0.36460  1.0000
  C   C285      1.0  0.16837  0.78635  0.46482  1.0000
  C   C286      1.0  0.06334  0.66854  0.31618  1.0000
  C   C287      1.0  0.02468  0.86078  0.09464  1.0000
  C   C288      1.0  0.18756  0.77827  0.48604  1.0000
  C   C289      1.0  0.48051  0.76491  0.00372  1.0000
  H   H342      1.0  0.03148  0.74224  0.30011  1.0000
  C   C290      1.0  0.07666  0.73367  0.49052  1.0000
  H   H343      1.0  0.16533  0.81289  0.43931  1.0000
  C   C291      1.0  0.42547  0.94920  0.02296  1.0000
  H   H344      1.0  0.19822  0.91233  0.47596  1.0000
  C   C292      1.0  0.21285  0.81858  0.46733  1.0000
  H   H345      1.0  0.41876  0.81124  0.00425  1.0000
  H   H346      1.0  0.23130  0.95322  0.16761  1.0000
  C   C293      1.0  0.01581  0.73331  0.28470  1.0000
  H   H347      1.0  0.09424  0.97223  0.18654  1.0000
  C   C294      1.0  0.06536  0.74538  0.25953  1.0000
  Fe  Fe40      1.0  0.04210  0.65775  0.40035  1.0000
  H   H348      1.0  0.17430  0.93098  0.17480  1.0000
  C   C295      1.0  0.07565  0.98269  0.29357  1.0000
  C   C296      1.0  0.17607  0.97106  0.15330  1.0000
  N   N20       1.0  0.46401  0.78709  0.99554  1.0000
  H   H349      1.0  0.02901  0.71602  0.28484  1.0000
  H   H350      1.0  0.38231  0.98335  0.00048  1.0000
  C   C297      1.0  0.99941  0.73210  0.24312  1.0000
  C   C298      1.0  0.99725  0.66254  0.32991  1.0000
  S   S83       1.0  0.99860  0.84009  0.17258  1.0000
  C   C299      1.0  0.00535  0.87934  0.08329  1.0000
  H   H351      1.0  0.08520  0.71608  0.49152  1.0000
  C   C300      1.0  0.99247  0.79375  0.17379  1.0000
  C   C301      1.0  0.99362  0.80441  0.24054  1.0000
  H   H352      1.0  0.99737  0.81464  0.22522  1.0000
  H   H353      1.0  0.48040  0.98079  0.03622  1.0000
  C   C302      1.0  0.22304  0.98011  0.11554  1.0000
  C   C303      1.0  0.15942  0.98326  0.13321  1.0000
  H   H354      1.0  0.24048  0.98290  0.10076  1.0000
  H   H355      1.0  0.99964  0.92466  0.07483  1.0000
  C   C304      1.0  0.38699  0.69874  0.64795  1.0000
  H   H356      1.0  0.08528  0.93387  0.58691  1.0000
  S   S84       1.0  0.31162  0.94285  0.95686  1.0000
  C   C305      1.0  0.42265  0.69007  0.64020  1.0000
  H   H357      1.0  0.23450  0.96279  0.94251  1.0000
  Fe  Fe41      1.0  0.13812  0.87970  0.51914  1.0000
  S   S85       1.0  0.08498  0.86028  0.53141  1.0000
  C   C306      1.0  0.47888  0.74551  0.98915  1.0000
  Fe  Fe42      1.0  0.20112  0.85602  0.55624  1.0000
  S   S86       1.0  0.15094  0.83653  0.57075  1.0000
  S   S87       1.0  0.27084  0.85085  0.56704  1.0000
  Fe  Fe43      1.0  0.12635  0.82961  0.53304  1.0000
  H   H358      1.0  0.09495  0.95523  0.51647  1.0000
  Fe  Fe44      1.0  0.11338  0.86868  0.56767  1.0000
  S   S88       1.0  0.08274  0.88578  0.59743  1.0000
  S   S89       1.0  0.17759  0.84854  0.51840  1.0000
  S   S90       1.0  0.16551  0.88866  0.55551  1.0000
  S   S91       1.0  0.43925  0.86092  0.96944  1.0000
  S   S92       1.0  0.39749  0.83273  0.65923  1.0000
  H   H359      1.0  0.43214  0.79393  0.63843  1.0000
  N   N21       1.0  0.23915  0.78306  0.52204  1.0000
  H   H360      1.0  0.06660  0.98827  0.53034  1.0000
  C   C307      1.0  0.23291  0.80042  0.53987  1.0000
  H   H361      1.0  0.29922  0.79606  0.51750  1.0000
  C   C308      1.0  0.08794  0.77260  0.50458  1.0000
  C   C309      1.0  0.30533  0.84567  0.59300  1.0000
  C   C310      1.0  0.29206  0.84332  0.61530  1.0000
  C   C311      1.0  0.32062  0.83940  0.63515  1.0000
  C   C312      1.0  0.36302  0.83776  0.63324  1.0000
  C   C313      1.0  0.37627  0.83977  0.61090  1.0000
  C   C314      1.0  0.34770  0.84370  0.59105  1.0000
  H   H362      1.0  0.25979  0.84477  0.61733  1.0000
  H   H363      1.0  0.30970  0.83789  0.65222  1.0000
  H   H364      1.0  0.40859  0.83863  0.60892  1.0000
  H   H365      1.0  0.35864  0.84552  0.57402  1.0000
  C   C315      1.0  0.99920  0.89281  0.58428  1.0000
  H   H366      1.0  0.24698  0.79563  0.55764  1.0000
  H   H367      1.0  0.01719  0.94130  0.57808  1.0000
  C   C316      1.0  0.03320  0.89733  0.60031  1.0000
  H   H368      1.0  0.43309  0.80397  0.96532  1.0000
  H   H369      1.0  0.37233  0.75989  0.67544  1.0000
  H   H370      1.0  0.00238  0.88155  0.56976  1.0000
  H   H371      1.0  0.48508  0.91449  0.95478  1.0000
  H   H372      1.0  0.24657  0.81680  0.53582  1.0000
  C   C317      1.0  0.38296  0.89073  0.98446  1.0000
  C   C318      1.0  0.34732  0.92020  0.96085  1.0000
  C   C319      1.0  0.36887  0.91353  0.94202  1.0000
  C   C320      1.0  0.39745  0.89566  0.94441  1.0000
  C   C321      1.0  0.40451  0.88404  0.96563  1.0000
  C   C322      1.0  0.48837  0.83157  0.78649  1.0000
  C   C323      1.0  0.23917  0.95535  0.89802  1.0000
  H   H373      1.0  0.36342  0.92219  0.92543  1.0000
  H   H374      1.0  0.41357  0.89067  0.92972  1.0000
  H   H375      1.0  0.44299  0.83913  0.81010  1.0000
  H   H376      1.0  0.33816  0.76111  0.63557  1.0000
  C   C324      1.0  0.40614  0.97484  0.99114  1.0000
  H   H377      1.0  0.04319  0.91598  0.55415  1.0000
  H   H378      1.0  0.29920  0.77349  0.53777  1.0000
  C   C325      1.0  0.06285  0.92389  0.54194  1.0000
  H   H379      1.0  0.41858  0.77524  0.96851  1.0000
  H   H380      1.0  0.36106  0.78756  0.63075  1.0000
  H   H381      1.0  0.04433  0.92621  0.52477  1.0000
  Fe  Fe45      1.0  0.28209  0.96195  0.98540  1.0000
  H   H382      1.0  0.36737  0.76459  0.61101  1.0000
  H   H383      1.0  0.35277  0.72791  0.65511  1.0000
  H   H384      1.0  0.22693  0.74755  0.51798  1.0000
  C   C326      1.0  0.04507  0.98317  0.54229  1.0000
  C   C327      1.0  0.45185  0.70461  0.63285  1.0000
  H   H385      1.0  0.05411  0.91553  0.63175  1.0000
  C   C328      1.0  0.01724  0.95710  0.56884  1.0000
  N   N22       1.0  0.08078  0.94544  0.55095  1.0000
  H   H386      1.0  0.48141  0.73242  0.69446  1.0000
  C   C329      1.0  0.41029  0.73735  0.64187  1.0000
  H   H387      1.0  0.26191  0.94539  0.90962  1.0000
  H   H388      1.0  0.13451  0.93986  0.53288  1.0000
  H   H389      1.0  0.39693  0.78600  0.67166  1.0000
  H   H390      1.0  0.36456  0.68731  0.65387  1.0000
  S   S93       1.0  0.21596  0.96160  0.99345  1.0000
  H   H391      1.0  0.25592  0.82104  0.49746  1.0000
  H   H392      1.0  0.41675  0.98713  0.97850  1.0000
  H   H393      1.0  0.18936  0.76322  0.53243  1.0000
  C   C330      1.0  0.18035  0.98386  0.87221  1.0000
  H   H394      1.0  0.46606  0.74586  0.97108  1.0000
  H   H395      1.0  0.48002  0.69778  0.62736  1.0000
  C   C331      1.0  0.44610  0.72791  0.63372  1.0000
  C   C332      1.0  0.39985  0.76751  0.66900  1.0000
  C   C333      1.0  0.04769  0.96192  0.55374  1.0000
  H   H396      1.0  0.43317  0.93131  0.97677  1.0000
  Fe  Fe46      1.0  0.48607  0.84974  0.94481  1.0000
  S   S94       1.0  0.11728  0.79177  0.52378  1.0000
  C   C334      1.0  0.36596  0.76899  0.62975  1.0000
  N   N23       1.0  0.23143  0.97777  0.90822  1.0000
  H   H397      1.0  0.46728  0.77189  0.64755  1.0000
  C   C335      1.0  0.43798  0.77557  0.63666  1.0000
  H   H398      1.0  0.46312  0.69257  0.70086  1.0000
  H   H399      1.0  0.29468  0.97831  0.92295  1.0000
  C   C336      1.0  0.38067  0.72200  0.64867  1.0000
  H   H400      1.0  0.12349  0.74383  0.51756  1.0000
  H   H401      1.0  0.28972  0.76794  0.50681  1.0000
  H   H402      1.0  0.23776  0.75658  0.54774  1.0000
  H   H403      1.0  0.18381  0.96593  0.92806  1.0000
  H   H404      1.0  0.44235  0.77264  0.61795  1.0000
  S   S95       1.0  0.47892  0.81829  0.92297  1.0000
  C   C337      1.0  0.22259  0.76160  0.53029  1.0000
  H   H405      1.0  0.25171  0.95695  0.88082  1.0000
  H   H406      1.0  0.13001  0.92939  0.57278  1.0000
  H   H407      1.0  0.12632  0.96849  0.54055  1.0000
  C   C338      1.0  0.21444  0.97400  0.93080  1.0000
  H   H408      1.0  0.18380  0.96693  0.86591  1.0000
  C   C339      1.0  0.44491  0.78699  0.97094  1.0000
  H   H409      1.0  0.08693  0.91124  0.53929  1.0000
  S   S96       1.0  0.47981  0.80031  0.69894  1.0000
  C   C340      1.0  0.35471  0.90876  0.98216  1.0000
  H   H410      1.0  0.11729  0.95731  0.58177  1.0000
  H   H411      1.0  0.42823  0.67206  0.64042  1.0000
  C   C341      1.0  0.11025  0.95279  0.53452  1.0000
  C   C342      1.0  0.21955  0.79047  0.49890  1.0000
  H   H412      1.0  0.42705  0.76155  0.68053  1.0000
  C   C343      1.0  0.02811  0.91188  0.61920  1.0000
  C   C344      1.0  0.28373  0.77997  0.52094  1.0000
  H   H413      1.0  0.19975  0.80343  0.54111  1.0000
  N   N24       1.0  0.40390  0.76191  0.64417  1.0000
  Fe  Fe47      1.0  0.46651  0.82799  0.67193  1.0000
  C   C345      1.0  0.10430  0.94140  0.57405  1.0000
  S   S97       1.0  0.48271  0.83788  0.85706  1.0000
  H   H414      1.0  0.39033  0.96099  0.98086  1.0000
  C   C346      1.0  0.47460  0.83460  0.80882  1.0000
  C   C347      1.0  0.46343  0.93847  0.97890  1.0000
  H   H415      1.0  0.46739  0.83376  0.77086  1.0000
  H   H416      1.0  0.21094  0.94495  0.89586  1.0000
  H   H417      1.0  0.46749  0.78221  0.95857  1.0000
  H   H418      1.0  0.47093  0.73807  0.62867  1.0000
  C   C348      1.0  0.09844  0.74955  0.50532  1.0000
  C   C349      1.0  0.48828  0.69641  0.69080  1.0000
  H   H419      1.0  0.48655  0.82053  0.99036  1.0000
  C   C350      1.0  0.98986  0.92201  0.62189  1.0000
  C   C351      1.0  0.27157  0.98921  0.91277  1.0000
  C   C352      1.0  0.47281  0.95684  0.99429  1.0000
  Fe  Fe48      1.0  0.77963  0.14440  0.46658  1.0000
  S   S98       1.0  0.83435  0.15895  0.45111  1.0000
  S   S99       1.0  0.71141  0.15243  0.45449  1.0000
  Fe  Fe49      1.0  0.86335  0.12454  0.45733  1.0000
  S   S100      1.0  0.89298  0.10283  0.43038  1.0000
  C   C353      1.0  0.92156  0.04323  0.46042  1.0000
  S   S101      1.0  0.80732  0.10947  0.47101  1.0000
  C   C354      1.0  0.80444  0.02097  0.13967  1.0000
  S   S102      1.0  0.54035  0.12310  0.05110  1.0000
  C   C355      1.0  0.62003  0.13491  0.00946  1.0000
  C   C356      1.0  0.54003  0.09681  0.40928  1.0000
  Fe  Fe50      1.0  0.51908  0.16882  0.34753  1.0000
  S   S103      1.0  0.58494  0.15753  0.36077  1.0000
  H   H420      1.0  0.71498  0.02656  0.10411  1.0000
  S   S104      1.0  0.77589  0.02913  0.02839  1.0000
  H   H421      1.0  0.69395  0.19473  0.38633  1.0000
  H   H422      1.0  0.62711  0.26156  0.41753  1.0000
  C   C357      1.0  0.65186  0.12487  0.02367  1.0000
  Fe  Fe51      1.0  0.71314  0.02687  0.04089  1.0000
  S   S105      1.0  0.69247  0.05524  0.06395  1.0000
  H   H423      1.0  0.75858  0.06023  0.13520  1.0000
  C   C358      1.0  0.49812  0.12723  0.39263  1.0000
  H   H424      1.0  0.92571  0.07423  0.39649  1.0000
  H   H425      1.0  0.93539  0.00706  0.48335  1.0000
  H   H426      1.0  0.58919  0.25473  0.35277  1.0000
  H   H427      1.0  0.50418  0.07628  0.43152  1.0000
  C   C359      1.0  0.58003  0.10544  0.40828  1.0000
  C   C360      1.0  0.57916  0.10211  0.05631  1.0000
  C   C361      1.0  0.60556  0.10154  0.07703  1.0000
  C   C362      1.0  0.63947  0.08674  0.07921  1.0000
  C   C363      1.0  0.64708  0.07201  0.06093  1.0000
  C   C364      1.0  0.61979  0.07193  0.04055  1.0000
  C   C365      1.0  0.58637  0.08709  0.03817  1.0000
  H   H428      1.0  0.60078  0.11312  0.09103  1.0000
  H   H429      1.0  0.66030  0.08700  0.09506  1.0000
  H   H430      1.0  0.62510  0.06073  0.02634  1.0000
  H   H431      1.0  0.56645  0.08754  0.02197  1.0000
  H   H432      1.0  0.57837  0.22528  0.34886  1.0000
  S   S106      1.0  0.72534  0.99250  0.05671  1.0000
  H   H433      1.0  0.54916  0.15545  0.21266  1.0000
  S   S107      1.0  0.89185  0.13375  0.49307  1.0000
  C   C366      1.0  0.67736  0.15445  0.42798  1.0000
  C   C367      1.0  0.68864  0.14789  0.40609  1.0000
  C   C368      1.0  0.66010  0.14912  0.38588  1.0000
  C   C369      1.0  0.61986  0.15709  0.38702  1.0000
  C   C370      1.0  0.60856  0.16371  0.40888  1.0000
  C   C371      1.0  0.63703  0.16234  0.42911  1.0000
  H   H434      1.0  0.71931  0.14167  0.40476  1.0000
  H   H435      1.0  0.66938  0.14381  0.36918  1.0000
  H   H436      1.0  0.57780  0.16965  0.41033  1.0000
  H   H437      1.0  0.62769  0.16737  0.44588  1.0000
  C   C372      1.0  0.56543  0.07907  0.44665  1.0000
  C   C373      1.0  0.94444  0.09501  0.42645  1.0000
  H   H438      1.0  0.75154  0.06034  0.10399  1.0000
  C   C374      1.0  0.97807  0.10235  0.44141  1.0000
  H   H439      1.0  0.72281  0.02253  0.13528  1.0000
  H   H440      1.0  0.91701  0.01140  0.02311  1.0000
  C   C375      1.0  0.72464  0.07302  0.99816  1.0000
  H   H441      1.0  0.79684  0.00500  0.09479  1.0000
  Fe  Fe52      1.0  0.78589  0.99374  0.04184  1.0000
  H   H442      1.0  0.55161  0.23597  0.15830  1.0000
  H   H443      1.0  0.87721  0.99643  0.19211  1.0000
  C   C376      1.0  0.69963  0.22258  0.41020  1.0000
  H   H444      1.0  0.62873  0.08490  0.45893  1.0000
  H   H445      1.0  0.57409  0.27379  0.38993  1.0000
  C   C377      1.0  0.68041  0.24138  0.41868  1.0000
  C   C378      1.0  0.77243  0.05447  0.11933  1.0000
  C   C379      1.0  0.79573  0.02349  0.09745  1.0000
  C   C380      1.0  0.60425  0.08798  0.44515  1.0000
  H   H446      1.0  0.82770  0.02968  0.09764  1.0000
  C   C381      1.0  0.67905  0.20946  0.39275  1.0000
  S   S108      1.0  0.50688  0.19783  0.32213  1.0000
  H   H447      1.0  0.95418  0.04101  0.46743  1.0000
  C   C382      1.0  0.95141  0.08009  0.40817  1.0000
  N   N25       1.0  0.77777  0.02963  0.11924  1.0000
  H   H448      1.0  0.62404  0.20377  0.37080  1.0000
  H   H449      1.0  0.83289  0.06065  0.48010  1.0000
  Fe  Fe53      1.0  0.85918  0.16717  0.48851  1.0000
  H   H450      1.0  0.91495  0.08384  0.47697  1.0000
  H   H451      1.0  0.53016  0.08037  0.36608  1.0000
  H   H452      1.0  0.49356  0.10064  0.35335  1.0000
  Fe  Fe54      1.0  0.50140  0.14019  0.07708  1.0000
  H   H453      1.0  0.53755  0.24455  0.35146  1.0000
  H   H454      1.0  0.97338  0.11377  0.45556  1.0000
  S   S109      1.0  0.68380  0.01352  0.00666  1.0000
  H   H455      1.0  0.77763  0.03061  0.08168  1.0000
  C   C383      1.0  0.67647  0.10846  0.01462  1.0000
  C   C384      1.0  0.53359  0.08341  0.42907  1.0000
  H   H456      1.0  0.52223  0.16221  0.25102  1.0000
  H   H457      1.0  0.82280  0.05337  0.15598  1.0000
  H   H458      1.0  0.58710  0.11600  0.39398  1.0000
  C   C385      1.0  0.52962  0.22310  0.15068  1.0000
  H   H459      1.0  0.55482  0.21477  0.40929  1.0000
  H   H460      1.0  0.60001  0.14691  0.01690  1.0000
  H   H461      1.0  0.55750  0.20286  0.38076  1.0000
  H   H462      1.0  0.69663  0.25152  0.43229  1.0000
  H   H463      1.0  0.65627  0.12914  0.04213  1.0000
  N   N26       1.0  0.57466  0.23791  0.38402  1.0000
  C   C386      1.0  0.54991  0.21842  0.39020  1.0000
  C   C387      1.0  0.55732  0.25836  0.39425  1.0000
  C   C388      1.0  0.56991  0.24071  0.35820  1.0000
  C   C389      1.0  0.61811  0.23361  0.39246  1.0000
  C   C390      1.0  0.64025  0.24694  0.41001  1.0000
  C   C391      1.0  0.63896  0.21485  0.38394  1.0000
  C   C392      1.0  0.85128  0.02644  0.17545  1.0000
  C   C393      1.0  0.51929  0.09804  0.36732  1.0000
  H   H464      1.0  0.64163  0.10832  0.42498  1.0000
  H   H465      1.0  0.69951  0.10087  0.02696  1.0000
  H   H466      1.0  0.51663  0.22151  0.38572  1.0000
  H   H467      1.0  0.83950  0.03819  0.45989  1.0000
  H   H468      1.0  0.55740  0.25694  0.41357  1.0000
  H   H469      1.0  0.52474  0.26117  0.38725  1.0000
  C   C394      1.0  0.85363  0.05379  0.46770  1.0000
  C   C395      1.0  0.73643  0.01948  0.11860  1.0000
  S   S110      1.0  0.51139  0.17243  0.09788  1.0000
  H   H470      1.0  0.92117  0.05665  0.44690  1.0000
  H   H471      1.0  0.73043  0.21803  0.41730  1.0000
  C   C396      1.0  0.51713  0.15952  0.21314  1.0000
  H   H472      1.0  0.53543  0.20726  0.16083  1.0000
  H   H473      1.0  0.85198  0.99581  0.00497  1.0000
  C   C397      1.0  0.85691  0.00328  0.17774  1.0000
  H   H474      1.0  0.91047  0.02776  0.45092  1.0000
  C   C398      1.0  0.81086  0.99749  0.14263  1.0000
  H   H475      1.0  0.74793  0.08538  0.00541  1.0000
  C   C399      1.0  0.61152  0.10112  0.42598  1.0000
  H   H476      1.0  0.55990  0.06893  0.46169  1.0000
  H   H477      1.0  0.85382  0.06647  0.45341  1.0000
  N   N27       1.0  0.50674  0.10287  0.39096  1.0000
  H   H478      1.0  0.52511  0.13767  0.38963  1.0000
  C   C400      1.0  0.91078  0.01136  0.00418  1.0000
  H   H479      1.0  0.48892  0.13176  0.41016  1.0000
  H   H480      1.0  0.80194  0.06330  0.11820  1.0000
  N   N28       1.0  0.89547  0.04932  0.47914  1.0000
  C   C401      1.0  0.50199  0.16345  0.23497  1.0000
  S   S111      1.0  0.51272  0.15673  0.16492  1.0000
  H   H481      1.0  0.54406  0.10936  0.36258  1.0000
  Fe  Fe55      1.0  0.74750  0.01325  0.99524  1.0000
  C   C402      1.0  0.82549  0.03528  0.15673  1.0000
  H   H482      1.0  0.70995  0.06532  0.01287  1.0000
  C   C403      1.0  0.49136  0.16090  0.19201  1.0000
  H   H483      1.0  0.53739  0.21904  0.13271  1.0000
  H   H484      1.0  0.73676  0.00103  0.11551  1.0000
  H   H485      1.0  0.86724  0.03759  0.18823  1.0000
  H   H486      1.0  0.50017  0.26408  0.13751  1.0000
  H   H487      1.0  0.96717  0.02697  0.99883  1.0000
  H   H488      1.0  0.49909  0.20678  0.19128  1.0000
  C   C404      1.0  0.91189  0.07041  0.49021  1.0000
  C   C405      1.0  0.89817  0.19954  0.59189  1.0000
  C   C406      1.0  0.89385  0.03166  0.49720  1.0000
  H   H489      1.0  0.92250  0.10960  0.74604  1.0000
  Fe  Fe56      1.0  0.97046  0.32219  0.80465  1.0000
  H   H490      1.0  0.73665  0.10657  0.96797  1.0000
  S   S112      1.0  0.94240  0.24842  0.84895  1.0000
  C   C407      1.0  0.98409  0.17343  0.84798  1.0000
  C   C408      1.0  0.92695  0.19420  0.76469  1.0000
  S   S113      1.0  0.91726  0.30740  0.82085  1.0000
  S   S114      1.0  0.93350  0.04973  0.86752  1.0000
  H   H491      1.0  0.95972  0.03671  0.78170  1.0000
  S   S115      1.0  0.90765  0.10110  0.85139  1.0000
  H   H492      1.0  0.89173  0.07747  0.50283  1.0000
  Fe  Fe57      1.0  0.92012  0.08208  0.88541  1.0000
  S   S116      1.0  0.88943  0.08556  0.91908  1.0000
  Fe  Fe58      1.0  0.92715  0.06923  0.83358  1.0000
  S   S117      1.0  0.88766  0.05801  0.79988  1.0000
  S   S118      1.0  0.88796  0.99124  0.63730  1.0000
  C   C409      1.0  0.89700  0.10975  0.75738  1.0000
  H   H493      1.0  0.97059  0.19121  0.55386  1.0000
  S   S119      1.0  0.85424  0.10035  0.54040  1.0000
  H   H494      1.0  0.66985  0.00122  0.67026  1.0000
  N   N29       1.0  0.69379  0.08353  0.98077  1.0000
  C   C410      1.0  0.63791  0.11276  0.97659  1.0000
  Fe  Fe59      1.0  0.96246  0.28499  0.84223  1.0000
  S   S120      1.0  0.78702  0.01921  0.59954  1.0000
  H   H495      1.0  0.92173  0.03863  0.92027  1.0000
  C   C411      1.0  0.94992  0.02857  0.92528  1.0000
  C   C412      1.0  0.83474  0.07761  0.55629  1.0000
  C   C413      1.0  0.86015  0.06781  0.57484  1.0000
  C   C414      1.0  0.84631  0.04986  0.58809  1.0000
  C   C415      1.0  0.80656  0.04155  0.58312  1.0000
  C   C416      1.0  0.78121  0.05130  0.56448  1.0000
  C   C417      1.0  0.79521  0.06910  0.55107  1.0000
  H   H496      1.0  0.89082  0.07415  0.57908  1.0000
  H   H497      1.0  0.86625  0.04263  0.60233  1.0000
  H   H498      1.0  0.75042  0.04506  0.56041  1.0000
  H   H499      1.0  0.77518  0.07640  0.53692  1.0000
  C   C418      1.0  0.85352  0.06704  0.92966  1.0000
  C   C419      1.0  0.84731  0.06778  0.95352  1.0000
  C   C420      1.0  0.81821  0.05381  0.96256  1.0000
  C   C421      1.0  0.79429  0.03938  0.94763  1.0000
  C   C422      1.0  0.80065  0.03856  0.92381  1.0000
  C   C423      1.0  0.83052  0.05210  0.91490  1.0000
  H   H500      1.0  0.86508  0.07927  0.96506  1.0000
  H   H501      1.0  0.81401  0.05443  0.98097  1.0000
  H   H502      1.0  0.78224  0.02746  0.91214  1.0000
  H   H503      1.0  0.83490  0.05144  0.89649  1.0000
  C   C424      1.0  0.89485  0.04178  0.77420  1.0000
  C   C425      1.0  0.86083  0.03745  0.75778  1.0000
  C   C426      1.0  0.86481  0.02500  0.73707  1.0000
  C   C427      1.0  0.90309  0.01675  0.73230  1.0000
  C   C428      1.0  0.93715  0.02124  0.74865  1.0000
  C   C429      1.0  0.93314  0.03358  0.76942  1.0000
  H   H504      1.0  0.83101  0.04364  0.76115  1.0000
  H   H505      1.0  0.83825  0.02179  0.72481  1.0000
  H   H506      1.0  0.79463  0.30858  0.54440  1.0000
  C   C430      1.0  0.93919  0.02019  0.99012  1.0000
  H   H507      1.0  0.87156  0.19251  0.59870  1.0000
  C   C431      1.0  0.93462  0.20257  0.85591  1.0000
  C   C432      1.0  0.94654  0.17965  0.85568  1.0000
  C   C433      1.0  0.92382  0.16336  0.79185  1.0000
  H   H508      1.0  0.86834  0.11542  0.74702  1.0000
  H   H509      1.0  0.95690  0.23384  0.50998  1.0000
  H   H510      1.0  0.90546  0.20704  0.86185  1.0000
  H   H511      1.0  0.92658  0.16682  0.86141  1.0000
  C   C434      1.0  0.88742  0.99794  0.53167  1.0000
  C   C435      1.0  0.95995  0.21976  0.84862  1.0000
  C   C436      1.0  0.89894  0.26233  0.54644  1.0000
  C   C437      1.0  0.93193  0.25716  0.53374  1.0000
  C   C438      1.0  0.93108  0.23761  0.51959  1.0000
  C   C439      1.0  0.89735  0.22288  0.51781  1.0000
  C   C440      1.0  0.86420  0.22817  0.53036  1.0000
  C   C441      1.0  0.86504  0.24771  0.54451  1.0000
  H   H512      1.0  0.95820  0.26815  0.53488  1.0000
  C   C442      1.0  0.93016  0.18613  0.78754  1.0000
  N   N30       1.0  0.96234  0.02975  0.95086  1.0000
  H   H513      1.0  0.73499  0.07943  0.95407  1.0000
  C   C443      1.0  0.65199  0.00472  0.62387  1.0000
  N   N31       1.0  0.90542  0.16491  0.56737  1.0000
  C   C444      1.0  0.86338  0.16655  0.55541  1.0000
  C   C445      1.0  0.93152  0.15439  0.55069  1.0000
  C   C446      1.0  0.90504  0.14947  0.58764  1.0000
  C   C447      1.0  0.91941  0.18754  0.57544  1.0000
  C   C448      1.0  0.94374  0.23131  0.59093  1.0000
  S   S121      1.0  0.89893  0.19807  0.50006  1.0000
  C   C449      1.0  0.89356  0.01136  0.95550  1.0000
  C   C450      1.0  0.86942  0.03481  0.51595  1.0000
  H   H514      1.0  0.92700  0.15792  0.80991  1.0000
  C   C451      1.0  0.66593  0.06542  0.97119  1.0000
  H   H515      1.0  0.85189  0.14981  0.54905  1.0000
  H   H516      1.0  0.84102  0.17309  0.56699  1.0000
  H   H517      1.0  0.96368  0.15240  0.55857  1.0000
  H   H518      1.0  0.93123  0.16443  0.53428  1.0000
  H   H519      1.0  0.92038  0.13730  0.54522  1.0000
  H   H520      1.0  0.89603  0.13207  0.58193  1.0000
  H   H521      1.0  0.93579  0.14850  0.59772  1.0000
  C   C452      1.0  0.95343  0.19851  0.56704  1.0000
  S   S122      1.0  0.97057  0.31028  0.87194  1.0000
  C   C453      1.0  0.61330  0.12903  0.98591  1.0000
  H   H522      1.0  0.64446  0.07115  0.95616  1.0000
  C   C454      1.0  0.91082  0.15664  0.75015  1.0000
  H   H523      1.0  0.91501  0.18589  0.72827  1.0000
  N   N32       1.0  0.90687  0.12390  0.77854  1.0000
  C   C455      1.0  0.66980  0.10164  0.99077  1.0000
  H   H524      1.0  0.83640  0.99595  0.96194  1.0000
  C   C456      1.0  0.71588  0.09263  0.96159  1.0000
  C   C457      1.0  0.91383  0.14789  0.77332  1.0000
  H   H525      1.0  0.84700  0.02089  0.54684  1.0000
  H   H526      1.0  0.67523  0.01757  0.62028  1.0000
  S   S123      1.0  0.89812  0.28661  0.56499  1.0000
  H   H527      1.0  0.83927  0.25145  0.55416  1.0000
  H   H528      1.0  0.96205  0.00566  0.56495  1.0000
  H   H529      1.0  0.97394  0.03553  0.91496  1.0000
  H   H530      1.0  0.98405  0.05606  0.97511  1.0000
  S   S124      1.0  0.75491  0.02284  0.95761  1.0000
  H   H531      1.0  0.89195  0.09183  0.76210  1.0000
  C   C458      1.0  0.91017  0.22112  0.59940  1.0000
  H   H532      1.0  0.64734  0.05886  0.98484  1.0000
  H   H533      1.0  0.96696  0.01503  0.74526  1.0000
  C   C459      1.0  0.96971  0.05376  0.95693  1.0000
  H   H534      1.0  0.84390  0.12966  0.78410  1.0000
  H   H535      1.0  0.87861  0.13057  0.81030  1.0000
  Fe  Fe60      1.0  0.94037  0.31560  0.57952  1.0000
  H   H536      1.0  0.83782  0.21727  0.52913  1.0000
  Fe  Fe61      1.0  0.83473  0.12052  0.50677  1.0000
  S   S125      1.0  0.80326  0.15446  0.50382  1.0000
  H   H537      1.0  0.93773  0.19758  0.80207  1.0000
  H   H538      1.0  0.94049  0.06346  0.95518  1.0000
  H   H539      1.0  0.86546  0.10419  0.79704  1.0000
  C   C460      1.0  0.91227  0.99439  0.51375  1.0000
  C   C461      1.0  0.96542  0.21999  0.57491  1.0000
  H   H540      1.0  0.86246  0.17801  0.54002  1.0000
  C   C462      1.0  0.86622  0.01815  0.53282  1.0000
  H   H541      1.0  0.88274  0.15477  0.59987  1.0000
  H   H542      1.0  0.95222  0.24833  0.59623  1.0000
  S   S126      1.0  0.91048  0.00106  0.70627  1.0000
  C   C463      1.0  0.86549  0.00247  0.96975  1.0000
  H   H543      1.0  0.90356  0.14620  0.73494  1.0000
  H   H544      1.0  0.97154  0.11680  0.78208  1.0000
  C   C464      1.0  0.93155  0.02040  0.96531  1.0000
  H   H545      1.0  0.63129  0.10864  0.95828  1.0000
  H   H546      1.0  0.62939  0.01325  0.63403  1.0000
  H   H547      1.0  0.94103  0.09592  0.79467  1.0000
  H   H548      1.0  0.94263  0.06765  0.49984  1.0000
  C   C465      1.0  0.94414  0.11430  0.79167  1.0000
  H   H549      1.0  0.71625  0.00474  0.65745  1.0000
  S   S127      1.0  0.80326  0.99291  0.66406  1.0000
  C   C466      1.0  0.91735  0.17950  0.74603  1.0000
  C   C467      1.0  0.87225  0.12205  0.79309  1.0000
  H   H550      1.0  0.89290  0.23027  0.61146  1.0000
  H   H551      1.0  0.93202  0.21189  0.76149  1.0000
  C   C468      1.0  0.91567  0.01095  0.49673  1.0000
  H   H552      1.0  0.68315  0.05093  0.96460  1.0000
  H   H553      1.0  0.85238  0.05023  0.51765  1.0000
  H   H554      1.0  0.95095  0.12205  0.80923  1.0000
  H   H555      1.0  0.69477  0.09922  0.94681  1.0000
  H   H556      1.0  0.58837  0.13687  0.97496  1.0000
  H   H557      1.0  0.88435  0.01129  0.93690  1.0000
  H   H558      1.0  0.74169  0.05933  0.99013  1.0000
  H   H559      1.0  0.63571  0.99963  0.60672  1.0000
  H   H560      1.0  0.85924  0.31721  0.53018  1.0000
  Fe  Fe62      1.0  0.82042  0.99556  0.62697  1.0000
  H   H561      1.0  0.94475  0.01094  0.91921  1.0000
  C   C469      1.0  0.98544  0.99350  0.56162  1.0000
  Fe  Fe63      1.0  0.97437  0.11009  0.85593  1.0000
  S   S128      1.0  0.98599  0.09301  0.89115  1.0000
  C   C470      1.0  0.69122  0.99255  0.65947  1.0000
  H   H562      1.0  0.72818  0.98945  0.62109  1.0000
  H   H563      1.0  0.77385  0.32223  0.88845  1.0000
  C   C471      1.0  0.87403  0.00250  0.99400  1.0000
  H   H564      1.0  0.62504  0.44304  0.32002  1.0000
  H   H565      1.0  0.97279  0.61584  0.08210  1.0000
  H   H566      1.0  0.57680  0.56630  0.06066  1.0000
  S   S129      1.0  0.66248  0.50743  0.45049  1.0000
  Fe  Fe64      1.0  0.97942  0.63968  0.43213  1.0000
  H   H567      1.0  0.52407  0.45913  0.33994  1.0000
  S   S130      1.0  0.73888  0.64155  0.10432  1.0000
  H   H568      1.0  0.57073  0.43819  0.31462  1.0000
  S   S131      1.0  0.56340  0.42295  0.40532  1.0000
  H   H569      1.0  0.57981  0.53644  0.05592  1.0000
  Fe  Fe65      1.0  0.60169  0.62525  0.05632  1.0000
  S   S132      1.0  0.66001  0.60507  0.06015  1.0000
  S   S133      1.0  0.53749  0.61325  0.06335  1.0000
  C   C472      1.0  0.62329  0.47284  0.35479  1.0000
  Fe  Fe66      1.0  0.66641  0.61577  0.02299  1.0000
  C   C473      1.0  0.97492  0.55945  0.43616  1.0000
  Fe  Fe67      1.0  0.69314  0.63737  0.07110  1.0000
  H   H570      1.0  0.55605  0.45111  0.36560  1.0000
  S   S134      1.0  0.60664  0.63494  0.01854  1.0000
  S   S135      1.0  0.92121  0.61847  0.42988  1.0000
  H   H571      1.0  0.56643  0.49780  0.32453  1.0000
  S   S136      1.0  0.78126  0.50940  0.47669  1.0000
  C   C474      1.0  0.57725  0.57740  0.01466  1.0000
  H   H572      1.0  0.60479  0.48421  0.30865  1.0000
  C   C475      1.0  0.57788  0.48137  0.31855  1.0000
  H   H573      1.0  0.94723  0.62628  0.10583  1.0000
  N   N33       1.0  0.56460  0.55585  0.02453  1.0000
  C   C476      1.0  0.94489  0.52395  0.46668  1.0000
  C   C477      1.0  0.52358  0.57457  0.12116  1.0000
  C   C478      1.0  0.54154  0.58762  0.10440  1.0000
  C   C479      1.0  0.51774  0.59531  0.08437  1.0000
  H   H574      1.0  0.62920  0.44120  0.37435  1.0000
  H   H575      1.0  0.68426  0.45353  0.40287  1.0000
  H   H576      1.0  0.54201  0.56930  0.13693  1.0000
  H   H577      1.0  0.57343  0.59230  0.10737  1.0000
  C   C480      1.0  0.88488  0.59652  0.49211  1.0000
  C   C481      1.0  0.63870  0.49519  0.35515  1.0000
  C   C482      1.0  0.81965  0.65209  0.09603  1.0000
  S   S137      1.0  0.50936  0.40707  0.34325  1.0000
  C   C483      1.0  0.84590  0.57612  0.46107  1.0000
  C   C484      1.0  0.86690  0.58774  0.44456  1.0000
  C   C485      1.0  0.89724  0.60367  0.45169  1.0000
  C   C486      1.0  0.90662  0.60774  0.47563  1.0000
  H   H578      1.0  0.53212  0.62040  0.15372  1.0000
  H   H579      1.0  0.82245  0.56405  0.45528  1.0000
  H   H580      1.0  0.85931  0.58446  0.42610  1.0000
  H   H581      1.0  0.70897  0.49265  0.40303  1.0000
  C   C487      1.0  0.96447  0.54433  0.47432  1.0000
  C   C488      1.0  0.63297  0.48375  0.43999  1.0000
  C   C489      1.0  0.64500  0.46169  0.44581  1.0000
  C   C490      1.0  0.62268  0.44335  0.43548  1.0000
  C   C491      1.0  0.58769  0.44677  0.41955  1.0000
  C   C492      1.0  0.57468  0.46884  0.41449  1.0000
  C   C493      1.0  0.59752  0.48718  0.42440  1.0000
  H   H582      1.0  0.67215  0.45874  0.45774  1.0000
  H   H583      1.0  0.63296  0.42638  0.43962  1.0000
  H   H584      1.0  0.54737  0.47181  0.40276  1.0000
  H   H585      1.0  0.58782  0.50417  0.41988  1.0000
  C   C494      1.0  0.50337  0.62491  0.14382  1.0000
  N   N34       1.0  0.58802  0.46559  0.33839  1.0000
  H   H586      1.0  0.68016  0.51934  0.37272  1.0000
  C   C495      1.0  0.84820  0.65314  0.14387  1.0000
  H   H587      1.0  0.54520  0.48025  0.35999  1.0000
  C   C496      1.0  0.58621  0.55314  0.04841  1.0000
  H   H588      1.0  0.92958  0.62005  0.48143  1.0000
  H   H589      1.0  0.51331  0.57097  0.03950  1.0000
  H   H590      1.0  0.50837  0.54148  0.03395  1.0000
  H   H591      1.0  0.61991  0.55495  0.04874  1.0000
  C   C497      1.0  0.59581  0.44317  0.32821  1.0000
  C   C498      1.0  0.57541  0.53731  0.00904  1.0000
  H   H592      1.0  0.62665  0.50784  0.34285  1.0000
  H   H593      1.0  0.56839  0.59195  0.02520  1.0000
  C   C499      1.0  0.67220  0.46499  0.38916  1.0000
  H   H594      1.0  0.51087  0.49525  0.03023  1.0000
  H   H595      1.0  0.59710  0.42944  0.34141  1.0000
  Fe  Fe68      1.0  0.71358  0.50785  0.48079  1.0000
  H   H596      1.0  0.98558  0.58941  0.47076  1.0000
  C   C500      1.0  0.66963  0.50208  0.37222  1.0000
  H   H597      1.0  0.78608  0.64431  0.14933  1.0000
  C   C501      1.0  0.84726  0.65318  0.46367  1.0000
  S   S138      1.0  0.70319  0.64684  0.03425  1.0000
  C   C502      1.0  0.55176  0.46397  0.35153  1.0000
  C   C503      1.0  0.52009  0.55740  0.02705  1.0000
  H   H598      1.0  0.50203  0.56185  0.01022  1.0000
  C   C504      1.0  0.68618  0.48704  0.38925  1.0000
  C   C505      1.0  0.91539  0.51394  0.47919  1.0000
  H   H599      1.0  0.55262  0.47479  0.30590  1.0000
  C   C506      1.0  0.64087  0.45801  0.37246  1.0000
  H   H600      1.0  0.61097  0.57834  0.01418  1.0000
  Fe  Fe69      1.0  0.50493  0.41912  0.38013  1.0000
  H   H601      1.0  0.94622  0.56938  0.43660  1.0000
  H   H602      1.0  0.96695  0.54378  0.42625  1.0000
  C   C507      1.0  0.85431  0.58068  0.48495  1.0000
  H   H603      1.0  0.80927  0.65156  0.07756  1.0000
  H   H604      1.0  0.85868  0.65350  0.16234  1.0000
  H   H605      1.0  0.79595  0.40351  0.48629  1.0000
  H   H606      1.0  0.95170  0.51579  0.45072  1.0000
  H   H607      1.0  0.50266  0.42115  0.00638  1.0000
  H   H608      1.0  0.53246  0.64194  0.11696  1.0000
  C   C508      1.0  0.50365  0.63706  0.12312  1.0000
  H   H609      1.0  0.50118  0.45971  0.00973  1.0000
  H   H610      1.0  0.90000  0.49868  0.47279  1.0000
  C   C509      1.0  0.79207  0.64745  0.11245  1.0000
  C   C510      1.0  0.80801  0.63603  0.49236  1.0000
  H   H611      1.0  0.85501  0.65259  0.44584  1.0000
  C   C511      1.0  0.80686  0.64792  0.13640  1.0000
  S   S139      1.0  0.69176  0.58841  0.00000  1.0000
  C   C512      1.0  0.81867  0.63734  0.46956  1.0000
  H   H612      1.0  0.95860  0.59698  0.10477  1.0000
  H   H613      1.0  0.64160  0.54160  0.01622  1.0000
  H   H614      1.0  0.80590  0.62535  0.45658  1.0000
  C   C513      1.0  0.61706  0.53214  0.00684  1.0000
  C   C514      1.0  0.97081  0.61393  0.10122  1.0000
  H   H615      1.0  0.97876  0.62685  0.14458  1.0000
  H   H616      1.0  0.56283  0.57985  0.99645  1.0000
  H   H617      1.0  0.51315  0.52811  0.99449  1.0000
  C   C515      1.0  0.54553  0.52500  0.99457  1.0000
  S   S140      1.0  0.79599  0.51286  0.53425  1.0000
  H   H618      1.0  0.88318  0.41682  0.51206  1.0000
  Fe  Fe70      1.0  0.72752  0.51153  0.53407  1.0000
  S   S141      1.0  0.69522  0.50840  0.56721  1.0000
  H   H619      1.0  0.94388  0.46586  0.58309  1.0000
  Fe  Fe71      1.0  0.69431  0.45317  0.87677  1.0000
  S   S142      1.0  0.63873  0.43766  0.85697  1.0000
  S   S143      1.0  0.76021  0.43840  0.87799  1.0000
  Fe  Fe72      1.0  0.64194  0.49132  0.89686  1.0000
  S   S144      1.0  0.58406  0.47680  0.87835  1.0000
  S   S145      1.0  0.62350  0.52351  0.91565  1.0000
  Fe  Fe73      1.0  0.60797  0.44289  0.89016  1.0000
  S   S146      1.0  0.57882  0.41366  0.90886  1.0000
  Fe  Fe74      1.0  0.61959  0.47340  0.84691  1.0000
  S   S147      1.0  0.58627  0.48417  0.81119  1.0000
  S   S148      1.0  0.66424  0.45739  0.91035  1.0000
  S   S149      1.0  0.67682  0.48885  0.86490  1.0000
  H   H620      1.0  0.67484  0.37471  0.87580  1.0000
  C   C516      1.0  0.84546  0.33338  0.52331  1.0000
  Fe  Fe75      1.0  0.92753  0.36498  0.59399  1.0000
  S   S150      1.0  0.88114  0.39342  0.59424  1.0000
  S   S151      1.0  0.94533  0.34894  0.56125  1.0000
  Fe  Fe76      1.0  0.92799  0.33356  0.84920  1.0000
  C   C517      1.0  0.77214  0.38032  0.91906  1.0000
  S   S152      1.0  0.86588  0.35062  0.85491  1.0000
  C   C518      1.0  0.84522  0.35231  0.78918  1.0000
  Fe  Fe77      1.0  0.57270  0.58619  0.64793  1.0000
  H   H621      1.0  0.72752  0.55099  0.97778  1.0000
  S   S153      1.0  0.61647  0.58935  0.61995  1.0000
  Fe  Fe78      1.0  0.56226  0.57214  0.69873  1.0000
  H   H622      1.0  0.82575  0.36724  0.49754  1.0000
  S   S154      1.0  0.60233  0.55901  0.73145  1.0000
  H   H623      1.0  0.71561  0.41557  0.91994  1.0000
  Fe  Fe79      1.0  0.51878  0.61510  0.67669  1.0000
  S   S155      1.0  0.55554  0.55387  0.66417  1.0000
  S   S156      1.0  0.58454  0.60402  0.68258  1.0000
  H   H624      1.0  0.85905  0.35814  0.56312  1.0000
  H   H625      1.0  0.92010  0.36885  0.79537  1.0000
  H   H626      1.0  0.51685  0.53731  0.85743  1.0000
  H   H627      1.0  0.60699  0.49176  0.96470  1.0000
  C   C519      1.0  0.78825  0.39546  0.50220  1.0000
  C   C520      1.0  0.59223  0.50467  0.78884  1.0000
  C   C521      1.0  0.56127  0.50690  0.77006  1.0000
  C   C522      1.0  0.56391  0.52313  0.75223  1.0000
  C   C523      1.0  0.59764  0.53752  0.75293  1.0000
  C   C524      1.0  0.62892  0.53507  0.77150  1.0000
  C   C525      1.0  0.62638  0.51877  0.78924  1.0000
  H   H628      1.0  0.53479  0.49608  0.76936  1.0000
  H   H629      1.0  0.53957  0.52466  0.73814  1.0000
  H   H630      1.0  0.65528  0.54597  0.77226  1.0000
  H   H631      1.0  0.65099  0.51708  0.80314  1.0000
  C   C526      1.0  0.52990  0.41009  0.91941  1.0000
  H   H632      1.0  0.85646  0.41156  0.81829  1.0000
  H   H633      1.0  0.63571  0.37501  0.92484  1.0000
  C   C527      1.0  0.78905  0.41406  0.87042  1.0000
  C   C528      1.0  0.83185  0.41371  0.87624  1.0000
  C   C529      1.0  0.85603  0.39490  0.87104  1.0000
  C   C530      1.0  0.83774  0.37582  0.86021  1.0000
  C   C531      1.0  0.79508  0.37630  0.85399  1.0000
  C   C532      1.0  0.77105  0.39527  0.85877  1.0000
  H   H634      1.0  0.84647  0.42809  0.88504  1.0000
  H   H635      1.0  0.88867  0.39495  0.87604  1.0000
  H   H636      1.0  0.78042  0.36183  0.84541  1.0000
  H   H637      1.0  0.73871  0.39533  0.85313  1.0000
  C   C533      1.0  0.64364  0.54146  0.93893  1.0000
  C   C534      1.0  0.68293  0.53871  0.95048  1.0000
  C   C535      1.0  0.69710  0.55334  0.96895  1.0000
  C   C536      1.0  0.67232  0.57090  0.97616  1.0000
  C   C537      1.0  0.63322  0.57383  0.96437  1.0000
  C   C538      1.0  0.61900  0.55917  0.94596  1.0000
  H   H638      1.0  0.70241  0.52531  0.94524  1.0000
  H   H639      1.0  0.61418  0.58756  0.96922  1.0000
  H   H640      1.0  0.58866  0.56159  0.93709  1.0000
  C   C539      1.0  0.67210  0.53110  0.58090  1.0000
  C   C540      1.0  0.67906  0.55345  0.57491  1.0000
  C   C541      1.0  0.66155  0.57110  0.58693  1.0000
  C   C542      1.0  0.63682  0.56659  0.60492  1.0000
  C   C543      1.0  0.62957  0.54425  0.61079  1.0000
  C   C544      1.0  0.64725  0.52660  0.59888  1.0000
  H   H641      1.0  0.69827  0.55712  0.56119  1.0000
  H   H642      1.0  0.66737  0.58835  0.58231  1.0000
  H   H643      1.0  0.61083  0.54062  0.62467  1.0000
  H   H644      1.0  0.64199  0.50935  0.60368  1.0000
  C   C545      1.0  0.84461  0.43846  0.53049  1.0000
  C   C546      1.0  0.87085  0.41999  0.52851  1.0000
  C   C547      1.0  0.88117  0.40558  0.54766  1.0000
  C   C548      1.0  0.86577  0.40973  0.56908  1.0000
  C   C549      1.0  0.83916  0.42804  0.57097  1.0000
  C   C550      1.0  0.82856  0.44235  0.55176  1.0000
  H   H645      1.0  0.90150  0.39151  0.54589  1.0000
  H   H646      1.0  0.82706  0.43135  0.58746  1.0000
  H   H647      1.0  0.80817  0.45647  0.55344  1.0000
  C   C551      1.0  0.80922  0.36922  0.91699  1.0000
  C   C552      1.0  0.98270  0.41985  0.55813  1.0000
  C   C553      1.0  0.66485  0.36626  0.92184  1.0000
  N   N35       1.0  0.85629  0.37610  0.78533  1.0000
  C   C554      1.0  0.86373  0.37890  0.76045  1.0000
  H   H648      1.0  0.53167  0.57897  0.76152  1.0000
  C   C555      1.0  0.82253  0.39117  0.79081  1.0000
  C   C556      1.0  0.82778  0.40864  0.80780  1.0000
  C   C557      1.0  0.78280  0.38872  0.77880  1.0000
  C   C558      1.0  0.79524  0.42269  0.81229  1.0000
  C   C559      1.0  0.75038  0.40273  0.78362  1.0000
  C   C560      1.0  0.75660  0.41966  0.80036  1.0000
  H   H649      1.0  0.88970  0.36816  0.75594  1.0000
  H   H650      1.0  0.87125  0.39666  0.75663  1.0000
  H   H651      1.0  0.90680  0.39784  0.79710  1.0000
  C   C561      1.0  0.80968  0.34821  0.90632  1.0000
  C   C562      1.0  0.61758  0.53828  0.84967  1.0000
  H   H652      1.0  0.59169  0.59489  0.78504  1.0000
  H   H653      1.0  0.77649  0.37583  0.76568  1.0000
  H   H654      1.0  0.79970  0.43564  0.82564  1.0000
  H   H655      1.0  0.72018  0.40039  0.77443  1.0000
  H   H656      1.0  0.73137  0.43034  0.80434  1.0000
  N   N36       1.0  0.68471  0.54061  0.68111  1.0000
  C   C563      1.0  0.66864  0.56401  0.67925  1.0000
  C   C564      1.0  0.64905  0.52535  0.68126  1.0000
  C   C565      1.0  0.71015  0.53855  0.70386  1.0000
  C   C566      1.0  0.70926  0.53434  0.66183  1.0000
  C   C567      1.0  0.72361  0.51193  0.65982  1.0000
  C   C568      1.0  0.71946  0.54994  0.64457  1.0000
  C   C569      1.0  0.74501  0.50530  0.64111  1.0000
  C   C570      1.0  0.74143  0.54318  0.62616  1.0000
  C   C571      1.0  0.75356  0.52087  0.62420  1.0000
  H   H657      1.0  0.64887  0.56665  0.66255  1.0000
  H   H658      1.0  0.64967  0.56811  0.69367  1.0000
  H   H659      1.0  0.69365  0.57663  0.68045  1.0000
  H   H660      1.0  0.63100  0.52494  0.66378  1.0000
  H   H661      1.0  0.62809  0.53071  0.69433  1.0000
  H   H662      1.0  0.65803  0.50781  0.68601  1.0000
  H   H663      1.0  0.73746  0.54964  0.70443  1.0000
  H   H664      1.0  0.69251  0.54338  0.71873  1.0000
  H   H665      1.0  0.72122  0.52106  0.70729  1.0000
  H   H666      1.0  0.71774  0.49924  0.67249  1.0000
  H   H667      1.0  0.70967  0.56731  0.64433  1.0000
  H   H668      1.0  0.75437  0.48793  0.63938  1.0000
  H   H669      1.0  0.74755  0.55513  0.61269  1.0000
  H   H670      1.0  0.76879  0.51556  0.60921  1.0000
  C   C572      1.0  0.51734  0.55611  0.78850  1.0000
  H   H671      1.0  0.64589  0.39610  0.88855  1.0000
  C   C573      1.0  0.73410  0.37040  0.91065  1.0000
  S   S157      1.0  0.71627  0.53747  0.50572  1.0000
  Fe  Fe80      1.0  0.78835  0.48548  0.50737  1.0000
  N   N37       1.0  0.57616  0.54834  0.84911  1.0000
  C   C574      1.0  0.94384  0.44895  0.57480  1.0000
  N   N38       1.0  0.51152  0.53274  0.58194  1.0000
  H   H672      1.0  0.53391  0.49983  0.96756  1.0000
  H   H673      1.0  0.81664  0.64984  0.52700  1.0000
  N   N39       1.0  0.98564  0.44204  0.56993  1.0000
  C   C575      1.0  0.75322  0.39677  0.53702  1.0000
  H   H674      1.0  0.64064  0.55030  0.84434  1.0000
  H   H675      1.0  0.66663  0.40970  0.92898  1.0000
  S   S158      1.0  0.49496  0.65020  0.68649  1.0000
  H   H676      1.0  0.54826  0.51550  0.84618  1.0000
  H   H677      1.0  0.51099  0.53393  0.81656  1.0000
  C   C576      1.0  0.53972  0.57320  0.77933  1.0000
  H   H678      1.0  0.83687  0.37399  0.74820  1.0000
  N   N40       1.0  0.81497  0.34231  0.53841  1.0000
  C   C577      1.0  0.89553  0.38053  0.79983  1.0000
  S   S159      1.0  0.72071  0.48196  0.50934  1.0000
  H   H679      1.0  0.50454  0.44190  0.90732  1.0000
  S   S160      1.0  0.95909  0.33687  0.76733  1.0000
  C   C578      1.0  0.73580  0.34914  0.89946  1.0000
  Fe  Fe81      1.0  0.98378  0.33447  0.62626  1.0000
  H   H680      1.0  0.95122  0.47919  0.54399  1.0000
  C   C579      1.0  0.97152  0.33119  0.73826  1.0000
  H   H681      1.0  0.58287  0.49097  0.53017  1.0000
  H   H682      1.0  0.50117  0.56868  0.58000  1.0000
  S   S161      1.0  0.91796  0.33185  0.61151  1.0000
  C   C580      1.0  0.56491  0.54932  0.55766  1.0000
  H   H683      1.0  0.87134  0.34528  0.52244  1.0000
  C   C581      1.0  0.52184  0.39003  0.93118  1.0000
  H   H684      1.0  0.96456  0.42103  0.54070  1.0000
  H   H685      1.0  0.87102  0.34063  0.78659  1.0000
  C   C582      1.0  0.69730  0.40209  0.92736  1.0000
  H   H686      1.0  0.89254  0.37801  0.81878  1.0000
  H   H687      1.0  0.93140  0.35734  0.72318  1.0000
  H   H688      1.0  0.61738  0.52353  0.83778  1.0000
  Fe  Fe82      1.0  0.49128  0.56776  0.65932  1.0000
  H   H689      1.0  0.83860  0.34003  0.90404  1.0000
  H   H690      1.0  0.65553  0.35221  0.90974  1.0000
  C   C583      1.0  0.59816  0.50391  0.97738  1.0000
  H   H691      1.0  0.56242  0.56595  0.56494  1.0000
  H   H692      1.0  0.85206  0.32871  0.56847  1.0000
  H   H693      1.0  0.60120  0.57984  0.86298  1.0000
  H   H694      1.0  0.75953  0.33011  0.55116  1.0000
  H   H695      1.0  0.49184  0.54869  0.77773  1.0000
  C   C584      1.0  0.54208  0.53070  0.56477  1.0000
  N   N41       1.0  0.69425  0.38178  0.91220  1.0000
  S   S162      1.0  0.49680  0.58422  0.69508  1.0000
  H   H696      1.0  0.67802  0.35900  0.93884  1.0000
  H   H697      1.0  0.94923  0.35201  0.68254  1.0000
  H   H698      1.0  0.83702  0.34973  0.80732  1.0000
  H   H699      1.0  0.62220  0.52378  0.51902  1.0000
  C   C585      1.0  0.80546  0.37462  0.50906  1.0000
  C   C586      1.0  0.98348  0.47632  0.54302  1.0000
  C   C587      1.0  0.95326  0.34448  0.71968  1.0000
  H   H700      1.0  0.77428  0.39691  0.92671  1.0000
  H   H701      1.0  0.96784  0.40712  0.56868  1.0000
  C   C588      1.0  0.57764  0.56718  0.86614  1.0000
  H   H702      1.0  0.55896  0.52533  0.87549  1.0000
  C   C589      1.0  0.49903  0.42642  0.91636  1.0000
  H   H703      1.0  0.92214  0.44916  0.55861  1.0000
  C   C590      1.0  0.90470  0.52380  0.49969  1.0000
  C   C591      1.0  0.67715  0.38888  0.88848  1.0000
  C   C592      1.0  0.76998  0.37588  0.54399  1.0000
  H   H704      1.0  0.62893  0.53232  0.86753  1.0000
  H   H705      1.0  0.89145  0.60028  0.51054  1.0000
  H   H706      1.0  0.71118  0.39802  0.94535  1.0000
  C   C593      1.0  0.59951  0.52579  0.53134  1.0000
  H   H707      1.0  0.54535  0.37723  0.93366  1.0000
  H   H708      1.0  0.76195  0.36906  0.56033  1.0000
  H   H709      1.0  0.69645  0.40209  0.88151  1.0000
  H   H710      1.0  0.81487  0.34857  0.57573  1.0000
  C   C594      1.0  0.57744  0.50728  0.53777  1.0000
  C   C595      1.0  0.77308  0.33824  0.89747  1.0000
  C   C596      1.0  0.54866  0.53090  0.85730  1.0000
  S   S163      1.0  0.82650  0.56793  0.50644  1.0000
  H   H711      1.0  0.61206  0.58132  0.82471  1.0000
  C   C597      1.0  0.96329  0.34149  0.69651  1.0000
  H   H712      1.0  0.70841  0.34102  0.89165  1.0000
  C   C598      1.0  0.79707  0.36425  0.53038  1.0000
  C   C599      1.0  0.52881  0.54777  0.81100  1.0000
  H   H713      1.0  0.58567  0.56116  0.88446  1.0000
  C   C600      1.0  0.57365  0.58212  0.79263  1.0000
  H   H714      1.0  0.83794  0.37732  0.92292  1.0000
  S   S164      1.0  0.50814  0.59917  0.64078  1.0000
  C   C601      1.0  0.51069  0.55533  0.59301  1.0000
  C   C602      1.0  0.59297  0.54678  0.54108  1.0000
  H   H715      1.0  0.54755  0.57594  0.86544  1.0000
  H   H716      1.0  0.91458  0.55137  0.52362  1.0000
  S   S165      1.0  0.83316  0.45636  0.50613  1.0000
  H   H717      1.0  0.55224  0.51774  0.60934  1.0000
  H   H718      1.0  0.51600  0.49847  0.59494  1.0000
  S   S166      1.0  0.98011  0.34907  0.83236  1.0000
  C   C603      1.0  0.58514  0.57410  0.81525  1.0000
  C   C604      1.0  0.54888  0.50965  0.55407  1.0000
  C   C605      1.0  0.56300  0.55670  0.82520  1.0000
  C   C606      1.0  0.83600  0.34452  0.56242  1.0000
  H   H719      1.0  0.93061  0.43702  0.58693  1.0000
  H   H720      1.0  0.61081  0.56104  0.53628  1.0000
  C   C607      1.0  0.62808  0.51549  0.99147  1.0000
  C   C608      1.0  0.76240  0.40655  0.51619  1.0000
  H   H721      1.0  0.73353  0.40566  0.54799  1.0000
  H   H722      1.0  0.49948  0.51830  0.61511  1.0000
  H   H723      1.0  0.81890  0.34661  0.77700  1.0000
  H   H724      1.0  0.54111  0.55979  0.60220  1.0000
  C   C609      1.0  0.52028  0.51608  0.60108  1.0000
  H   H725      1.0  0.53223  0.49481  0.55824  1.0000
  H   H726      1.0  0.75025  0.42304  0.51110  1.0000
  H   H727      1.0  0.66013  0.51225  0.98972  1.0000
  H   H728      1.0  0.48844  0.55609  0.60637  1.0000
  H   H729      1.0  0.83137  0.32973  0.50527  1.0000
  H   H730      1.0  0.76495  0.32349  0.52114  1.0000
  C   C610      1.0  0.55698  0.50859  0.97898  1.0000
  Fe  Fe83      1.0  0.78472  0.53688  0.50376  1.0000
  C   C611      1.0  0.78203  0.32541  0.53879  1.0000
  C   C612      1.0  0.92400  0.54345  0.50800  1.0000
  H   H731      1.0  0.96615  0.56922  0.50274  1.0000
  C   C613      1.0  0.82506  0.65098  0.50927  1.0000
  H   H732      1.0  0.88081  0.51643  0.50893  1.0000
  C   C614      1.0  0.95348  0.55366  0.49562  1.0000
  H   H733      1.0  0.98621  0.50502  0.52028  1.0000
  H   H734      1.0  0.78707  0.62308  0.49698  1.0000
  H   H735      1.0  0.94548  0.66387  0.49224  1.0000
  H   H736      1.0  0.95392  0.94066  0.07405  1.0000
  S   S167      1.0  0.63707  0.70358  0.02608  1.0000
  H   H737      1.0  0.80291  0.95865  0.08935  1.0000
  H   H738      1.0  0.82385  0.93800  0.12638  1.0000
  S   S168      1.0  0.90070  0.93345  0.15494  1.0000
  S   S169      1.0  0.63356  0.65668  0.07015  1.0000
  Fe  Fe84      1.0  0.97355  0.67067  0.16880  1.0000
  H   H739      1.0  0.95122  0.80673  0.29187  1.0000
  C   C615      1.0  0.87556  0.65813  0.12746  1.0000
  C   C616      1.0  0.64736  0.93152  0.99610  1.0000
  H   H740      1.0  0.90166  0.91027  0.09958  1.0000
  S   S170      1.0  0.97332  0.69789  0.19628  1.0000
  Fe  Fe85      1.0  0.96615  0.92181  0.16593  1.0000
  N   N42       1.0  0.94415  0.90467  0.07395  1.0000
  C   C617      1.0  0.49580  0.72501  0.99733  1.0000
  C   C618      1.0  0.88203  0.70796  0.47788  1.0000
  H   H741      1.0  0.96038  0.79670  0.16837  1.0000
  C   C619      1.0  0.98324  0.77795  0.27969  1.0000
  C   C620      1.0  0.94154  0.86861  0.09785  1.0000
  S   S171      1.0  0.97796  0.66857  0.25861  1.0000
  C   C621      1.0  0.88718  0.94779  0.12813  1.0000
  C   C622      1.0  0.91599  0.95997  0.11706  1.0000
  Fe  Fe86      1.0  0.64240  0.66524  0.03273  1.0000
  H   H742      1.0  0.52987  0.70755  0.02583  1.0000
  C   C623      1.0  0.83437  0.95920  0.09704  1.0000
  C   C624      1.0  0.84634  0.94744  0.11798  1.0000
  H   H743      1.0  0.94744  0.96054  0.12477  1.0000
  H   H744      1.0  0.87630  0.71323  0.13883  1.0000
  H   H745      1.0  0.88903  0.92495  0.07265  1.0000
  S   S172      1.0  0.65351  0.95111  0.01947  1.0000
  H   H746      1.0  0.85369  0.71087  0.46587  1.0000
  H   H747      1.0  0.96089  0.69233  0.48715  1.0000
  H   H748      1.0  0.92702  0.91721  0.03910  1.0000
  H   H749      1.0  0.96053  0.83006  0.25711  1.0000
  N   N43       1.0  0.89768  0.68476  0.47538  1.0000
  S   S173      1.0  0.76199  0.97790  0.00749  1.0000
  H   H750      1.0  0.88412  0.68597  0.43774  1.0000
  H   H751      1.0  0.93456  0.69472  0.44805  1.0000
  H   H752      1.0  0.96576  0.73205  0.24419  1.0000
  H   H753      1.0  0.60218  0.91235  0.01213  1.0000
  H   H754      1.0  0.98573  0.75750  0.17498  1.0000
  H   H755      1.0  0.92438  0.88712  0.04211  1.0000
  H   H756      1.0  0.97303  0.90073  0.04210  1.0000
  H   H757      1.0  0.63056  0.75183  0.02358  1.0000
  C   C625      1.0  0.86606  0.66834  0.48066  1.0000
  H   H758      1.0  0.90962  0.87075  0.10023  1.0000
  C   C626      1.0  0.93506  0.68171  0.49195  1.0000
  N   N44       1.0  0.73963  0.71121  0.07784  1.0000
  C   C627      1.0  0.70222  0.70371  0.08807  1.0000
  C   C628      1.0  0.73060  0.73365  0.06716  1.0000
  C   C629      1.0  0.74731  0.69512  0.05908  1.0000
  C   C630      1.0  0.77636  0.71233  0.09508  1.0000
  C   C631      1.0  0.81407  0.72027  0.08822  1.0000
  C   C632      1.0  0.77644  0.70494  0.11864  1.0000
  C   C633      1.0  0.84953  0.72076  0.10392  1.0000
  C   C634      1.0  0.81200  0.70574  0.13424  1.0000
  C   C635      1.0  0.84849  0.71349  0.12688  1.0000
  H   H759      1.0  0.69460  0.71505  0.10241  1.0000
  H   H760      1.0  0.67506  0.70347  0.07474  1.0000
  H   H761      1.0  0.70559  0.68621  0.09493  1.0000
  H   H762      1.0  0.72674  0.74654  0.08083  1.0000
  H   H763      1.0  0.70194  0.73342  0.05488  1.0000
  H   H764      1.0  0.75500  0.73948  0.05660  1.0000
  H   H765      1.0  0.75353  0.67796  0.06642  1.0000
  H   H766      1.0  0.72051  0.69400  0.04559  1.0000
  H   H767      1.0  0.77386  0.69993  0.04970  1.0000
  H   H768      1.0  0.81664  0.72566  0.07048  1.0000
  H   H769      1.0  0.74981  0.69777  0.12531  1.0000
  H   H770      1.0  0.87822  0.72638  0.09819  1.0000
  H   H771      1.0  0.81166  0.69946  0.15195  1.0000
  H   H772      1.0  0.94475  0.83910  0.11993  1.0000
  C   C636      1.0  0.49994  0.76238  0.02685  1.0000
  H   H773      1.0  0.88044  0.89544  0.07357  1.0000
  C   C637      1.0  0.61333  0.72188  0.00383  1.0000
  C   C638      1.0  0.86090  0.65745  0.10350  1.0000
  Fe  Fe87      1.0  0.70041  0.97920  0.02123  1.0000
  C   C639      1.0  0.86313  0.97163  0.08617  1.0000
  C   C640      1.0  0.96766  0.79992  0.27801  1.0000
  C   C641      1.0  0.90396  0.97187  0.09626  1.0000
  C   C642      1.0  0.90201  0.90889  0.08023  1.0000
  C   C643      1.0  0.94207  0.90234  0.04818  1.0000
  C   C644      1.0  0.51379  0.96483  0.99620  1.0000
  H   H774      1.0  0.51151  0.80653  0.01526  1.0000
  C   C645      1.0  0.96340  0.88422  0.08508  1.0000
  C   C646      1.0  0.51722  0.74186  0.03472  1.0000
  C   C647      1.0  0.96879  0.92489  0.08110  1.0000
  C   C648      1.0  0.91004  0.68254  0.45132  1.0000
  C   C649      1.0  0.61490  0.74534  0.00752  1.0000
  H   H775      1.0  0.92646  0.98146  0.08802  1.0000
  C   C650      1.0  0.96128  0.85012  0.10916  1.0000
  H   H776      1.0  0.90506  0.72072  0.47374  1.0000
  H   H777      1.0  0.94626  0.66198  0.30296  1.0000
  C   C651      1.0  0.51524  0.72324  0.01997  1.0000
  S   S174      1.0  0.98452  0.67229  0.41231  1.0000
  H   H778      1.0  0.52429  0.97845  0.00768  1.0000
  C   C652      1.0  0.61913  0.91392  0.99703  1.0000
  C   C653      1.0  0.97904  0.66388  0.30654  1.0000
  H   H779      1.0  0.97330  0.92652  0.10050  1.0000
  H   H780      1.0  0.97853  0.65953  0.34402  1.0000
  H   H781      1.0  0.92227  0.66541  0.44831  1.0000
  S   S175      1.0  0.84996  0.98687  0.05988  1.0000
  C   C654      1.0  0.97283  0.81310  0.25847  1.0000
  H   H782      1.0  0.53310  0.74048  0.05216  1.0000
  H   H783      1.0  0.84140  0.97081  0.16320  1.0000
  S   S176      1.0  0.92801  0.66561  0.13564  1.0000
  H   H784      1.0  0.50279  0.77642  0.03883  1.0000
  H   H785      1.0  0.97781  0.76863  0.29519  1.0000
  H   H786      1.0  0.98292  0.73103  0.28722  1.0000
  H   H787      1.0  0.88155  0.66126  0.09056  1.0000
  C   C655      1.0  0.49758  0.80376  0.99706  1.0000
  S   S177      1.0  0.98798  0.90150  0.19821  1.0000
  H   H788      1.0  0.79639  0.98558  0.13024  1.0000
  C   C656      1.0  0.83664  0.98884  0.16142  1.0000
  Fe  Fe88      1.0  0.79753  0.95536  0.65782  1.0000
  S   S178      1.0  0.86395  0.94876  0.67017  1.0000
  S   S179      1.0  0.74552  0.93547  0.67286  1.0000
  H   H789      1.0  0.50279  0.87934  0.79615  1.0000
  Fe  Fe89      1.0  0.87693  0.95395  0.63269  1.0000
  S   S180      1.0  0.90652  0.92935  0.60832  1.0000
  S   S181      1.0  0.80989  0.95857  0.62028  1.0000
  Fe  Fe90      1.0  0.54210  0.80848  0.93920  1.0000
  S   S182      1.0  0.57274  0.82531  0.91032  1.0000
  S   S183      1.0  0.54981  0.77069  0.94809  1.0000
  H   H790      1.0  0.62661  0.89153  0.78301  1.0000
  H   H791      1.0  0.89917  0.90624  0.72570  1.0000
  H   H792      1.0  0.55477  0.88355  0.76836  1.0000
  C   C657      1.0  0.49293  0.92879  0.96611  1.0000
  Fe  Fe91      1.0  0.57297  0.85667  0.93273  1.0000
  S   S184      1.0  0.62543  0.88164  0.93479  1.0000
  C   C658      1.0  0.59292  0.71386  0.98289  1.0000
  S   S185      1.0  0.54766  0.83905  0.96262  1.0000
  H   H793      1.0  0.52181  0.88120  0.83814  1.0000
  H   H794      1.0  0.69206  0.97210  0.60446  1.0000
  Fe  Fe92      1.0  0.52597  0.82386  0.71759  1.0000
  S   S186      1.0  0.57691  0.81166  0.69712  1.0000
  S   S187      1.0  0.54941  0.82325  0.75687  1.0000
  Fe  Fe93      1.0  0.55869  0.83932  0.67146  1.0000
  S   S188      1.0  0.60672  0.85926  0.65273  1.0000
  Fe  Fe94      1.0  0.52974  0.78951  0.67752  1.0000
  S   S189      1.0  0.54605  0.75284  0.66886  1.0000
  H   H795      1.0  0.55535  0.92352  0.65047  1.0000
  C   C659      1.0  0.56718  0.72775  0.74349  1.0000
  C   C660      1.0  0.53122  0.72446  0.67426  1.0000
  N   N45       1.0  0.56622  0.75228  0.74799  1.0000
  H   H796      1.0  0.64739  0.89472  0.82464  1.0000
  C   C661      1.0  0.50983  0.67860  0.68135  1.0000
  C   C662      1.0  0.54219  0.68392  0.66829  1.0000
  C   C663      1.0  0.55273  0.70665  0.66481  1.0000
  S   S190      1.0  0.51500  0.81607  0.64970  1.0000
  H   H797      1.0  0.60942  0.68758  0.71009  1.0000
  H   H798      1.0  0.55913  0.67054  0.66086  1.0000
  H   H799      1.0  0.57781  0.71044  0.65465  1.0000
  C   C664      1.0  0.57566  0.75252  0.96977  1.0000
  C   C665      1.0  0.59219  0.71784  0.72742  1.0000
  S   S191      1.0  0.50924  0.85273  0.69254  1.0000
  C   C666      1.0  0.98665  0.97265  0.57269  1.0000
  H   H800      1.0  0.59651  0.78334  0.74071  1.0000
  H   H801      1.0  0.71970  0.96160  0.63120  1.0000
  C   C667      1.0  0.54216  0.82622  0.82745  1.0000
  C   C668      1.0  0.55603  0.82343  0.80513  1.0000
  C   C669      1.0  0.52937  0.82624  0.78448  1.0000
  C   C670      1.0  0.54096  0.71308  0.75447  1.0000
  C   C671      1.0  0.59734  0.76504  0.73644  1.0000
  H   H802      1.0  0.56307  0.82391  0.84306  1.0000
  H   H803      1.0  0.58779  0.81926  0.80386  1.0000
  C   C672      1.0  0.66898  0.93344  0.97645  1.0000
  C   C673      1.0  0.61231  0.89846  0.97846  1.0000
  C   C674      1.0  0.60803  0.93086  0.63261  1.0000
  C   C675      1.0  0.70749  0.91399  0.66687  1.0000
  C   C676      1.0  0.70238  0.90222  0.64564  1.0000
  C   C677      1.0  0.67207  0.88534  0.64191  1.0000
  C   C678      1.0  0.64605  0.87996  0.65919  1.0000
  C   C679      1.0  0.65139  0.89165  0.68047  1.0000
  C   C680      1.0  0.68181  0.90847  0.68423  1.0000
  H   H804      1.0  0.72139  0.90625  0.63197  1.0000
  H   H805      1.0  0.66827  0.87656  0.62533  1.0000
  H   H806      1.0  0.63178  0.88789  0.69397  1.0000
  H   H807      1.0  0.68529  0.91735  0.70075  1.0000
  C   C681      1.0  0.63377  0.90044  0.95876  1.0000
  C   C682      1.0  0.66226  0.91792  0.95790  1.0000
  H   H808      1.0  0.67911  0.91955  0.94278  1.0000
  C   C683      1.0  0.95587  0.91741  0.60589  1.0000
  C   C684      1.0  0.57815  0.93599  0.64728  1.0000
  H   H809      1.0  0.60801  0.91441  0.62443  1.0000
  H   H810      1.0  0.93033  0.68650  0.51017  1.0000
  C   C685      1.0  0.59458  0.86571  0.87028  1.0000
  H   H811      1.0  0.69075  0.94692  0.97550  1.0000
  C   C686      1.0  0.59106  0.69471  0.72293  1.0000
  H   H812      1.0  0.51881  0.67920  0.75773  1.0000
  C   C687      1.0  0.57342  0.75691  0.77350  1.0000
  H   H813      1.0  0.93487  0.89902  0.57460  1.0000
  Fe  Fe95      1.0  0.87032  0.98653  0.67435  1.0000
  H   H814      1.0  0.64737  0.89749  0.88785  1.0000
  H   H815      1.0  0.56253  0.85950  0.86787  1.0000
  C   C688      1.0  0.50141  0.83218  0.82947  1.0000
  H   H816      1.0  0.59774  0.77846  0.99388  1.0000
  H   H817      1.0  0.59184  0.76391  0.71699  1.0000
  H   H818      1.0  0.53820  0.89727  0.87232  1.0000
  C   C689      1.0  0.63950  0.96800  0.63983  1.0000
  N   N46       1.0  0.83137  0.88029  0.65464  1.0000
  C   C690      1.0  0.79592  0.87490  0.66776  1.0000
  C   C691      1.0  0.81785  0.89768  0.63702  1.0000
  C   C692      1.0  0.84226  0.85953  0.64225  1.0000
  C   C693      1.0  0.86745  0.88864  0.66973  1.0000
  C   C694      1.0  0.90492  0.89268  0.66013  1.0000
  C   C695      1.0  0.86639  0.89367  0.69390  1.0000
  C   C696      1.0  0.93920  0.90091  0.67388  1.0000
  C   C697      1.0  0.90086  0.90204  0.70745  1.0000
  H   H819      1.0  0.87465  0.71152  0.49598  1.0000
  H   H820      1.0  0.78417  0.89014  0.67621  1.0000
  H   H821      1.0  0.76948  0.86831  0.65606  1.0000
  H   H822      1.0  0.80402  0.86195  0.68144  1.0000
  H   H823      1.0  0.80854  0.91335  0.64568  1.0000
  H   H824      1.0  0.79122  0.89198  0.62497  1.0000
  H   H825      1.0  0.84242  0.90231  0.62595  1.0000
  H   H826      1.0  0.81507  0.85192  0.63207  1.0000
  H   H827      1.0  0.86464  0.86276  0.62938  1.0000
  H   H828      1.0  0.85584  0.84668  0.65488  1.0000
  H   H829      1.0  0.90781  0.89009  0.64174  1.0000
  H   H830      1.0  0.83909  0.89182  0.70268  1.0000
  C   C698      1.0  0.53986  0.69001  0.74967  1.0000
  C   C699      1.0  0.54307  0.95507  0.98324  1.0000
  H   H831      1.0  0.96728  0.90405  0.66604  1.0000
  H   H832      1.0  0.59143  0.69595  0.97966  1.0000
  C   C700      1.0  0.58631  0.88902  0.83593  1.0000
  C   C701      1.0  0.96087  0.90275  0.58711  1.0000
  C   C702      1.0  0.63844  0.94649  0.62891  1.0000
  H   H833      1.0  0.92894  0.97865  0.51304  1.0000
  H   H834      1.0  0.56287  0.66309  0.72958  1.0000
  H   H835      1.0  0.86580  0.67824  0.51726  1.0000
  H   H836      1.0  0.54861  0.75038  0.78334  1.0000
  C   C703      1.0  0.52548  0.76127  0.73911  1.0000
  H   H837      1.0  0.57472  0.77536  0.77717  1.0000
  C   C704      1.0  0.57780  0.95705  0.65788  1.0000
  C   C705      1.0  0.93716  0.90564  0.69747  1.0000
  H   H838      1.0  0.55548  0.92966  0.95822  1.0000
  H   H839      1.0  0.98672  0.93336  0.63633  1.0000
  H   H840      1.0  0.57440  0.96112  0.98523  1.0000
  H   H841      1.0  0.88467  0.98504  0.54478  1.0000
  C   C706      1.0  0.64037  0.89677  0.86842  1.0000
  H   H842      1.0  0.61354  0.85382  0.86097  1.0000
  C   C707      1.0  0.57430  0.72907  0.96604  1.0000
  H   H843      1.0  0.62885  0.75898  0.74213  1.0000
  H   H844      1.0  0.60282  0.74932  0.78114  1.0000
  H   H845      1.0  0.61196  0.72762  0.71749  1.0000
  H   H846      1.0  0.59033  0.88509  0.97938  1.0000
  H   H847      1.0  0.66348  0.88504  0.86227  1.0000
  H   H848      1.0  0.55431  0.96100  0.66920  1.0000
  H   H849      1.0  0.60499  0.86453  0.88927  1.0000
  Fe  Fe96      1.0  0.51015  0.83693  0.89559  1.0000
  C   C708      1.0  0.60389  0.88994  0.79533  1.0000
  C   C709      1.0  0.61541  0.89170  0.81942  1.0000
  N   N47       1.0  0.59790  0.88896  0.86154  1.0000
  H   H850      1.0  0.57977  0.90485  0.89278  1.0000
  C   C710      1.0  0.70407  0.97655  0.62268  1.0000
  C   C711      1.0  0.56339  0.88558  0.78699  1.0000
  C   C712      1.0  0.54534  0.88459  0.82677  1.0000
  H   H851      1.0  0.64530  0.91396  0.86162  1.0000
  H   H852      1.0  0.56925  0.92103  0.86629  1.0000
  C   C713      1.0  0.53413  0.88319  0.80267  1.0000
  C   C714      1.0  0.57005  0.90370  0.87362  1.0000
  C   C715      1.0  0.56484  0.68085  0.73392  1.0000
  H   H853      1.0  0.66110  0.94110  0.61775  1.0000
  H   H854      1.0  0.96404  0.96848  0.58456  1.0000
  C   C716      1.0  0.53260  0.93720  0.96813  1.0000
  C   C717      1.0  0.85339  0.66705  0.50353  1.0000
  H   H855      1.0  0.52327  0.77967  0.74234  1.0000
  H   H856      1.0  0.50030  0.75332  0.74762  1.0000
  S   S192      1.0  0.51210  0.86927  0.91639  1.0000
  H   H857      1.0  0.52251  0.79811  0.98662  1.0000
  H   H858      1.0  0.52029  0.71944  0.76639  1.0000
  H   H859      1.0  0.55854  0.72260  0.94999  1.0000
  N   N48       1.0  0.67125  0.98500  0.63643  1.0000
  H   H860      1.0  0.49547  0.71064  0.98568  1.0000
  H   H861      1.0  0.51938  0.75846  0.71991  1.0000
  H   H862      1.0  0.96355  0.91251  0.70793  1.0000
  C   C718      1.0  0.59624  0.76055  0.99067  1.0000
  C   C719      1.0  0.49878  0.71914  0.68729  1.0000
  C   C720      1.0  0.60773  0.97293  0.65408  1.0000
  H   H863      1.0  0.70477  0.97803  0.66985  1.0000
  H   H864      1.0  0.60590  0.98908  0.66254  1.0000
