data_image0
_chemical_formula_structural       C2NHSHFeS2FeS2FeSFeS3CNC8H4CH2C6H4CH4C2H2C2HCHCH3CHNC7H2CH6CH2CFeH2CH4CH4C4H2NHCH2CH4CHCH3CHC2HCH3SCH2CH2SFeS2FeS2FeSFeS3HSHC3HC7H4C6H4C4H2SHCHC2HC6FeHC2HCHCH5CH3C2H4CH4C2NH2C2FeCH2C2H4C3H2CHNHCNHCHCHSFeHFeCSHCH2C3NH2CFeS2FeS2FeCFeS3HSFeS2FeS2FeS2HC5H4CH2C3HCHC2H2C3H2C2HSC6HCNC9H14NHC6H3CSH4SH5CH2CHCH2C2H2S2HFeCSC2H2CH6CHNHC2HSH2FeS2FeS2FeCFeS3H3CHC3H2NH3C6H3C5SHC2H3C2SHCH5SCHC2FeHCH3C3H5CH3C7HCSC2HCSCH2CH2C2H3C2H2CHFeSHFeS2HSC2H2CH2CHFeSHFeS2FeS2C6H4NH3CNH5CHCHCHCHCH2C3HSCHC3HCH2SCHC2H2CHCSHCHCHC2HCH8C2HC3H2NHCHC2H2NCHC2HC2HCH2C2HC2FeS2H5C2H2CH4C2H3SC2H4C2H2C2NCH5SH3C2FeS2FeS2FeSFeS3FeS2H2NH2C3HCH2C6H4SCH2C2H4CH2C4H4CH3C5HCH3NC6H11CHNHC4HCH2SCH7CHSFeCH2C3HCHCSH2S2FeS2FeS2FeSFeS3C3SC7H4C6H7CH3FeH3C3H3FeC4H3CH5NC2HC6HCHCH4CHCH4CH3NH2CHSH3SC2HSCHCH3CH2CHCNC6H3CHCFeH5FeHC2H3CHNHCH3CHC3H4C2FeCNHCHC2HCH2SH2SFeS2H3FeS2FeS2Fe3HS2FeC4H3C7H5CH3FeC2HCNC8H11N2C2H2NHCH4CHC2HCHSCH2SH4CHC2H4CHSH2CH2CSC2FeS2H2FeSCFeSHFeSFeS2C3H2C3H2CH5C6H4C4HC4SH4C3FeHCHC2H7SNCH2CHNCHCH3SC2HC2H2CH2C4NCSH5C4FeSH2C2H4NH2CHCH2CH3CHFeSCFeSHFeCFeSCSCH2FeS2FeS2FeS2FeSFeS3H2SC5H3CH2C2H2CHC6H6C4HCH6SH2NC8H9NC9H11SHCHCH2C4HCHCH2CH2NCHCHCFeHC2HSCHCHC2HC
_chemical_formula_sum              "C540 N36 H648 S144 Fe72"
_cell_length_a       34.8067
_cell_length_b       34.8116
_cell_length_c       68.8967
_cell_angle_alpha    90.4696
_cell_angle_beta     89.9377
_cell_angle_gamma    119.872

_space_group_name_H-M_alt    "P 1"
_space_group_IT_number       1

loop_
  _space_group_symop_operation_xyz
  'x, y, z'

loop_
  _atom_site_type_symbol
  _atom_site_label
  _atom_site_symmetry_multiplicity
  _atom_site_fract_x
  _atom_site_fract_y
  _atom_site_fract_z
  _atom_site_occupancy
  C   C1        1.0  0.47594  0.38811  0.08805  1.0000
  C   C2        1.0  0.40060  0.34865  0.07437  1.0000
  N   N1        1.0  0.35672  0.03227  0.19324  1.0000
  H   H1        1.0  0.04477  0.45658  0.03872  1.0000
  S   S1        1.0  0.02088  0.10339  0.13345  1.0000
  H   H2        1.0  0.02503  0.37928  0.03360  1.0000
  Fe  Fe1       1.0  0.18287  0.35321  0.05591  1.0000
  S   S2        1.0  0.22965  0.42233  0.06662  1.0000
  S   S3        1.0  0.12773  0.33196  0.03372  1.0000
  Fe  Fe2       1.0  0.21212  0.31003  0.08681  1.0000
  S   S4        1.0  0.26128  0.37567  0.10018  1.0000
  S   S5        1.0  0.20442  0.24358  0.09544  1.0000
  Fe  Fe3       1.0  0.20756  0.39330  0.09633  1.0000
  S   S6        1.0  0.18496  0.42030  0.12100  1.0000
  Fe  Fe4       1.0  0.28009  0.39946  0.06949  1.0000
  S   S7        1.0  0.34956  0.43663  0.05617  1.0000
  S   S8        1.0  0.15735  0.32592  0.08548  1.0000
  S   S9        1.0  0.23415  0.33225  0.05628  1.0000
  C   C3        1.0  0.01034  0.24306  0.14731  1.0000
  N   N2        1.0  0.35241  0.31870  0.07716  1.0000
  C   C4        1.0  0.04359  0.23964  0.07024  1.0000
  C   C5        1.0  0.45488  0.47961  0.09364  1.0000
  C   C6        1.0  0.15496  0.46390  0.17343  1.0000
  C   C7        1.0  0.34410  0.27530  0.08454  1.0000
  C   C8        1.0  0.05225  0.43392  0.00120  1.0000
  C   C9        1.0  0.14826  0.43949  0.11509  1.0000
  C   C10       1.0  0.11313  0.43068  0.12763  1.0000
  C   C11       1.0  0.08580  0.44898  0.12422  1.0000
  H   H3        1.0  0.04487  0.25552  0.14362  1.0000
  H   H4        1.0  0.08274  0.14790  0.07734  1.0000
  H   H5        1.0  0.10711  0.40975  0.14009  1.0000
  H   H6        1.0  0.05878  0.44175  0.13396  1.0000
  C   C12       1.0  0.46506  0.39603  0.05411  1.0000
  H   H7        1.0  0.99648  0.02957  0.24032  1.0000
  H   H8        1.0  0.35905  0.27818  0.09910  1.0000
  C   C13       1.0  0.07371  0.14158  0.12409  1.0000
  C   C14       1.0  0.10396  0.12893  0.11761  1.0000
  C   C15       1.0  0.14447  0.16060  0.10924  1.0000
  C   C16       1.0  0.15482  0.20493  0.10721  1.0000
  C   C17       1.0  0.12477  0.21748  0.11396  1.0000
  C   C18       1.0  0.08461  0.18604  0.12238  1.0000
  H   H9        1.0  0.09598  0.09478  0.11885  1.0000
  H   H10       1.0  0.16756  0.15056  0.10410  1.0000
  H   H11       1.0  0.13243  0.25150  0.11274  1.0000
  H   H12       1.0  0.06166  0.19627  0.12744  1.0000
  C   C19       1.0  0.32885  0.05058  0.18611  1.0000
  H   H13       1.0  0.40149  0.12378  0.18471  1.0000
  H   H14       1.0  0.17008  0.44470  0.16861  1.0000
  H   H15       1.0  0.21136  0.38565  0.01387  1.0000
  H   H16       1.0  0.17842  0.00964  0.18466  1.0000
  C   C20       1.0  0.43039  0.35963  0.09025  1.0000
  C   C21       1.0  0.41936  0.36801  0.05617  1.0000
  H   H17       1.0  0.41861  0.34695  0.10460  1.0000
  H   H18       1.0  0.06082  0.38230  0.05292  1.0000
  C   C22       1.0  0.14074  0.34916  0.00942  1.0000
  C   C23       1.0  0.18462  0.37568  0.00351  1.0000
  H   H19       1.0  0.32891  0.34126  0.05326  1.0000
  C   C24       1.0  0.44073  0.48068  0.05394  1.0000
  H   H20       1.0  0.01001  0.01924  0.21645  1.0000
  C   C25       1.0  0.40387  0.46125  0.06641  1.0000
  H   H21       1.0  0.47862  0.41140  0.04026  1.0000
  H   H22       1.0  0.06300  0.26378  0.05936  1.0000
  H   H23       1.0  0.34054  0.37084  0.08631  1.0000
  C   C26       1.0  0.13594  0.44508  0.03964  1.0000
  H   H24       1.0  0.33621  0.29430  0.04767  1.0000
  N   N3        1.0  0.07030  0.18875  0.05792  1.0000
  C   C27       1.0  0.05274  0.18493  0.03797  1.0000
  C   C28       1.0  0.11722  0.22486  0.05831  1.0000
  C   C29       1.0  0.06983  0.14682  0.06243  1.0000
  C   C30       1.0  0.04370  0.19902  0.07162  1.0000
  C   C31       1.0  0.41129  0.46144  0.08638  1.0000
  C   C32       1.0  0.40467  0.06516  0.19403  1.0000
  C   C33       1.0  0.05969  0.38831  0.03712  1.0000
  H   H25       1.0  0.02262  0.42573  0.00932  1.0000
  H   H26       1.0  0.33820  0.06363  0.17113  1.0000
  C   C34       1.0  0.01666  0.16921  0.08629  1.0000
  H   H27       1.0  0.07127  0.17630  0.02724  1.0000
  H   H28       1.0  0.48677  0.02112  0.26382  1.0000
  H   H29       1.0  0.12178  0.25620  0.05215  1.0000
  H   H30       1.0  0.34819  0.04190  0.22351  1.0000
  H   H31       1.0  0.11660  0.41795  0.19580  1.0000
  H   H32       1.0  0.09114  0.14058  0.05231  1.0000
  C   C35       1.0  0.43542  0.05216  0.20008  1.0000
  H   H33       1.0  0.33101  0.07714  0.19594  1.0000
  H   H34       1.0  0.35794  0.26006  0.07450  1.0000
  C   C36       1.0  0.09119  0.43979  0.01060  1.0000
  Fe  Fe5       1.0  0.01108  0.49429  0.12713  1.0000
  H   H35       1.0  0.30791  0.25154  0.08618  1.0000
  H   H36       1.0  0.29303  0.02472  0.18563  1.0000
  C   C37       1.0  0.09371  0.47661  0.10832  1.0000
  H   H37       1.0  0.18306  0.47371  0.08933  1.0000
  H   H38       1.0  0.08053  0.46068  0.20619  1.0000
  H   H39       1.0  0.28991  0.28731  0.06173  1.0000
  H   H40       1.0  0.01478  0.13769  0.08874  1.0000
  C   C38       1.0  0.46772  0.14076  0.19076  1.0000
  H   H41       1.0  0.35184  0.34435  0.10589  1.0000
  H   H42       1.0  0.29924  0.31653  0.09409  1.0000
  H   H43       1.0  0.42448  0.01830  0.20390  1.0000
  H   H44       1.0  0.48054  0.17531  0.18720  1.0000
  C   C39       1.0  0.12855  0.48502  0.09561  1.0000
  C   C40       1.0  0.48163  0.00557  0.24967  1.0000
  C   C41       1.0  0.42220  0.11062  0.18937  1.0000
  C   C42       1.0  0.33539  0.33844  0.09151  1.0000
  H   H45       1.0  0.05553  0.21661  0.03302  1.0000
  H   H46       1.0  0.39947  0.36305  0.04339  1.0000
  N   N4        1.0  0.09188  0.43471  0.03193  1.0000
  H   H47       1.0  0.38355  0.44761  0.09625  1.0000
  C   C43       1.0  0.32592  0.31007  0.05910  1.0000
  H   H48       1.0  0.13922  0.21645  0.04976  1.0000
  H   H49       1.0  0.06694  0.36474  0.02911  1.0000
  C   C44       1.0  0.34111  0.01476  0.21297  1.0000
  H   H50       1.0  0.13013  0.23211  0.07340  1.0000
  H   H51       1.0  0.14650  0.42194  0.03375  1.0000
  H   H52       1.0  0.13557  0.44163  0.05572  1.0000
  H   H53       1.0  0.15846  0.45250  0.00408  1.0000
  C   C45       1.0  0.12470  0.44868  0.18865  1.0000
  H   H54       1.0  0.01712  0.15899  0.03713  1.0000
  C   C46       1.0  0.07920  0.46463  0.04204  1.0000
  H   H55       1.0  0.03592  0.11757  0.06118  1.0000
  H   H56       1.0  0.99830  0.17771  0.15114  1.0000
  H   H57       1.0  0.43549  0.48100  0.03848  1.0000
  C   C47       1.0  0.01867  0.25009  0.08292  1.0000
  H   H58       1.0  0.01972  0.28165  0.08173  1.0000
  C   C48       1.0  0.15554  0.46619  0.09888  1.0000
  C   C49       1.0  0.10446  0.47274  0.19448  1.0000
  H   H59       1.0  0.46015  0.47907  0.10908  1.0000
  C   C50       1.0  0.49324  0.40614  0.07001  1.0000
  H   H60       1.0  0.16185  0.47962  0.03623  1.0000
  H   H61       1.0  0.07226  0.31607  0.00035  1.0000
  H   H62       1.0  0.08056  0.46233  0.05813  1.0000
  S   S10       1.0  0.00674  0.46772  0.15706  1.0000
  C   C51       1.0  0.48073  0.08248  0.20152  1.0000
  H   H63       1.0  0.01480  0.30672  0.14429  1.0000
  H   H64       1.0  0.36253  0.00679  0.16547  1.0000
  C   C52       1.0  0.12790  0.44899  0.99849  1.0000
  H   H65       1.0  0.35227  0.29577  0.64681  1.0000
  H   H66       1.0  0.34422  0.12390  0.61841  1.0000
  S   S11       1.0  0.08861  0.06566  0.49459  1.0000
  Fe  Fe6       1.0  0.36720  0.24981  0.59074  1.0000
  S   S12       1.0  0.41518  0.29150  0.56733  1.0000
  S   S13       1.0  0.39738  0.24489  0.61925  1.0000
  Fe  Fe7       1.0  0.28588  0.22427  0.56525  1.0000
  S   S14       1.0  0.32780  0.26449  0.54042  1.0000
  S   S15       1.0  0.21015  0.18533  0.56471  1.0000
  Fe  Fe8       1.0  0.37070  0.23492  0.54750  1.0000
  S   S16       1.0  0.39088  0.20622  0.52232  1.0000
  Fe  Fe9       1.0  0.36871  0.31809  0.56246  1.0000
  S   S17       1.0  0.38581  0.38935  0.55497  1.0000
  S   S18       1.0  0.32631  0.19141  0.57116  1.0000
  S   S19       1.0  0.32322  0.27958  0.58708  1.0000
  H   H67       1.0  0.35472  0.06101  0.54180  1.0000
  S   S20       1.0  0.45626  0.03284  0.48114  1.0000
  H   H68       1.0  0.46333  0.14132  0.56075  1.0000
  C   C53       1.0  0.42546  0.44297  0.56395  1.0000
  C   C54       1.0  0.46096  0.45010  0.57589  1.0000
  C   C55       1.0  0.28209  0.09641  0.53340  1.0000
  H   H69       1.0  0.25484  0.01880  0.44686  1.0000
  C   C56       1.0  0.36839  0.11621  0.62441  1.0000
  C   C57       1.0  0.41519  0.17289  0.52608  1.0000
  C   C58       1.0  0.43090  0.16963  0.54431  1.0000
  C   C59       1.0  0.45080  0.14330  0.54665  1.0000
  C   C60       1.0  0.45463  0.11966  0.53086  1.0000
  C   C61       1.0  0.43839  0.12249  0.51269  1.0000
  C   C62       1.0  0.41906  0.14927  0.51030  1.0000
  H   H70       1.0  0.42814  0.18783  0.55654  1.0000
  H   H71       1.0  0.10758  0.06093  0.45111  1.0000
  H   H72       1.0  0.44086  0.10431  0.50045  1.0000
  H   H73       1.0  0.40680  0.15162  0.49618  1.0000
  C   C63       1.0  0.12196  0.10172  0.51359  1.0000
  C   C64       1.0  0.16796  0.11806  0.51317  1.0000
  C   C65       1.0  0.19564  0.14503  0.52836  1.0000
  C   C66       1.0  0.17746  0.15545  0.54430  1.0000
  C   C67       1.0  0.13156  0.13975  0.54454  1.0000
  C   C68       1.0  0.10402  0.11351  0.52915  1.0000
  H   H74       1.0  0.18234  0.10983  0.50105  1.0000
  H   H75       1.0  0.23094  0.15739  0.52787  1.0000
  H   H76       1.0  0.11729  0.14795  0.55673  1.0000
  H   H77       1.0  0.06907  0.10258  0.52935  1.0000
  C   C69       1.0  0.29413  0.15537  0.65168  1.0000
  C   C70       1.0  0.31898  0.18295  0.63629  1.0000
  C   C71       1.0  0.36493  0.20953  0.63809  1.0000
  C   C72       1.0  0.38585  0.20804  0.65528  1.0000
  H   H78       1.0  0.41286  0.14450  0.60034  1.0000
  H   H79       1.0  0.30260  0.18388  0.62311  1.0000
  S   S21       1.0  0.48062  0.08769  0.53436  1.0000
  H   H80       1.0  0.33082  0.08893  0.64979  1.0000
  C   C73       1.0  0.14595  0.06502  0.57502  1.0000
  H   H81       1.0  0.07111  0.43646  0.44055  1.0000
  C   C74       1.0  0.43187  0.09864  0.64007  1.0000
  C   C75       1.0  0.30546  0.03474  0.51817  1.0000
  H   H82       1.0  0.38452  0.03181  0.52105  1.0000
  C   C76       1.0  0.11265  0.05701  0.58831  1.0000
  C   C77       1.0  0.06802  0.03097  0.58303  1.0000
  C   C78       1.0  0.39312  0.08708  0.65108  1.0000
  C   C79       1.0  0.36122  0.09611  0.64257  1.0000
  C   C80       1.0  0.49330  0.49364  0.58137  1.0000
  C   C81       1.0  0.32745  0.06164  0.53465  1.0000
  Fe  Fe10      1.0  0.48160  0.04072  0.51158  1.0000
  H   H83       1.0  0.03795  0.32580  0.41576  1.0000
  C   C82       1.0  0.31565  0.09183  0.54209  1.0000
  C   C83       1.0  0.25974  0.07047  0.51729  1.0000
  H   H84       1.0  0.16089  0.05438  0.54596  1.0000
  C   C84       1.0  0.40714  0.12789  0.61419  1.0000
  H   H85       1.0  0.02227  0.02008  0.52969  1.0000
  C   C85       1.0  0.05396  0.36270  0.41608  1.0000
  H   H86       1.0  0.04406  0.02687  0.59395  1.0000
  H   H87       1.0  0.18045  0.08676  0.57892  1.0000
  H   H88       1.0  0.25854  0.13511  0.65025  1.0000
  H   H89       1.0  0.45757  0.09280  0.64556  1.0000
  H   H90       1.0  0.08145  0.37608  0.40535  1.0000
  C   C86       1.0  0.13280  0.05013  0.44997  1.0000
  H   H91       1.0  0.46393  0.42211  0.58060  1.0000
  H   H92       1.0  0.36393  0.05381  0.49003  1.0000
  H   H93       1.0  0.42143  0.22835  0.65666  1.0000
  C   C87       1.0  0.33576  0.01918  0.48960  1.0000
  C   C88       1.0  0.06848  0.45210  0.42753  1.0000
  H   H94       1.0  0.15280  0.06233  0.46355  1.0000
  H   H95       1.0  0.12166  0.07216  0.60262  1.0000
  H   H96       1.0  0.33374  0.11301  0.55431  1.0000
  H   H97       1.0  0.39478  0.47487  0.54894  1.0000
  C   C89       1.0  0.43868  0.11878  0.62192  1.0000
  H   H98       1.0  0.02307  0.36616  0.38087  1.0000
  H   H99       1.0  0.20523  0.04881  0.44949  1.0000
  H   H100      1.0  0.27657  0.23801  0.65557  1.0000
  H   H101      1.0  0.27406  0.12081  0.53896  1.0000
  C   C90       1.0  0.34521  0.28370  0.66161  1.0000
  C   C91       1.0  0.04426  0.42653  0.41112  1.0000
  N   N5        1.0  0.02164  0.37750  0.41165  1.0000
  H   H102      1.0  0.46881  0.12798  0.61389  1.0000
  H   H103      1.0  0.06878  0.37324  0.43078  1.0000
  C   C92       1.0  0.27119  0.04010  0.50972  1.0000
  C   C93       1.0  0.05554  0.01235  0.56405  1.0000
  Fe  Fe11      1.0  0.01366  0.02617  0.48952  1.0000
  C   C94       1.0  0.19032  0.01341  0.44755  1.0000
  H   H104      1.0  0.00157  0.37364  0.44167  1.0000
  H   H105      1.0  0.02277  0.43382  0.38202  1.0000
  C   C95       1.0  0.04176  0.45021  0.39489  1.0000
  C   C96       1.0  0.42227  0.47996  0.55804  1.0000
  H   H106      1.0  0.15402  0.06752  0.43728  1.0000
  H   H107      1.0  0.23405  0.07471  0.51047  1.0000
  H   H108      1.0  0.31030  0.01833  0.47964  1.0000
  H   H109      1.0  0.05901  0.00039  0.43088  1.0000
  C   C97       1.0  0.09041  0.02115  0.55091  1.0000
  C   C98       1.0  0.13485  0.04671  0.55644  1.0000
  C   C99       1.0  0.99924  0.35573  0.39313  1.0000
  H   H110      1.0  0.00959  0.04706  0.54888  1.0000
  H   H111      1.0  0.10308  0.00084  0.41690  1.0000
  C   C100      1.0  0.00150  0.01410  0.54283  1.0000
  H   H112      1.0  0.08371  0.01015  0.53595  1.0000
  N   N6        1.0  0.11165  0.00122  0.44788  1.0000
  H   H113      1.0  0.25360  0.02147  0.49694  1.0000
  C   C101      1.0  0.35266  0.99999  0.52057  1.0000
  N   N7        1.0  0.31818  0.00372  0.50936  1.0000
  H   H114      1.0  0.36241  0.00154  0.65948  1.0000
  C   C102      1.0  0.06246  0.49647  0.39518  1.0000
  H   H115      1.0  0.34802  0.99825  0.48274  1.0000
  C   C103      1.0  0.14761  0.02061  0.79697  1.0000
  H   H116      1.0  0.42606  0.13185  0.68407  1.0000
  S   S22       1.0  0.37739  0.01844  0.72824  1.0000
  Fe  Fe12      1.0  0.05106  0.32486  0.89360  1.0000
  H   H117      1.0  0.45320  0.05967  0.75553  1.0000
  Fe  Fe13      1.0  0.05592  0.41073  0.90900  1.0000
  C   C104      1.0  0.25817  0.48032  0.84306  1.0000
  S   S23       1.0  0.04808  0.34942  0.92378  1.0000
  H   H118      1.0  0.34631  0.23345  0.76479  1.0000
  C   C105      1.0  0.48426  0.01900  0.75409  1.0000
  H   H119      1.0  0.34239  0.04300  0.69486  1.0000
  H   H120      1.0  0.10114  0.05035  0.75214  1.0000
  C   C106      1.0  0.08717  0.44726  0.96966  1.0000
  C   C107      1.0  0.03953  0.20736  0.88619  1.0000
  C   C108      1.0  0.04155  0.16802  0.88408  1.0000
  N   N8        1.0  0.38777  0.06771  0.67065  1.0000
  H   H121      1.0  0.03368  0.12884  0.77166  1.0000
  H   H122      1.0  0.06264  0.23364  0.89568  1.0000
  C   C109      1.0  0.45065  0.33303  0.70269  1.0000
  Fe  Fe14      1.0  0.28190  0.07872  0.75752  1.0000
  S   S24       1.0  0.35143  0.09611  0.76613  1.0000
  S   S25       1.0  0.22799  0.04274  0.78027  1.0000
  Fe  Fe15      1.0  0.31157  0.11570  0.71675  1.0000
  S   S26       1.0  0.38270  0.13613  0.72229  1.0000
  S   S27       1.0  0.28237  0.11989  0.68801  1.0000
  Fe  Fe16      1.0  0.35710  0.07004  0.73689  1.0000
  C   C110      1.0  0.05051  0.43785  0.98105  1.0000
  Fe  Fe17      1.0  0.37182  0.16066  0.75108  1.0000
  S   S28       1.0  0.42626  0.22614  0.76321  1.0000
  S   S29       1.0  0.28591  0.04801  0.72936  1.0000
  S   S30       1.0  0.30235  0.14513  0.74440  1.0000
  H   H123      1.0  0.42083  0.08655  0.69850  1.0000
  S   S31       1.0  0.05421  0.38415  0.87899  1.0000
  Fe  Fe18      1.0  0.12247  0.38310  0.92312  1.0000
  S   S32       1.0  0.13038  0.44592  0.91056  1.0000
  S   S33       1.0  0.17331  0.39452  0.94632  1.0000
  Fe  Fe19      1.0  0.12807  0.41420  0.88178  1.0000
  S   S34       1.0  0.17405  0.45130  0.85696  1.0000
  S   S35       1.0  0.12481  0.35341  0.89423  1.0000
  Fe  Fe20      1.0  0.43782  0.44450  0.80695  1.0000
  S   S36       1.0  0.43648  0.43945  0.83933  1.0000
  S   S37       1.0  0.39309  0.38325  0.78876  1.0000
  H   H124      1.0  0.38361  0.00976  0.68392  1.0000
  C   C111      1.0  0.45220  0.03087  0.74895  1.0000
  C   C112      1.0  0.31362  0.46920  0.85944  1.0000
  C   C113      1.0  0.19400  0.38910  0.98408  1.0000
  C   C114      1.0  0.15964  0.37632  0.97047  1.0000
  C   C115      1.0  0.11570  0.35013  0.97642  1.0000
  H   H125      1.0  0.34346  0.08830  0.68254  1.0000
  H   H126      1.0  0.46229  0.31983  0.69065  1.0000
  H   H127      1.0  0.08904  0.34031  0.96605  1.0000
  H   H128      1.0  0.16030  0.01192  0.80950  1.0000
  C   C116      1.0  0.01945  0.15902  0.79518  1.0000
  H   H129      1.0  0.47213  0.37388  0.79025  1.0000
  H   H130      1.0  0.05418  0.17984  0.79886  1.0000
  C   C117      1.0  0.22720  0.45670  0.85764  1.0000
  C   C118      1.0  0.23917  0.43810  0.87271  1.0000
  C   C119      1.0  0.28205  0.44403  0.87348  1.0000
  H   H131      1.0  0.31890  0.23445  0.71329  1.0000
  C   C120      1.0  0.00707  0.12948  0.77944  1.0000
  H   H132      1.0  0.21560  0.41972  0.88394  1.0000
  C   C121      1.0  0.00660  0.21184  0.87656  1.0000
  C   C122      1.0  0.08727  0.02525  0.78134  1.0000
  H   H133      1.0  0.29223  0.02073  0.79653  1.0000
  H   H134      1.0  0.37730  0.17964  0.68382  1.0000
  C   C123      1.0  0.17439  0.03757  0.78039  1.0000
  C   C124      1.0  0.15744  0.04865  0.76431  1.0000
  C   C125      1.0  0.11406  0.04225  0.76476  1.0000
  H   H135      1.0  0.45028  0.36312  0.69761  1.0000
  H   H136      1.0  0.17749  0.06153  0.75142  1.0000
  C   C126      1.0  0.34559  0.05776  0.68025  1.0000
  C   C127      1.0  0.36097  0.18058  0.67068  1.0000
  H   H137      1.0  0.38080  0.23661  0.72499  1.0000
  S   S38       1.0  0.01755  0.44280  0.92189  1.0000
  C   C128      1.0  0.41595  0.26841  0.77154  1.0000
  C   C129      1.0  0.45126  0.30816  0.77887  1.0000
  C   C130      1.0  0.44464  0.34329  0.78477  1.0000
  C   C131      1.0  0.40267  0.33906  0.78314  1.0000
  C   C132      1.0  0.36731  0.29920  0.77594  1.0000
  C   C133      1.0  0.37381  0.26390  0.77029  1.0000
  H   H138      1.0  0.33473  0.29567  0.77460  1.0000
  C   C134      1.0  0.41919  0.00555  0.73531  1.0000
  N   N9        1.0  0.28417  0.34498  0.83194  1.0000
  C   C135      1.0  0.31225  0.35254  0.84931  1.0000
  C   C136      1.0  0.28495  0.31018  0.81958  1.0000
  C   C137      1.0  0.30482  0.38654  0.82053  1.0000
  C   C138      1.0  0.23829  0.33081  0.83823  1.0000
  C   C139      1.0  0.21250  0.28954  0.84766  1.0000
  C   C140      1.0  0.21844  0.35769  0.83595  1.0000
  C   C141      1.0  0.16940  0.27575  0.85405  1.0000
  C   C142      1.0  0.17540  0.34367  0.84250  1.0000
  C   C143      1.0  0.15090  0.30279  0.85148  1.0000
  H   H139      1.0  0.30016  0.32228  0.85824  1.0000
  H   H140      1.0  0.34705  0.36305  0.84522  1.0000
  H   H141      1.0  0.31321  0.37912  0.85879  1.0000
  H   H142      1.0  0.27570  0.27929  0.82763  1.0000
  H   H143      1.0  0.31870  0.32125  0.81365  1.0000
  H   H144      1.0  0.26204  0.30160  0.80698  1.0000
  H   H145      1.0  0.30902  0.41526  0.82929  1.0000
  H   H146      1.0  0.33881  0.39571  0.81567  1.0000
  H   H147      1.0  0.28524  0.38336  0.80726  1.0000
  H   H148      1.0  0.22566  0.26777  0.85038  1.0000
  H   H149      1.0  0.23560  0.39005  0.82943  1.0000
  H   H150      1.0  0.15025  0.24409  0.86121  1.0000
  H   H151      1.0  0.16119  0.36506  0.84088  1.0000
  H   H152      1.0  0.11764  0.29225  0.85664  1.0000
  N   N10       1.0  0.40636  0.29891  0.70976  1.0000
  H   H153      1.0  0.48396  0.31188  0.77991  1.0000
  C   C144      1.0  0.39432  0.31868  0.72617  1.0000
  C   C145      1.0  0.41074  0.26131  0.71709  1.0000
  C   C146      1.0  0.37129  0.28290  0.69468  1.0000
  C   C147      1.0  0.32739  0.24943  0.69911  1.0000
  C   C148      1.0  0.37927  0.29957  0.67541  1.0000
  C   C149      1.0  0.29364  0.23380  0.68518  1.0000
  H   H154      1.0  0.26951  0.44070  0.91667  1.0000
  H   H155      1.0  0.29098  0.42951  0.88518  1.0000
  H   H156      1.0  0.47617  0.34423  0.71440  1.0000
  C   C150      1.0  0.42462  0.09917  0.68339  1.0000
  S   S39       1.0  0.99990  0.25885  0.88005  1.0000
  H   H157      1.0  0.42003  0.33135  0.73784  1.0000
  H   H158      1.0  0.36283  0.29431  0.73318  1.0000
  H   H159      1.0  0.39011  0.34676  0.72126  1.0000
  H   H160      1.0  0.41683  0.24365  0.70501  1.0000
  S   S40       1.0  0.36857  0.48086  0.86297  1.0000
  H   H161      1.0  0.02054  0.43328  0.97409  1.0000
  H   H162      1.0  0.29840  0.44615  0.93901  1.0000
  H   H163      1.0  0.45742  0.10506  0.67835  1.0000
  H   H164      1.0  0.26074  0.20710  0.68871  1.0000
  H   H165      1.0  0.35311  0.48533  0.90411  1.0000
  C   C151      1.0  0.10446  0.01476  0.79751  1.0000
  H   H166      1.0  0.25825  0.46284  0.93806  1.0000
  H   H167      1.0  0.06640  0.16441  0.89196  1.0000
  C   C152      1.0  0.30249  0.25104  0.66650  1.0000
  H   H168      1.0  0.08551  0.44983  0.95402  1.0000
  C   C153      1.0  0.28517  0.46261  0.92951  1.0000
  H   H169      1.0  0.43869  0.27253  0.72760  1.0000
  H   H170      1.0  0.22806  0.40940  0.97955  1.0000
  C   C154      1.0  0.31496  0.15444  0.66897  1.0000
  C   C155      1.0  0.12571  0.45279  0.97835  1.0000
  H   H171      1.0  0.15379  0.45904  0.96932  1.0000
  H   H172      1.0  0.41161  0.32425  0.67041  1.0000
  S   S41       1.0  0.03232  0.01669  0.78094  1.0000
  S   S42       1.0  0.01310  0.08302  0.87072  1.0000
  H   H173      1.0  0.34233  0.02145  0.79031  1.0000
  Fe  Fe21      1.0  0.41907  0.49324  0.83948  1.0000
  C   C156      1.0  0.10631  0.33652  0.99586  1.0000
  S   S43       1.0  0.41618  0.49579  0.80696  1.0000
  C   C157      1.0  0.30142  0.48666  0.84395  1.0000
  C   C158      1.0  0.01130  0.13315  0.87204  1.0000
  H   H174      1.0  0.99668  0.01206  0.91360  1.0000
  H   H175      1.0  0.00234  0.10628  0.73971  1.0000
  C   C159      1.0  0.38880  0.02565  0.66940  1.0000
  H   H176      1.0  0.31618  0.03359  0.67170  1.0000
  H   H177      1.0  0.24902  0.49469  0.83133  1.0000
  H   H178      1.0  0.00795  0.06622  0.75429  1.0000
  H   H179      1.0  0.36981  0.48929  0.92896  1.0000
  H   H180      1.0  0.42108  0.03062  0.66407  1.0000
  H   H181      1.0  0.08431  0.00158  0.81035  1.0000
  C   C160      1.0  0.30868  0.00023  0.79639  1.0000
  H   H182      1.0  0.99708  0.18267  0.81920  1.0000
  N   N11       1.0  0.07086  0.77542  0.17229  1.0000
  H   H183      1.0  0.04058  0.70564  0.19943  1.0000
  C   C161      1.0  0.43070  0.95689  0.22470  1.0000
  C   C162      1.0  0.02700  0.69632  0.18496  1.0000
  H   H184      1.0  0.04308  0.97630  0.21561  1.0000
  S   S44       1.0  0.03339  0.56353  0.19479  1.0000
  H   H185      1.0  0.07946  0.62810  0.22491  1.0000
  H   H186      1.0  0.04807  0.86639  0.20246  1.0000
  Fe  Fe22      1.0  0.30542  0.89608  0.22581  1.0000
  S   S45       1.0  0.27584  0.92845  0.24407  1.0000
  S   S46       1.0  0.37655  0.92307  0.21478  1.0000
  Fe  Fe23      1.0  0.21222  0.81770  0.21545  1.0000
  S   S47       1.0  0.17601  0.84433  0.23331  1.0000
  S   S48       1.0  0.18322  0.76606  0.19127  1.0000
  Fe  Fe24      1.0  0.22427  0.91045  0.22074  1.0000
  C   C163      1.0  0.01971  0.71043  0.15116  1.0000
  Fe  Fe25      1.0  0.22983  0.85993  0.25551  1.0000
  S   S49       1.0  0.22599  0.86164  0.28845  1.0000
  S   S50       1.0  0.25707  0.88325  0.20167  1.0000
  S   S51       1.0  0.26269  0.82823  0.23850  1.0000
  H   H187      1.0  0.09158  0.72302  0.30720  1.0000
  H   H188      1.0  0.09744  0.52929  0.19008  1.0000
  H   H189      1.0  0.18778  0.51204  0.15189  1.0000
  C   C164      1.0  0.18376  0.82522  0.30441  1.0000
  H   H190      1.0  0.30828  0.82385  0.29592  1.0000
  C   C165      1.0  0.20993  0.73813  0.32659  1.0000
  C   C166      1.0  0.11803  0.75506  0.31194  1.0000
  C   C167      1.0  0.14850  0.78442  0.29826  1.0000
  H   H191      1.0  0.03874  0.79717  0.15165  1.0000
  H   H192      1.0  0.14553  0.77496  0.28311  1.0000
  N   N12       1.0  0.15400  0.56974  0.15954  1.0000
  H   H193      1.0  0.10320  0.99147  0.17347  1.0000
  H   H194      1.0  0.13536  0.50700  0.08349  1.0000
  H   H195      1.0  0.01992  0.79266  0.17624  1.0000
  C   C168      1.0  0.14098  0.71017  0.19291  1.0000
  C   C169      1.0  0.12334  0.68609  0.17562  1.0000
  C   C170      1.0  0.08955  0.64159  0.17604  1.0000
  C   C171      1.0  0.07390  0.62029  0.19379  1.0000
  C   C172      1.0  0.09149  0.64434  0.21111  1.0000
  C   C173      1.0  0.12466  0.68933  0.21070  1.0000
  H   H196      1.0  0.13573  0.70198  0.16179  1.0000
  H   H197      1.0  0.07571  0.62390  0.16262  1.0000
  H   H198      1.0  0.13806  0.70760  0.22410  1.0000
  C   C174      1.0  0.07051  0.92743  0.18695  1.0000
  C   C175      1.0  0.07652  0.89750  0.19834  1.0000
  C   C176      1.0  0.11904  0.90771  0.20467  1.0000
  C   C177      1.0  0.15607  0.94794  0.19961  1.0000
  C   C178      1.0  0.24285  0.76740  0.29535  1.0000
  S   S52       1.0  0.00929  0.55432  0.13799  1.0000
  H   H199      1.0  0.12315  0.88487  0.21378  1.0000
  C   C179      1.0  0.46009  0.60479  0.10302  1.0000
  C   C180      1.0  0.15000  0.97824  0.18850  1.0000
  H   H200      1.0  0.45735  0.63959  0.12837  1.0000
  H   H201      1.0  0.23992  0.76767  0.27970  1.0000
  H   H202      1.0  0.19219  0.61315  0.13619  1.0000
  C   C181      1.0  0.07328  0.95978  0.23834  1.0000
  C   C182      1.0  0.10966  0.78849  0.15947  1.0000
  S   S53       1.0  0.21013  0.96166  0.20716  1.0000
  H   H203      1.0  0.09653  0.53488  0.14144  1.0000
  C   C183      1.0  0.08777  0.78787  0.19249  1.0000
  H   H204      1.0  0.14794  0.60220  0.18540  1.0000
  H   H205      1.0  0.11770  0.59353  0.14277  1.0000
  H   H206      1.0  0.06070  0.78082  0.20293  1.0000
  H   H207      1.0  0.46254  0.95048  0.19899  1.0000
  H   H208      1.0  0.07268  0.83798  0.16909  1.0000
  S   S54       1.0  0.01624  0.91198  0.17907  1.0000
  C   C184      1.0  0.04954  0.80176  0.16706  1.0000
  H   H209      1.0  0.17670  0.71326  0.29916  1.0000
  C   C185      1.0  0.17196  0.60714  0.17367  1.0000
  C   C186      1.0  0.10739  0.96807  0.18218  1.0000
  Fe  Fe26      1.0  0.99894  0.52467  0.16748  1.0000
  H   H210      1.0  0.21885  0.58776  0.14854  1.0000
  C   C187      1.0  0.03898  0.72748  0.16967  1.0000
  H   H211      1.0  0.10535  0.77025  0.19728  1.0000
  H   H212      1.0  0.20264  0.61152  0.18074  1.0000
  H   H213      1.0  0.08770  0.55931  0.16268  1.0000
  C   C188      1.0  0.03249  0.93396  0.26821  1.0000
  C   C189      1.0  0.11226  0.56420  0.15128  1.0000
  C   C190      1.0  0.11441  0.51209  0.18512  1.0000
  H   H214      1.0  0.02772  0.73190  0.13877  1.0000
  H   H215      1.0  0.12519  0.76781  0.16227  1.0000
  H   H216      1.0  0.13586  0.82364  0.16191  1.0000
  H   H217      1.0  0.31280  0.97044  0.17864  1.0000
  H   H218      1.0  0.11252  0.82377  0.19384  1.0000
  C   C191      1.0  0.99776  0.65113  0.18176  1.0000
  H   H219      1.0  0.17344  0.55591  0.13178  1.0000
  H   H220      1.0  0.17995  0.63898  0.16664  1.0000
  H   H221      1.0  0.10080  0.78495  0.14382  1.0000
  C   C192      1.0  0.49168  0.49824  0.08112  1.0000
  C   C193      1.0  0.18614  0.58205  0.14334  1.0000
  C   C194      1.0  0.14488  0.52846  0.16947  1.0000
  C   C195      1.0  0.20731  0.73677  0.30634  1.0000
  C   C196      1.0  0.47844  0.63281  0.11905  1.0000
  C   C197      1.0  0.28141  0.79911  0.30457  1.0000
  C   C198      1.0  0.48438  0.49921  0.06122  1.0000
  H   H222      1.0  0.10247  0.96774  0.22977  1.0000
  C   C199      1.0  0.28476  0.80028  0.32483  1.0000
  S   S55       1.0  0.99695  0.97156  0.13209  1.0000
  C   C200      1.0  0.16497  0.50309  0.16389  1.0000
  C   C201      1.0  0.06995  0.94428  0.25718  1.0000
  H   H223      1.0  0.09647  0.94019  0.26320  1.0000
  C   C202      1.0  0.03908  0.96474  0.23040  1.0000
  S   S56       1.0  0.06153  0.50205  0.10424  1.0000
  C   C203      1.0  0.18697  0.83716  0.32412  1.0000
  H   H224      1.0  0.42494  0.58965  0.09993  1.0000
  H   H225      1.0  0.10171  0.49980  0.03800  1.0000
  C   C204      1.0  0.00044  0.95463  0.24121  1.0000
  H   H226      1.0  0.47255  0.57382  0.07859  1.0000
  H   H227      1.0  0.40997  0.97111  0.25194  1.0000
  C   C205      1.0  0.43795  0.97713  0.24299  1.0000
  C   C206      1.0  0.46767  0.96568  0.21322  1.0000
  H   H228      1.0  0.36410  0.97562  0.18575  1.0000
  H   H229      1.0  0.03010  0.92186  0.28287  1.0000
  H   H230      1.0  0.21372  0.86896  0.32893  1.0000
  C   C207      1.0  0.48694  0.59599  0.09098  1.0000
  C   C208      1.0  0.99813  0.93907  0.26045  1.0000
  H   H231      1.0  0.30473  0.99143  0.21311  1.0000
  H   H232      1.0  0.35698  0.99615  0.21864  1.0000
  C   C209      1.0  0.34881  0.99485  0.18019  1.0000
  H   H233      1.0  0.02961  0.81806  0.41224  1.0000
  Fe  Fe27      1.0  0.07270  0.66493  0.41498  1.0000
  S   S57       1.0  0.04024  0.70123  0.40237  1.0000
  H   H234      1.0  0.22535  0.93812  0.44251  1.0000
  Fe  Fe28      1.0  0.08491  0.75854  0.42193  1.0000
  S   S58       1.0  0.06477  0.79219  0.44523  1.0000
  S   S59       1.0  0.11410  0.72053  0.43592  1.0000
  H   H235      1.0  0.20098  0.70247  0.36288  1.0000
  S   S60       1.0  0.03651  0.59611  0.42906  1.0000
  C   C210      1.0  0.08300  0.98799  0.43032  1.0000
  C   C211      1.0  0.23632  0.72666  0.36597  1.0000
  H   H236      1.0  0.32007  0.79373  0.36096  1.0000
  H   H237      1.0  0.45138  0.55138  0.55890  1.0000
  C   C212      1.0  0.03460  0.82061  0.44340  1.0000
  H   H238      1.0  0.45590  0.79956  0.59878  1.0000
  H   H239      1.0  0.02178  0.65403  0.45276  1.0000
  C   C213      1.0  0.00362  0.67252  0.45488  1.0000
  H   H240      1.0  0.48864  0.74902  0.65523  1.0000
  Fe  Fe29      1.0  0.42604  0.95963  0.48615  1.0000
  S   S61       1.0  0.35145  0.91998  0.48139  1.0000
  H   H241      1.0  0.26326  0.94685  0.52235  1.0000
  Fe  Fe30      1.0  0.16590  0.74905  0.41292  1.0000
  S   S62       1.0  0.14000  0.79094  0.39999  1.0000
  S   S63       1.0  0.23936  0.77379  0.41730  1.0000
  Fe  Fe31      1.0  0.09787  0.73066  0.38140  1.0000
  S   S64       1.0  0.08576  0.72725  0.34878  1.0000
  S   S65       1.0  0.12740  0.69060  0.39290  1.0000
  C   C214      1.0  0.32163  0.88054  0.46295  1.0000
  C   C215      1.0  0.34213  0.86534  0.44997  1.0000
  C   C216      1.0  0.31657  0.83276  0.43597  1.0000
  C   C217      1.0  0.27050  0.81546  0.43474  1.0000
  C   C218      1.0  0.25018  0.83126  0.44750  1.0000
  C   C219      1.0  0.27563  0.86350  0.46159  1.0000
  H   H242      1.0  0.37748  0.87813  0.45092  1.0000
  H   H243      1.0  0.33251  0.82062  0.42618  1.0000
  H   H244      1.0  0.21474  0.81807  0.44673  1.0000
  H   H245      1.0  0.25946  0.87488  0.47162  1.0000
  N   N13       1.0  0.00879  0.98744  0.55746  1.0000
  H   H246      1.0  0.30579  0.83726  0.36243  1.0000
  H   H247      1.0  0.05849  0.99240  0.46664  1.0000
  H   H248      1.0  0.23937  0.72760  0.38210  1.0000
  C   C220      1.0  0.47923  0.81583  0.53109  1.0000
  N   N14       1.0  0.25034  0.77123  0.35798  1.0000
  H   H249      1.0  0.14437  0.88708  0.44057  1.0000
  H   H250      1.0  0.25330  0.95675  0.49776  1.0000
  H   H251      1.0  0.15846  0.81812  0.35275  1.0000
  H   H252      1.0  0.46816  0.86599  0.51811  1.0000
  H   H253      1.0  0.25681  0.71304  0.35997  1.0000
  C   C221      1.0  0.24900  0.76952  0.33649  1.0000
  H   H254      1.0  0.18457  0.76219  0.36082  1.0000
  C   C222      1.0  0.99937  0.85380  0.42484  1.0000
  H   H255      1.0  0.01806  0.94883  0.53497  1.0000
  C   C223      1.0  0.29491  0.80225  0.36612  1.0000
  H   H256      1.0  0.36055  0.97549  0.51389  1.0000
  C   C224      1.0  0.15599  0.80825  0.33768  1.0000
  H   H257      1.0  0.44521  0.78968  0.52925  1.0000
  C   C225      1.0  0.21950  0.78597  0.36491  1.0000
  H   H258      1.0  0.03361  0.82864  0.47443  1.0000
  H   H259      1.0  0.29501  0.80127  0.38231  1.0000
  C   C226      1.0  0.49214  0.85902  0.52478  1.0000
  C   C227      1.0  0.20287  0.95117  0.44367  1.0000
  C   C228      1.0  0.02406  0.83560  0.46053  1.0000
  H   H260      1.0  0.01273  0.68864  0.46946  1.0000
  S   S66       1.0  0.48550  0.95679  0.47478  1.0000
  C   C229      1.0  0.08865  0.49832  0.42771  1.0000
  H   H261      1.0  0.00173  0.56269  0.38986  1.0000
  C   C230      1.0  0.27892  0.95856  0.50790  1.0000
  C   C231      1.0  0.99891  0.94454  0.54845  1.0000
  C   C232      1.0  0.14362  0.98496  0.44631  1.0000
  H   H262      1.0  0.00631  0.92449  0.55869  1.0000
  C   C233      1.0  0.00124  0.54210  0.41925  1.0000
  H   H263      1.0  0.28802  0.93400  0.50228  1.0000
  H   H264      1.0  0.01729  0.69936  0.44403  1.0000
  S   S67       1.0  0.44841  0.96780  0.51742  1.0000
  C   C234      1.0  0.12816  0.93903  0.44376  1.0000
  H   H265      1.0  0.34176  0.98886  0.53568  1.0000
  C   C235      1.0  0.48400  0.83101  0.59322  1.0000
  C   C236      1.0  0.08555  0.52045  0.41158  1.0000
  H   H266      1.0  0.22834  0.81883  0.35879  1.0000
  H   H267      1.0  0.06416  0.94475  0.46429  1.0000
  C   C237      1.0  0.02177  0.82945  0.42553  1.0000
  H   H268      1.0  0.06228  0.95148  0.42866  1.0000
  C   C238      1.0  0.45433  0.52345  0.56370  1.0000
  S   S68       1.0  0.49284  0.75188  0.54768  1.0000
  H   H269      1.0  0.22022  0.78946  0.38093  1.0000
  C   C239      1.0  0.15733  0.92248  0.44252  1.0000
  H   H270      1.0  0.09994  0.55619  0.41199  1.0000
  C   C240      1.0  0.08329  0.98136  0.46511  1.0000
  H   H271      1.0  0.09318  0.91539  0.44273  1.0000
  C   C241      1.0  0.00154  0.85980  0.45984  1.0000
  C   C242      1.0  0.12230  0.76645  0.33178  1.0000
  H   H272      1.0  0.05898  0.51379  0.38289  1.0000
  C   C243      1.0  0.49068  0.53070  0.57506  1.0000
  H   H273      1.0  0.49433  0.81416  0.62936  1.0000
  H   H274      1.0  0.18036  0.71551  0.33443  1.0000
  H   H275      1.0  0.10599  0.51716  0.44057  1.0000
  H   H276      1.0  0.10332  0.99090  0.47871  1.0000
  H   H277      1.0  0.47616  0.85766  0.59659  1.0000
  H   H278      1.0  0.48407  0.82678  0.57715  1.0000
  H   H279      1.0  0.31520  0.82635  0.33097  1.0000
  H   H280      1.0  0.48270  0.52965  0.52535  1.0000
  C   C244      1.0  0.21933  0.99653  0.44617  1.0000
  C   C245      1.0  0.33194  0.53770  0.94075  1.0000
  H   H281      1.0  0.01422  0.91061  0.91135  1.0000
  C   C246      1.0  0.32901  0.54838  0.89184  1.0000
  C   C247      1.0  0.48083  0.62017  0.71974  1.0000
  C   C248      1.0  0.31232  0.56443  0.87753  1.0000
  H   H282      1.0  0.44764  0.54458  0.75606  1.0000
  H   H283      1.0  0.40430  0.94066  0.77129  1.0000
  N   N15       1.0  0.28270  0.95862  0.78509  1.0000
  H   H284      1.0  0.30297  0.53969  0.94637  1.0000
  C   C249      1.0  0.46823  0.65023  0.72748  1.0000
  H   H285      1.0  0.35801  0.57200  0.93701  1.0000
  C   C250      1.0  0.45083  0.95633  0.73214  1.0000
  C   C251      1.0  0.41880  0.96823  0.72698  1.0000
  H   H286      1.0  0.23873  0.50427  0.92175  1.0000
  H   H287      1.0  0.25887  0.98688  0.76370  1.0000
  N   N16       1.0  0.47844  0.69096  0.71678  1.0000
  C   C252      1.0  0.26026  0.52069  0.90962  1.0000
  H   H288      1.0  0.42891  0.70311  0.72985  1.0000
  C   C253      1.0  0.35954  0.50517  0.91770  1.0000
  C   C254      1.0  0.37145  0.92645  0.77758  1.0000
  H   H289      1.0  0.41844  0.65795  0.69993  1.0000
  C   C255      1.0  0.30971  0.86602  0.79373  1.0000
  C   C256      1.0  0.30577  0.93256  0.78547  1.0000
  H   H290      1.0  0.36178  0.55330  0.88935  1.0000
  C   C257      1.0  0.24386  0.53664  0.89513  1.0000
  H   H291      1.0  0.45473  0.69233  0.80570  1.0000
  H   H292      1.0  0.46582  0.66045  0.68824  1.0000
  C   C258      1.0  0.48396  0.98170  0.74575  1.0000
  C   C259      1.0  0.48688  0.65431  0.79927  1.0000
  H   H293      1.0  0.21046  0.53132  0.89607  1.0000
  C   C260      1.0  0.44619  0.63927  0.74571  1.0000
  C   C261      1.0  0.34887  0.95026  0.77747  1.0000
  Fe  Fe32      1.0  0.48914  0.54578  0.80880  1.0000
  S   S69       1.0  0.49017  0.54789  0.84142  1.0000
  S   S70       1.0  0.49417  0.76867  0.78119  1.0000
  H   H294      1.0  0.38892  0.53845  0.91532  1.0000
  H   H295      1.0  0.39341  0.94814  0.71650  1.0000
  H   H296      1.0  0.25621  0.56906  0.86757  1.0000
  H   H297      1.0  0.34468  0.52611  0.95287  1.0000
  H   H298      1.0  0.42263  0.59402  0.76977  1.0000
  C   C262      1.0  0.28677  0.88957  0.79370  1.0000
  C   C263      1.0  0.45485  0.67892  0.69786  1.0000
  H   H299      1.0  0.26231  0.93961  0.75540  1.0000
  H   H300      1.0  0.21543  0.90407  0.78519  1.0000
  C   C264      1.0  0.26970  0.55817  0.87907  1.0000
  H   H301      1.0  0.01802  0.97736  0.92120  1.0000
  H   H302      1.0  0.46765  0.62866  0.80966  1.0000
  H   H303      1.0  0.23775  0.92740  0.80898  1.0000
  H   H304      1.0  0.43563  0.66009  0.75293  1.0000
  C   C265      1.0  0.45237  0.57315  0.74790  1.0000
  C   C266      1.0  0.27867  0.96983  0.76474  1.0000
  H   H305      1.0  0.01859  0.95484  0.88726  1.0000
  H   H306      1.0  0.46090  0.70898  0.68969  1.0000
  H   H307      1.0  0.33202  0.58041  0.86480  1.0000
  S   S71       1.0  0.49136  0.84227  0.73848  1.0000
  C   C267      1.0  0.47957  0.69035  0.79697  1.0000
  C   C268      1.0  0.43833  0.60114  0.75563  1.0000
  H   H308      1.0  0.48420  0.56056  0.72399  1.0000
  H   H309      1.0  0.25425  0.87334  0.80015  1.0000
  H   H310      1.0  0.44989  0.92750  0.72562  1.0000
  H   H311      1.0  0.36962  0.86610  0.78565  1.0000
  C   C269      1.0  0.30301  0.52507  0.90818  1.0000
  C   C270      1.0  0.35191  0.88441  0.78567  1.0000
  H   H312      1.0  0.48264  0.73123  0.74157  1.0000
  H   H313      1.0  0.29469  0.83324  0.80001  1.0000
  C   C271      1.0  0.23730  0.93515  0.79337  1.0000
  C   C272      1.0  0.47326  0.58244  0.72992  1.0000
  N   N17       1.0  0.31981  0.50783  0.92364  1.0000
  C   C273      1.0  0.46527  0.71998  0.72735  1.0000
  H   H314      1.0  0.22108  0.95590  0.79266  1.0000
  H   H315      1.0  0.36549  0.98271  0.77094  1.0000
  H   H316      1.0  0.47374  0.75051  0.71910  1.0000
  H   H317      1.0  0.31132  0.99254  0.75816  1.0000
  H   H318      1.0  0.32561  0.50625  0.83308  1.0000
  S   S72       1.0  0.99747  0.98330  0.83756  1.0000
  H   H319      1.0  0.31291  0.99320  0.81172  1.0000
  H   H320      1.0  0.99677  0.98856  0.87940  1.0000
  H   H321      1.0  0.52843  0.42930  0.06852  1.0000
  C   C274      1.0  0.78750  0.01159  0.17408  1.0000
  C   C275      1.0  0.77385  0.46519  0.04703  1.0000
  Fe  Fe33      1.0  0.64285  0.07908  0.23470  1.0000
  S   S73       1.0  0.68661  0.04909  0.23973  1.0000
  S   S74       1.0  0.57282  0.05074  0.24745  1.0000
  Fe  Fe34      1.0  0.72243  0.16706  0.22041  1.0000
  S   S75       1.0  0.77121  0.14348  0.22460  1.0000
  S   S76       1.0  0.74130  0.23798  0.21358  1.0000
  Fe  Fe35      1.0  0.71862  0.07980  0.21126  1.0000
  S   S77       1.0  0.73708  0.04687  0.18715  1.0000
  Fe  Fe36      1.0  0.73565  0.11525  0.25268  1.0000
  S   S78       1.0  0.77523  0.12194  0.27991  1.0000
  S   S79       1.0  0.67120  0.10525  0.20509  1.0000
  S   S80       1.0  0.69083  0.14345  0.24953  1.0000
  Fe  Fe37      1.0  0.93305  0.43164  0.15219  1.0000
  S   S81       1.0  0.93788  0.45571  0.12139  1.0000
  S   S82       1.0  0.90311  0.35796  0.15824  1.0000
  H   H322      1.0  0.53210  0.15013  0.19803  1.0000
  H   H323      1.0  0.86855  0.14598  0.18288  1.0000
  N   N18       1.0  0.61575  0.03450  0.30306  1.0000
  H   H324      1.0  0.57607  0.07073  0.32729  1.0000
  H   H325      1.0  0.84831  0.12889  0.14918  1.0000
  C   C276      1.0  0.77339  0.15096  0.30074  1.0000
  C   C277      1.0  0.74321  0.16627  0.30220  1.0000
  C   C278      1.0  0.88535  0.39859  0.24988  1.0000
  H   H326      1.0  0.75970  0.27205  0.25324  1.0000
  C   C279      1.0  0.80241  0.15826  0.31628  1.0000
  H   H327      1.0  0.72070  0.16089  0.29040  1.0000
  H   H328      1.0  0.82587  0.14651  0.31525  1.0000
  C   C280      1.0  0.78609  0.27096  0.19804  1.0000
  C   C281      1.0  0.81054  0.25399  0.18901  1.0000
  C   C282      1.0  0.84614  0.28113  0.17681  1.0000
  C   C283      1.0  0.85773  0.32543  0.17357  1.0000
  C   C284      1.0  0.83349  0.34252  0.18271  1.0000
  C   C285      1.0  0.79776  0.31531  0.19489  1.0000
  H   H329      1.0  0.80173  0.21987  0.19128  1.0000
  H   H330      1.0  0.86468  0.26767  0.16977  1.0000
  H   H331      1.0  0.84216  0.37659  0.18035  1.0000
  H   H332      1.0  0.77905  0.32868  0.20189  1.0000
  S   S83       1.0  0.99126  0.01485  0.17373  1.0000
  C   C286      1.0  0.51860  0.01437  0.23817  1.0000
  H   H333      1.0  0.56800  0.05398  0.29482  1.0000
  H   H334      1.0  0.86979  0.09624  0.18633  1.0000
  C   C287      1.0  0.79630  0.03173  0.20811  1.0000
  C   C288      1.0  0.77594  0.02864  0.19022  1.0000
  H   H335      1.0  0.78752  0.04460  0.22066  1.0000
  H   H336      1.0  0.77146  0.00858  0.16026  1.0000
  H   H337      1.0  0.74312  0.45566  0.05548  1.0000
  H   H338      1.0  0.90415  0.35105  0.21058  1.0000
  C   C289      1.0  0.89038  0.13119  0.18166  1.0000
  H   H339      1.0  0.89285  0.43091  0.25533  1.0000
  H   H340      1.0  0.88759  0.20090  0.16048  1.0000
  C   C290      1.0  0.98293  0.00773  0.22729  1.0000
  C   C291      1.0  0.74306  0.49125  0.02289  1.0000
  C   C292      1.0  0.94923  0.25619  0.15236  1.0000
  C   C293      1.0  0.92166  0.21147  0.15683  1.0000
  H   H341      1.0  0.93625  0.27889  0.15265  1.0000
  H   H342      1.0  0.95792  0.11900  0.17152  1.0000
  H   H343      1.0  0.92176  0.42448  0.22335  1.0000
  H   H344      1.0  0.73200  0.46128  0.01358  1.0000
  C   C294      1.0  0.63206  0.05980  0.32148  1.0000
  H   H345      1.0  0.91778  0.14817  0.19239  1.0000
  H   H346      1.0  0.71529  0.48451  0.03295  1.0000
  H   H347      1.0  0.64609  0.09315  0.28569  1.0000
  C   C295      1.0  0.81979  0.99862  0.17565  1.0000
  C   C296      1.0  0.56995  0.02358  0.29782  1.0000
  C   C297      1.0  0.74149  0.18786  0.31923  1.0000
  C   C298      1.0  0.84024  0.00182  0.19352  1.0000
  C   C299      1.0  0.98303  0.19821  0.15172  1.0000
  H   H348      1.0  0.76878  0.43524  0.03892  1.0000
  C   C300      1.0  0.89194  0.35367  0.22476  1.0000
  H   H349      1.0  0.84821  0.07794  0.15051  1.0000
  H   H350      1.0  0.50338  0.07154  0.20640  1.0000
  H   H351      1.0  0.90650  0.07153  0.16521  1.0000
  N   N19       1.0  0.81924  0.27803  0.26551  1.0000
  C   C301      1.0  0.81262  0.23616  0.25662  1.0000
  C   C302      1.0  0.83888  0.28205  0.28506  1.0000
  C   C303      1.0  0.77492  0.27388  0.26771  1.0000
  C   C304      1.0  0.84802  0.31776  0.25386  1.0000
  C   C305      1.0  0.85886  0.36059  0.26073  1.0000
  C   C306      1.0  0.86535  0.31544  0.23543  1.0000
  H   H352      1.0  0.84449  0.23636  0.25483  1.0000
  H   H353      1.0  0.79106  0.20693  0.26568  1.0000
  H   H354      1.0  0.79586  0.22989  0.24227  1.0000
  H   H355      1.0  0.87315  0.28749  0.28397  1.0000
  H   H356      1.0  0.81923  0.25159  0.29381  1.0000
  H   H357      1.0  0.84028  0.30970  0.29378  1.0000
  H   H358      1.0  0.77631  0.30231  0.27575  1.0000
  H   H359      1.0  0.84641  0.36492  0.27447  1.0000
  H   H360      1.0  0.85810  0.28444  0.22867  1.0000
  H   H361      1.0  0.88183  0.11783  0.13265  1.0000
  H   H362      1.0  0.71725  0.19858  0.32047  1.0000
  C   C307      1.0  0.90177  0.39510  0.23190  1.0000
  H   H363      1.0  0.75171  0.24340  0.27576  1.0000
  N   N20       1.0  0.90783  0.13401  0.16174  1.0000
  H   H364      1.0  0.53929  0.00052  0.21084  1.0000
  C   C308      1.0  0.64527  0.06092  0.28706  1.0000
  C   C309      1.0  0.87004  0.11400  0.14791  1.0000
  C   C310      1.0  0.93772  0.18108  0.15673  1.0000
  C   C311      1.0  0.82805  0.01803  0.20977  1.0000
  H   H365      1.0  0.63372  0.04330  0.27290  1.0000
  C   C312      1.0  0.67413  0.07014  0.32904  1.0000
  H   H366      1.0  0.95704  0.01363  0.22078  1.0000
  H   H367      1.0  0.67994  0.06814  0.28911  1.0000
  S   S84       1.0  0.92454  0.48670  0.16531  1.0000
  C   C313      1.0  0.92967  0.10659  0.16113  1.0000
  H   H368      1.0  0.97342  0.22845  0.10697  1.0000
  H   H369      1.0  0.84350  0.02041  0.22368  1.0000
  H   H370      1.0  0.94185  0.10539  0.14632  1.0000
  H   H371      1.0  0.69539  0.06076  0.32138  1.0000
  H   H372      1.0  0.75770  0.44540  0.10445  1.0000
  H   H373      1.0  0.97207  0.15688  0.11012  1.0000
  H   H374      1.0  0.83210  0.46958  0.11867  1.0000
  C   C314      1.0  0.99350  0.27196  0.14765  1.0000
  H   H375      1.0  0.49802  0.39729  0.10047  1.0000
  S   S85       1.0  0.71993  0.49338  0.08647  1.0000
  Fe  Fe38      1.0  0.99167  0.03088  0.14210  1.0000
  C   C315      1.0  0.49689  0.12672  0.19685  1.0000
  H   H376      1.0  0.80004  0.47358  0.05815  1.0000
  H   H377      1.0  0.55833  0.00350  0.28417  1.0000
  C   C316      1.0  0.99269  0.22023  0.09717  1.0000
  C   C317      1.0  0.99171  0.17991  0.09884  1.0000
  C   C318      1.0  0.78282  0.48009  0.10431  1.0000
  H   H378      1.0  0.54583  0.00408  0.30935  1.0000
  C   C319      1.0  0.82492  0.49368  0.11233  1.0000
  H   H379      1.0  0.65015  0.99725  0.30572  1.0000
  C   C320      1.0  0.62492  0.10076  0.34919  1.0000
  S   S86       1.0  0.88536  0.04072  0.45626  1.0000
  H   H380      1.0  0.67987  0.13024  0.36920  1.0000
  H   H381      1.0  0.57676  0.17516  0.45211  1.0000
  S   S87       1.0  0.55914  0.06770  0.44645  1.0000
  S   S88       1.0  0.54552  0.04469  0.50273  1.0000
  Fe  Fe39      1.0  0.80897  0.24029  0.38291  1.0000
  S   S89       1.0  0.79953  0.28837  0.40156  1.0000
  S   S90       1.0  0.76374  0.21852  0.35648  1.0000
  Fe  Fe40      1.0  0.87907  0.24259  0.41053  1.0000
  S   S91       1.0  0.87449  0.29128  0.43066  1.0000
  S   S92       1.0  0.93265  0.22619  0.41862  1.0000
  Fe  Fe41      1.0  0.80093  0.24791  0.42647  1.0000
  S   S93       1.0  0.75743  0.22661  0.45323  1.0000
  Fe  Fe42      1.0  0.87401  0.32749  0.40381  1.0000
  S   S94       1.0  0.91422  0.40032  0.39451  1.0000
  S   S95       1.0  0.80540  0.19708  0.40788  1.0000
  S   S96       1.0  0.88318  0.28123  0.38373  1.0000
  C   C321      1.0  0.94644  0.45443  0.40479  1.0000
  C   C322      1.0  0.95765  0.46173  0.42451  1.0000
  C   C323      1.0  0.96242  0.49131  0.39245  1.0000
  S   S97       1.0  0.95425  0.02979  0.50035  1.0000
  C   C324      1.0  0.78325  0.15041  0.48364  1.0000
  C   C325      1.0  0.61512  0.11009  0.44862  1.0000
  C   C326      1.0  0.63985  0.12908  0.43175  1.0000
  C   C327      1.0  0.68390  0.16412  0.43298  1.0000
  C   C328      1.0  0.70315  0.18105  0.45112  1.0000
  C   C329      1.0  0.67867  0.16167  0.46799  1.0000
  C   C330      1.0  0.63508  0.12589  0.46674  1.0000
  H   H382      1.0  0.62473  0.11693  0.41765  1.0000
  H   H383      1.0  0.70249  0.17884  0.41988  1.0000
  H   H384      1.0  0.69337  0.17452  0.48207  1.0000
  H   H385      1.0  0.61684  0.11082  0.47978  1.0000
  C   C331      1.0  0.90035  0.09227  0.44527  1.0000
  C   C332      1.0  0.94310  0.12891  0.44668  1.0000
  C   C333      1.0  0.95265  0.16969  0.43839  1.0000
  C   C334      1.0  0.91957  0.17431  0.42875  1.0000
  C   C335      1.0  0.87703  0.13751  0.42715  1.0000
  C   C336      1.0  0.86753  0.09677  0.43534  1.0000
  H   H386      1.0  0.76370  0.14851  0.44631  1.0000
  H   H387      1.0  0.73367  0.06292  0.50230  1.0000
  H   H388      1.0  0.85172  0.14025  0.41923  1.0000
  H   H389      1.0  0.63555  0.21940  0.42970  1.0000
  H   H390      1.0  0.76100  0.16438  0.48122  1.0000
  H   H391      1.0  0.83467  0.06839  0.43377  1.0000
  H   H392      1.0  0.77976  0.14006  0.49904  1.0000
  C   C337      1.0  0.53976  0.14577  0.48462  1.0000
  H   H393      1.0  0.51616  0.12518  0.49608  1.0000
  H   H394      1.0  0.79417  0.06613  0.46452  1.0000
  H   H395      1.0  0.60643  0.11355  0.35691  1.0000
  Fe  Fe43      1.0  0.92959  0.01622  0.46943  1.0000
  H   H396      1.0  0.96941  0.32432  0.42777  1.0000
  H   H397      1.0  0.96640  0.99740  0.53789  1.0000
  H   H398      1.0  0.82300  0.18514  0.34529  1.0000
  C   C338      1.0  0.98742  0.36120  0.42701  1.0000
  C   C339      1.0  0.66648  0.02388  0.49334  1.0000
  C   C340      1.0  0.66614  0.10995  0.35625  1.0000
  H   H399      1.0  0.98286  0.31888  0.39400  1.0000
  H   H400      1.0  0.96267  0.37196  0.42418  1.0000
  H   H401      1.0  0.81786  0.17811  0.48174  1.0000
  Fe  Fe44      1.0  0.51786  0.03107  0.47262  1.0000
  C   C341      1.0  0.55616  0.21387  0.50048  1.0000
  C   C342      1.0  0.69285  0.06736  0.45778  1.0000
  C   C343      1.0  0.78294  0.13195  0.45007  1.0000
  C   C344      1.0  0.59611  0.17629  0.50908  1.0000
  H   H402      1.0  0.65567  0.00735  0.50721  1.0000
  H   H403      1.0  0.61453  0.15987  0.50370  1.0000
  H   H404      1.0  0.51652  0.48743  0.53963  1.0000
  C   C345      1.0  0.64850  0.03545  0.46095  1.0000
  H   H405      1.0  0.53015  0.19480  0.51149  1.0000
  H   H406      1.0  0.81843  0.15799  0.44865  1.0000
  H   H407      1.0  0.77631  0.10599  0.43895  1.0000
  H   H408      1.0  0.80059  0.08464  0.48932  1.0000
  H   H409      1.0  0.95398  0.48612  0.37718  1.0000
  N   N21       1.0  0.57610  0.18793  0.49272  1.0000
  C   C346      1.0  0.69051  0.09439  0.34627  1.0000
  C   C347      1.0  0.77010  0.19467  0.33488  1.0000
  H   H410      1.0  0.55274  0.12528  0.47794  1.0000
  C   C348      1.0  0.61038  0.21470  0.47821  1.0000
  C   C349      1.0  0.65001  0.25332  0.48406  1.0000
  C   C350      1.0  0.60556  0.20385  0.45806  1.0000
  C   C351      1.0  0.68361  0.27811  0.47077  1.0000
  C   C352      1.0  0.63919  0.22921  0.44487  1.0000
  C   C353      1.0  0.67832  0.26588  0.45124  1.0000
  H   H411      1.0  0.97860  0.00803  0.57960  1.0000
  C   C354      1.0  0.71096  0.05569  0.49034  1.0000
  H   H412      1.0  0.58112  0.24510  0.50770  1.0000
  C   C355      1.0  0.72559  0.07851  0.47245  1.0000
  H   H413      1.0  0.94567  0.43389  0.43422  1.0000
  H   H414      1.0  0.70023  0.08356  0.44387  1.0000
  H   H415      1.0  0.51994  0.15151  0.47355  1.0000
  H   H416      1.0  0.62381  0.02837  0.44976  1.0000
  C   C356      1.0  0.80097  0.18025  0.33328  1.0000
  H   H417      1.0  0.65559  0.26436  0.49901  1.0000
  C   C357      1.0  0.60788  0.07604  0.33207  1.0000
  H   H418      1.0  0.71432  0.30653  0.47562  1.0000
  H   H419      1.0  0.96869  0.12593  0.45426  1.0000
  H   H420      1.0  0.70499  0.28431  0.44107  1.0000
  H   H421      1.0  0.97251  0.36321  0.38944  1.0000
  C   C358      1.0  0.80232  0.09517  0.47403  1.0000
  H   H422      1.0  0.57048  0.15319  0.51945  1.0000
  H   H423      1.0  0.61930  0.20555  0.51791  1.0000
  H   H424      1.0  0.83778  0.12011  0.47137  1.0000
  N   N22       1.0  0.77255  0.11331  0.46995  1.0000
  H   H425      1.0  0.54035  0.22298  0.48871  1.0000
  H   H426      1.0  0.72318  0.10282  0.35153  1.0000
  C   C359      1.0  0.63532  0.01392  0.47869  1.0000
  H   H427      1.0  0.98578  0.19784  0.43958  1.0000
  S   S98       1.0  0.99146  0.01844  0.45823  1.0000
  H   H428      1.0  0.50154  0.48422  0.50583  1.0000
  H   H429      1.0  0.64369  0.42028  0.82270  1.0000
  H   H430      1.0  0.84634  0.30822  0.86528  1.0000
  S   S99       1.0  0.51086  0.49456  0.80645  1.0000
  C   C360      1.0  0.89511  0.36497  0.90714  1.0000
  C   C361      1.0  0.73937  0.45268  0.84887  1.0000
  H   H431      1.0  0.97007  0.35509  0.90536  1.0000
  S   S100      1.0  0.96960  0.05079  0.81648  1.0000
  C   C362      1.0  0.97930  0.13827  0.86193  1.0000
  H   H432      1.0  0.87992  0.41176  0.92074  1.0000
  C   C363      1.0  0.72259  0.45661  0.86713  1.0000
  H   H433      1.0  0.90016  0.24473  0.88566  1.0000
  H   H434      1.0  0.86053  0.25072  0.90030  1.0000
  H   H435      1.0  0.92769  0.10576  0.74094  1.0000
  C   C364      1.0  0.67867  0.44678  0.86928  1.0000
  H   H436      1.0  0.85936  0.25343  0.87426  1.0000
  H   H437      1.0  0.89475  0.08157  0.78450  1.0000
  C   C365      1.0  0.96166  0.10079  0.77465  1.0000
  H   H438      1.0  0.92014  0.37214  0.91805  1.0000
  C   C366      1.0  0.66575  0.42976  0.83514  1.0000
  N   N23       1.0  0.91217  0.31168  0.88845  1.0000
  C   C367      1.0  0.94404  0.31956  0.90437  1.0000
  C   C368      1.0  0.88158  0.26313  0.88711  1.0000
  C   C369      1.0  0.93773  0.32681  0.87015  1.0000
  C   C370      1.0  0.88692  0.33518  0.89137  1.0000
  C   C371      1.0  0.87206  0.38816  0.90892  1.0000
  C   C372      1.0  0.98899  0.46751  0.91062  1.0000
  H   H439      1.0  0.94976  0.01798  0.77594  1.0000
  H   H440      1.0  0.77540  0.40637  0.86220  1.0000
  H   H441      1.0  0.71934  0.43616  0.81829  1.0000
  C   C373      1.0  0.98734  0.16068  0.80667  1.0000
  H   H442      1.0  0.96175  0.30068  0.90203  1.0000
  C   C374      1.0  0.92987  0.10352  0.78666  1.0000
  Fe  Fe45      1.0  0.50750  0.49400  0.83911  1.0000
  H   H443      1.0  0.80628  0.34879  0.86906  1.0000
  H   H444      1.0  0.98081  0.49419  0.93766  1.0000
  H   H445      1.0  0.66695  0.45116  0.88327  1.0000
  H   H446      1.0  0.79964  0.45618  0.87686  1.0000
  H   H447      1.0  0.91603  0.31846  0.85717  1.0000
  Fe  Fe46      1.0  0.97623  0.03246  0.84674  1.0000
  H   H448      1.0  0.99075  0.44549  0.88154  1.0000
  C   C375      1.0  0.65037  0.43362  0.85331  1.0000
  C   C376      1.0  0.97673  0.17720  0.86434  1.0000
  H   H449      1.0  0.61680  0.42763  0.85494  1.0000
  H   H450      1.0  0.74368  0.46894  0.87978  1.0000
  H   H451      1.0  0.95867  0.31121  0.86779  1.0000
  C   C377      1.0  0.70955  0.43910  0.83283  1.0000
  H   H452      1.0  0.82333  0.40138  0.89660  1.0000
  N   N24       1.0  0.94713  0.06764  0.75867  1.0000
  H   H453      1.0  0.76124  0.00773  0.80174  1.0000
  C   C378      1.0  0.85399  0.32988  0.87775  1.0000
  H   H454      1.0  0.77559  0.41608  0.82477  1.0000
  H   H455      1.0  0.95575  0.11172  0.85266  1.0000
  H   H456      1.0  0.92719  0.30902  0.91865  1.0000
  C   C379      1.0  0.98407  0.07260  0.74611  1.0000
  H   H457      1.0  0.97202  0.04816  0.73391  1.0000
  C   C380      1.0  0.79698  0.45216  0.82774  1.0000
  C   C381      1.0  0.91444  0.07118  0.74605  1.0000
  C   C382      1.0  0.83101  0.35316  0.87972  1.0000
  H   H458      1.0  0.96015  0.36341  0.87036  1.0000
  H   H459      1.0  0.91761  0.13320  0.81173  1.0000
  H   H460      1.0  0.88253  0.06094  0.75360  1.0000
  H   H461      1.0  0.95109  0.18024  0.85685  1.0000
  C   C383      1.0  0.95375  0.48042  0.88277  1.0000
  C   C384      1.0  0.84028  0.38249  0.89523  1.0000
  Fe  Fe47      1.0  0.98636  0.99874  0.80714  1.0000
  C   C385      1.0  0.92579  0.02260  0.76701  1.0000
  N   N25       1.0  0.78648  0.46465  0.84687  1.0000
  H   H462      1.0  0.79313  0.47119  0.81573  1.0000
  C   C386      1.0  0.97920  0.46294  0.89074  1.0000
  H   H463      1.0  0.83308  0.44838  0.85995  1.0000
  C   C387      1.0  0.79884  0.44267  0.86208  1.0000
  C   C388      1.0  0.97356  0.49043  0.92228  1.0000
  H   H464      1.0  0.90555  0.04912  0.73305  1.0000
  C   C389      1.0  0.94264  0.13297  0.80241  1.0000
  H   H465      1.0  0.89747  0.01613  0.77655  1.0000
  H   H466      1.0  0.83212  0.45987  0.82705  1.0000
  S   S101      1.0  0.55210  0.49284  0.86284  1.0000
  H   H467      1.0  0.94602  0.47621  0.86744  1.0000
  H   H468      1.0  0.50961  0.03894  0.76463  1.0000
  S   S102      1.0  0.84114  0.00607  0.80974  1.0000
  Fe  Fe48      1.0  0.92220  0.93443  0.13205  1.0000
  S   S103      1.0  0.88845  0.88860  0.10621  1.0000
  S   S104      1.0  0.91593  0.91304  0.16301  1.0000
  H   H469      1.0  0.80905  0.57249  0.03567  1.0000
  H   H470      1.0  0.55141  0.60653  0.08526  1.0000
  H   H471      1.0  0.62043  0.71876  0.09760  1.0000
  Fe  Fe49      1.0  0.68680  0.59509  0.04660  1.0000
  S   S105      1.0  0.64483  0.52480  0.05679  1.0000
  S   S106      1.0  0.69094  0.60913  0.01431  1.0000
  Fe  Fe50      1.0  0.70771  0.63383  0.08756  1.0000
  S   S107      1.0  0.66767  0.56611  0.10046  1.0000
  S   S108      1.0  0.73492  0.68676  0.11146  1.0000
  Fe  Fe51      1.0  0.69981  0.54390  0.07849  1.0000
  Fe  Fe52      1.0  0.93526  0.51365  0.13485  1.0000
  Fe  Fe53      1.0  0.61541  0.55244  0.07798  1.0000
  H   H472      1.0  0.82461  0.55038  0.05561  1.0000
  S   S109      1.0  0.74409  0.61241  0.06695  1.0000
  S   S110      1.0  0.65352  0.62185  0.06639  1.0000
  Fe  Fe54      1.0  0.99051  0.95275  0.16368  1.0000
  C   C390      1.0  0.79739  0.54315  0.04520  1.0000
  C   C391      1.0  0.60935  0.62458  0.11743  1.0000
  C   C392      1.0  0.84767  0.56944  0.10406  1.0000
  C   C393      1.0  0.80555  0.55590  0.09621  1.0000
  H   H473      1.0  0.51226  0.51352  0.05140  1.0000
  H   H474      1.0  0.87297  0.60398  0.10365  1.0000
  H   H475      1.0  0.79845  0.57980  0.08969  1.0000
  C   C394      1.0  0.82036  0.51347  0.00035  1.0000
  C   C395      1.0  0.84575  0.83254  0.10794  1.0000
  C   C396      1.0  0.83181  0.80588  0.09109  1.0000
  C   C397      1.0  0.79798  0.76115  0.09187  1.0000
  C   C398      1.0  0.77748  0.74284  0.10952  1.0000
  C   C399      1.0  0.79147  0.76943  0.12638  1.0000
  C   C400      1.0  0.82561  0.81397  0.12564  1.0000
  H   H476      1.0  0.84723  0.81998  0.07733  1.0000
  H   H477      1.0  0.78758  0.74108  0.07878  1.0000
  H   H478      1.0  0.77580  0.75564  0.14012  1.0000
  H   H479      1.0  0.83604  0.83408  0.13870  1.0000
  H   H480      1.0  0.61821  0.67238  0.08522  1.0000
  C   C401      1.0  0.76685  0.60504  0.00680  1.0000
  H   H481      1.0  0.77199  0.60778  0.02232  1.0000
  H   H482      1.0  0.93354  0.83340  0.11008  1.0000
  H   H483      1.0  0.93803  0.89776  0.21743  1.0000
  Fe  Fe55      1.0  0.91720  0.97664  0.17059  1.0000
  C   C402      1.0  0.77286  0.51125  0.09648  1.0000
  C   C403      1.0  0.52369  0.65181  0.12324  1.0000
  H   H484      1.0  0.95011  0.81239  0.16983  1.0000
  C   C404      1.0  0.97977  0.63557  0.16341  1.0000
  N   N26       1.0  0.85377  0.68720  0.13306  1.0000
  C   C405      1.0  0.81505  0.67568  0.14570  1.0000
  C   C406      1.0  0.83684  0.67330  0.11294  1.0000
  C   C407      1.0  0.87456  0.66078  0.13903  1.0000
  C   C408      1.0  0.88603  0.73520  0.13505  1.0000
  C   C409      1.0  0.90634  0.75337  0.15328  1.0000
  C   C410      1.0  0.89711  0.76540  0.11943  1.0000
  C   C411      1.0  0.93566  0.79882  0.15571  1.0000
  C   C412      1.0  0.94565  0.82741  0.14012  1.0000
  H   H485      1.0  0.79946  0.69594  0.14202  1.0000
  H   H486      1.0  0.78893  0.64024  0.14398  1.0000
  H   H487      1.0  0.82409  0.68124  0.16133  1.0000
  H   H488      1.0  0.81904  0.69033  0.10770  1.0000
  H   H489      1.0  0.81223  0.63729  0.11205  1.0000
  H   H490      1.0  0.86400  0.67981  0.10262  1.0000
  H   H491      1.0  0.88452  0.66570  0.15456  1.0000
  H   H492      1.0  0.85143  0.62450  0.13713  1.0000
  H   H493      1.0  0.90461  0.66941  0.13024  1.0000
  H   H494      1.0  0.89887  0.73268  0.16591  1.0000
  H   H495      1.0  0.88268  0.75526  0.10513  1.0000
  N   N27       1.0  0.96489  0.96051  0.23242  1.0000
  N   N28       1.0  0.59972  0.66140  0.11552  1.0000
  C   C413      1.0  0.61503  0.68822  0.13368  1.0000
  C   C414      1.0  0.55193  0.64302  0.11135  1.0000
  H   H496      1.0  0.76920  0.54049  0.05386  1.0000
  H   H497      1.0  0.96763  0.86276  0.14212  1.0000
  N   N29       1.0  0.78442  0.50240  0.03363  1.0000
  H   H498      1.0  0.91930  0.93384  0.20819  1.0000
  C   C415      1.0  0.53217  0.61488  0.09497  1.0000
  H   H499      1.0  0.59722  0.66811  0.14657  1.0000
  H   H500      1.0  0.65110  0.70113  0.13627  1.0000
  H   H501      1.0  0.61071  0.71779  0.13300  1.0000
  H   H502      1.0  0.58669  0.59944  0.12800  1.0000
  C   C416      1.0  0.92657  0.81073  0.12204  1.0000
  H   H503      1.0  0.95790  0.60035  0.16092  1.0000
  C   C417      1.0  0.85733  0.53851  0.11238  1.0000
  C   C418      1.0  0.94827  0.93298  0.21454  1.0000
  H   H504      1.0  0.64400  0.63640  0.12224  1.0000
  C   C419      1.0  0.89877  0.52632  0.01738  1.0000
  H   H505      1.0  0.53562  0.67295  0.13593  1.0000
  S   S111      1.0  0.90997  0.55790  0.12300  1.0000
  C   C420      1.0  0.62630  0.69034  0.09934  1.0000
  H   H506      1.0  0.60545  0.60691  0.10349  1.0000
  H   H507      1.0  0.90027  0.95264  0.23808  1.0000
  S   S112      1.0  0.54567  0.51917  0.09120  1.0000
  H   H508      1.0  0.66252  0.70399  0.10172  1.0000
  H   H509      1.0  0.99010  0.62769  0.19346  1.0000
  H   H510      1.0  0.91000  0.91209  0.24926  1.0000
  H   H511      1.0  0.60191  0.97143  0.29095  1.0000
  C   C421      1.0  0.82182  0.51013  0.02087  1.0000
  H   H512      1.0  0.82531  0.60061  0.00051  1.0000
  C   C422      1.0  0.86229  0.51715  0.02904  1.0000
  C   C423      1.0  0.99066  0.66513  0.14814  1.0000
  H   H513      1.0  0.86629  0.51647  0.04458  1.0000
  H   H514      1.0  0.92943  0.53193  0.02397  1.0000
  H   H515      1.0  0.74714  0.51906  0.01365  1.0000
  H   H516      1.0  0.97362  0.94452  0.20297  1.0000
  C   C424      1.0  0.92620  0.94774  0.24533  1.0000
  H   H517      1.0  0.82840  0.98563  0.16310  1.0000
  S   S113      1.0  0.88132  0.98632  0.19616  1.0000
  H   H518      1.0  0.97015  0.93048  0.26980  1.0000
  H   H519      1.0  0.97709  0.65244  0.13380  1.0000
  C   C425      1.0  0.73016  0.60577  0.99907  1.0000
  H   H520      1.0  0.93581  0.96833  0.25880  1.0000
  H   H521      1.0  0.59646  0.97241  0.31695  1.0000
  C   C426      1.0  0.61609  0.99210  0.30430  1.0000
  S   S114      1.0  0.91722  0.99502  0.13952  1.0000
  C   C427      1.0  0.51132  0.99418  0.21988  1.0000
  C   C428      1.0  0.89618  0.52925  0.99732  1.0000
  Fe  Fe56      1.0  0.92095  0.95535  0.50278  1.0000
  S   S115      1.0  0.89364  0.94182  0.47253  1.0000
  S   S116      1.0  0.88167  0.92388  0.53028  1.0000
  H   H522      1.0  0.95497  0.65594  0.42209  1.0000
  H   H523      1.0  0.50404  0.77029  0.60233  1.0000
  Fe  Fe57      1.0  0.55617  0.65747  0.57372  1.0000
  S   S117      1.0  0.62772  0.70589  0.58142  1.0000
  C   C429      1.0  0.98954  0.53485  0.39960  1.0000
  Fe  Fe58      1.0  0.54197  0.73380  0.56038  1.0000
  S   S118      1.0  0.61143  0.78626  0.56749  1.0000
  H   H524      1.0  0.66246  0.88801  0.52804  1.0000
  Fe  Fe59      1.0  0.63145  0.74064  0.55353  1.0000
  S   S119      1.0  0.68250  0.76304  0.52918  1.0000
  Fe  Fe60      1.0  0.60147  0.74755  0.59480  1.0000
  S   S120      1.0  0.62927  0.78741  0.62262  1.0000
  S   S121      1.0  0.56192  0.68941  0.54469  1.0000
  C   C430      1.0  0.56137  0.91014  0.58127  1.0000
  C   C431      1.0  0.59856  0.94885  0.57487  1.0000
  C   C432      1.0  0.65231  0.81507  0.49260  1.0000
  H   H525      1.0  0.60068  0.99001  0.48122  1.0000
  H   H526      1.0  0.96752  0.72092  0.43679  1.0000
  C   C433      1.0  0.61648  0.82101  0.65658  1.0000
  C   C434      1.0  0.56678  0.88335  0.53570  1.0000
  C   C435      1.0  0.55382  0.84043  0.54212  1.0000
  H   H527      1.0  0.60077  0.90942  0.53760  1.0000
  H   H528      1.0  0.57769  0.83402  0.54905  1.0000
  C   C436      1.0  0.94203  0.60378  0.46497  1.0000
  H   H529      1.0  0.58272  0.82234  0.50402  1.0000
  H   H530      1.0  0.70892  0.69257  0.51328  1.0000
  H   H531      1.0  0.53383  0.73910  0.62985  1.0000
  H   H532      1.0  0.93201  0.76378  0.44545  1.0000
  H   H533      1.0  0.52995  0.90299  0.57509  1.0000
  C   C437      1.0  0.82602  0.87965  0.52967  1.0000
  C   C438      1.0  0.80749  0.85412  0.51288  1.0000
  C   C439      1.0  0.76379  0.81812  0.51313  1.0000
  C   C440      1.0  0.73782  0.80776  0.53000  1.0000
  C   C441      1.0  0.75609  0.83360  0.54672  1.0000
  C   C442      1.0  0.80013  0.86912  0.54658  1.0000
  H   H534      1.0  0.82709  0.86160  0.49981  1.0000
  H   H535      1.0  0.75004  0.79827  0.50012  1.0000
  H   H536      1.0  0.73651  0.82597  0.55981  1.0000
  H   H537      1.0  0.81417  0.88855  0.55966  1.0000
  C   C443      1.0  0.65455  0.65273  0.53214  1.0000
  C   C444      1.0  0.59605  0.79017  0.64142  1.0000
  C   C445      1.0  0.54987  0.76355  0.64124  1.0000
  C   C446      1.0  0.52437  0.76903  0.65571  1.0000
  H   H538      1.0  0.68309  0.81414  0.49588  1.0000
  C   C447      1.0  0.60992  0.85163  0.49656  1.0000
  C   C448      1.0  0.69127  0.89516  0.49123  1.0000
  C   C449      1.0  0.67763  0.66195  0.51472  1.0000
  C   C450      1.0  0.73544  0.90406  0.49387  1.0000
  S   S122      1.0  0.53584  0.58494  0.58024  1.0000
  H   H539      1.0  0.52369  0.57775  0.53785  1.0000
  H   H540      1.0  0.71589  0.98231  0.46085  1.0000
  H   H541      1.0  0.74275  0.88317  0.50283  1.0000
  H   H542      1.0  0.80459  0.94541  0.48676  1.0000
  C   C451      1.0  0.77115  0.93966  0.48474  1.0000
  C   C452      1.0  0.88065  0.68076  0.47797  1.0000
  C   C453      1.0  0.72127  0.96046  0.47017  1.0000
  Fe  Fe61      1.0  0.95774  0.94521  0.46388  1.0000
  H   H543      1.0  0.53682  0.79926  0.58171  1.0000
  C   C454      1.0  0.64068  0.96024  0.58159  1.0000
  H   H544      1.0  0.60860  0.88112  0.50202  1.0000
  C   C455      1.0  0.66025  0.85753  0.52164  1.0000
  C   C456      1.0  0.93262  0.66876  0.45817  1.0000
  H   H545      1.0  0.87683  0.73938  0.47180  1.0000
  H   H546      1.0  0.55299  0.84749  0.63113  1.0000
  H   H547      1.0  0.69059  0.85666  0.52590  1.0000
  H   H548      1.0  0.63246  0.82836  0.52879  1.0000
  H   H549      1.0  0.94132  0.95724  0.56784  1.0000
  H   H550      1.0  0.62480  0.78458  0.49919  1.0000
  H   H551      1.0  0.60145  0.84717  0.48083  1.0000
  S   S123      1.0  0.96429  0.90274  0.44014  1.0000
  N   N30       1.0  0.65390  0.85577  0.50029  1.0000
  C   C457      1.0  0.59429  0.58339  0.51845  1.0000
  H   H552      1.0  0.59458  0.96962  0.56430  1.0000
  H   H553      1.0  0.67861  0.94179  0.60002  1.0000
  C   C458      1.0  0.92301  0.73333  0.45312  1.0000
  H   H554      1.0  0.52030  0.87341  0.62732  1.0000
  N   N31       1.0  0.52690  0.84053  0.60198  1.0000
  C   C459      1.0  0.76405  0.96754  0.47277  1.0000
  H   H555      1.0  0.64786  0.81242  0.47657  1.0000
  C   C460      1.0  0.89195  0.71963  0.46798  1.0000
  H   H556      1.0  0.66939  0.99013  0.57650  1.0000
  H   H557      1.0  0.90605  0.57939  0.46357  1.0000
  H   H558      1.0  0.96118  0.60945  0.42768  1.0000
  S   S124      1.0  0.55467  0.94760  0.51933  1.0000
  C   C461      1.0  0.53287  0.80210  0.59755  1.0000
  C   C462      1.0  0.94433  0.62808  0.43237  1.0000
  H   H559      1.0  0.95051  0.61305  0.48052  1.0000
  C   C463      1.0  0.68524  0.92488  0.47923  1.0000
  C   C464      1.0  0.98489  0.50530  0.43166  1.0000
  H   H560      1.0  0.85651  0.67033  0.48956  1.0000
  H   H561      1.0  0.98034  0.95796  0.58502  1.0000
  C   C465      1.0  0.60888  0.89434  0.60134  1.0000
  H   H562      1.0  0.90807  0.60589  0.43028  1.0000
  H   H563      1.0  0.60706  0.57226  0.48824  1.0000
  C   C466      1.0  0.90051  0.65547  0.47319  1.0000
  C   C467      1.0  0.61349  0.61426  0.53401  1.0000
  C   C468      1.0  0.51009  0.80631  0.53971  1.0000
  C   C469      1.0  0.94311  0.70843  0.44825  1.0000
  N   N32       1.0  0.95499  0.64346  0.45283  1.0000
  C   C470      1.0  0.53609  0.89289  0.52704  1.0000
  S   S125      1.0  0.53017  0.69778  0.58883  1.0000
  H   H564      1.0  0.89041  0.62590  0.48155  1.0000
  H   H565      1.0  0.65304  0.92118  0.47645  1.0000
  H   H566      1.0  0.56253  0.80452  0.60471  1.0000
  H   H567      1.0  0.61466  0.87435  0.61162  1.0000
  H   H568      1.0  0.67806  0.63988  0.48561  1.0000
  C   C471      1.0  0.52347  0.84407  0.62332  1.0000
  C   C472      1.0  0.51696  0.55835  0.52414  1.0000
  C   C473      1.0  0.56545  0.88160  0.59474  1.0000
  C   C474      1.0  0.64583  0.93303  0.59480  1.0000
  Fe  Fe62      1.0  0.51008  0.97055  0.50571  1.0000
  S   S126      1.0  0.98234  0.95277  0.49451  1.0000
  H   H569      1.0  0.95984  0.58593  0.46041  1.0000
  H   H570      1.0  0.96336  0.92441  0.54409  1.0000
  C   C475      1.0  0.61894  0.59349  0.50090  1.0000
  C   C476      1.0  0.65999  0.63233  0.49916  1.0000
  H   H571      1.0  0.59654  0.60937  0.54772  1.0000
  H   H572      1.0  0.65220  0.84150  0.65691  1.0000
  H   H573      1.0  0.66811  0.67617  0.54415  1.0000
  H   H574      1.0  0.99374  0.87121  0.47312  1.0000
  N   N33       1.0  0.54985  0.54382  0.52064  1.0000
  H   H575      1.0  0.55817  0.53608  0.55128  1.0000
  H   H576      1.0  0.57423  0.50582  0.53537  1.0000
  C   C477      1.0  0.54977  0.51721  0.53738  1.0000
  H   H577      1.0  0.52109  0.49868  0.59024  1.0000
  C   C478      1.0  0.97611  0.97733  0.57328  1.0000
  H   H578      1.0  0.79189  0.99442  0.46541  1.0000
  H   H579      1.0  0.51713  0.57983  0.51223  1.0000
  C   C479      1.0  0.98970  0.86963  0.44195  1.0000
  H   H580      1.0  0.99007  0.86100  0.41093  1.0000
  H   H581      1.0  0.53117  0.53081  0.49040  1.0000
  H   H582      1.0  0.55783  0.50143  0.49998  1.0000
  C   C480      1.0  0.53473  0.51397  0.50337  1.0000
  H   H583      1.0  0.99378  0.51046  0.44688  1.0000
  Fe  Fe63      1.0  0.52920  0.82380  0.75926  1.0000
  S   S127      1.0  0.57399  0.82216  0.73653  1.0000
  C   C481      1.0  0.72912  0.96363  0.77743  1.0000
  Fe  Fe64      1.0  0.54149  0.91326  0.74531  1.0000
  S   S128      1.0  0.58877  0.91803  0.72150  1.0000
  H   H584      1.0  0.96835  0.93028  0.87332  1.0000
  Fe  Fe65      1.0  0.54033  0.84571  0.71610  1.0000
  C   C482      1.0  0.63473  0.52572  0.87867  1.0000
  Fe  Fe66      1.0  0.61929  0.89405  0.74398  1.0000
  S   S129      1.0  0.69066  0.90803  0.74549  1.0000
  C   C483      1.0  0.50400  0.72366  0.78340  1.0000
  S   S130      1.0  0.57607  0.89432  0.76817  1.0000
  C   C484      1.0  0.90180  0.86657  0.91261  1.0000
  H   H585      1.0  0.97016  0.87005  0.85334  1.0000
  H   H586      1.0  0.70161  0.96984  0.77702  1.0000
  Fe  Fe67      1.0  0.92435  0.93278  0.83739  1.0000
  S   S131      1.0  0.88320  0.86496  0.85139  1.0000
  S   S132      1.0  0.91437  0.94420  0.80604  1.0000
  Fe  Fe68      1.0  0.89526  0.66630  0.89686  1.0000
  S   S133      1.0  0.87496  0.61416  0.87381  1.0000
  S   S134      1.0  0.94485  0.73797  0.88940  1.0000
  Fe  Fe69      1.0  0.83750  0.59867  0.92691  1.0000
  S   S135      1.0  0.81114  0.54127  0.90567  1.0000
  S   S136      1.0  0.82744  0.58903  0.95956  1.0000
  Fe  Fe70      1.0  0.88175  0.57023  0.89573  1.0000
  S   S137      1.0  0.90451  0.52284  0.88371  1.0000
  Fe  Fe71      1.0  0.80591  0.58829  0.88498  1.0000
  S   S138      1.0  0.52522  0.96828  0.75311  1.0000
  S   S139      1.0  0.90880  0.62522  0.91804  1.0000
  S   S140      1.0  0.82587  0.64330  0.90704  1.0000
  H   H587      1.0  0.53874  0.70036  0.70310  1.0000
  H   H588      1.0  0.75959  0.70020  0.87030  1.0000
  S   S141      1.0  0.76012  0.57163  0.85893  1.0000
  C   C485      1.0  0.67815  0.54333  0.84309  1.0000
  C   C486      1.0  0.79077  0.59806  0.97419  1.0000
  C   C487      1.0  0.75470  0.59999  0.96638  1.0000
  C   C488      1.0  0.72455  0.60390  0.97880  1.0000
  C   C489      1.0  0.76969  0.68264  0.85969  1.0000
  H   H589      1.0  0.74957  0.59767  0.95084  1.0000
  H   H590      1.0  0.69641  0.60484  0.97270  1.0000
  H   H591      1.0  0.76990  0.90565  0.75379  1.0000
  C   C490      1.0  0.70261  0.55154  0.86035  1.0000
  H   H592      1.0  0.85618  0.79919  0.92094  1.0000
  H   H593      1.0  0.61785  0.51842  0.89250  1.0000
  C   C491      1.0  0.68089  0.54330  0.87817  1.0000
  C   C492      1.0  0.92348  0.81327  0.92228  1.0000
  H   H594      1.0  0.69943  0.54954  0.89154  1.0000
  H   H595      1.0  0.56816  0.68281  0.76577  1.0000
  C   C493      1.0  0.76305  0.98515  0.79138  1.0000
  H   H596      1.0  0.82064  0.74944  0.83748  1.0000
  C   C494      1.0  0.90181  0.83063  0.86176  1.0000
  C   C495      1.0  0.94596  0.84055  0.86073  1.0000
  C   C496      1.0  0.95879  0.81184  0.86917  1.0000
  C   C497      1.0  0.92753  0.77269  0.87838  1.0000
  C   C498      1.0  0.88347  0.76290  0.87937  1.0000
  C   C499      1.0  0.87079  0.79189  0.87125  1.0000
  H   H597      1.0  0.69465  0.54920  0.82922  1.0000
  H   H598      1.0  0.80588  0.69571  0.86153  1.0000
  H   H599      1.0  0.85956  0.73369  0.88699  1.0000
  H   H600      1.0  0.83684  0.78452  0.87253  1.0000
  H   H601      1.0  0.61344  0.51999  0.83025  1.0000
  H   H602      1.0  0.71066  0.77026  0.84356  1.0000
  C   C500      1.0  0.79926  0.97775  0.79200  1.0000
  C   C501      1.0  0.73154  0.93505  0.76374  1.0000
  C   C502      1.0  0.76783  0.92778  0.76433  1.0000
  C   C503      1.0  0.80132  0.94862  0.77850  1.0000
  H   H603      1.0  0.90072  0.92787  0.88647  1.0000
  C   C504      1.0  0.98682  0.97759  0.91806  1.0000
  H   H604      1.0  0.92468  0.53721  0.98829  1.0000
  H   H605      1.0  0.78421  0.83682  0.83768  1.0000
  H   H606      1.0  0.55532  0.74631  0.76186  1.0000
  H   H607      1.0  0.60714  0.85056  0.68261  1.0000
  H   H608      1.0  0.80680  0.53139  0.83823  1.0000
  H   H609      1.0  0.99301  0.81977  0.86844  1.0000
  S   S142      1.0  0.90448  0.98109  0.84877  1.0000
  H   H610      1.0  0.85557  0.52649  0.97327  1.0000
  H   H611      1.0  0.80877  0.67416  0.82880  1.0000
  N   N34       1.0  0.75843  0.68792  0.83945  1.0000
  C   C505      1.0  0.77319  0.66369  0.82645  1.0000
  C   C506      1.0  0.78448  0.73592  0.83495  1.0000
  C   C507      1.0  0.71039  0.67071  0.83633  1.0000
  C   C508      1.0  0.69467  0.67726  0.81832  1.0000
  C   C509      1.0  0.67773  0.64448  0.85030  1.0000
  C   C510      1.0  0.64932  0.65923  0.81465  1.0000
  C   C511      1.0  0.63249  0.62635  0.84639  1.0000
  C   C512      1.0  0.61835  0.63375  0.82864  1.0000
  H   H612      1.0  0.76903  0.66884  0.81087  1.0000
  H   H613      1.0  0.75386  0.62741  0.82914  1.0000
  H   H614      1.0  0.78161  0.74327  0.81955  1.0000
  H   H615      1.0  0.77420  0.75545  0.84425  1.0000
  H   H616      1.0  0.71716  0.69522  0.80668  1.0000
  H   H617      1.0  0.68595  0.63615  0.86416  1.0000
  H   H618      1.0  0.63777  0.66382  0.80069  1.0000
  H   H619      1.0  0.60808  0.60519  0.85699  1.0000
  H   H620      1.0  0.58321  0.61889  0.82553  1.0000
  N   N35       1.0  0.63690  0.82646  0.80624  1.0000
  C   C513      1.0  0.63697  0.86858  0.81015  1.0000
  C   C514      1.0  0.63710  0.82020  0.78496  1.0000
  C   C515      1.0  0.59465  0.78989  0.81397  1.0000
  C   C516      1.0  0.67677  0.82816  0.81482  1.0000
  C   C517      1.0  0.67479  0.79350  0.82637  1.0000
  C   C518      1.0  0.71947  0.86488  0.81131  1.0000
  C   C519      1.0  0.71315  0.79673  0.83452  1.0000
  C   C520      1.0  0.75758  0.86788  0.81955  1.0000
  C   C521      1.0  0.75445  0.83400  0.83123  1.0000
  H   H621      1.0  0.66326  0.89699  0.80203  1.0000
  H   H622      1.0  0.60538  0.86664  0.80549  1.0000
  H   H623      1.0  0.64170  0.87719  0.82589  1.0000
  H   H624      1.0  0.66722  0.84735  0.77805  1.0000
  H   H625      1.0  0.60808  0.81968  0.77788  1.0000
  H   H626      1.0  0.63617  0.78857  0.78125  1.0000
  H   H627      1.0  0.58928  0.75670  0.80957  1.0000
  H   H628      1.0  0.59330  0.79170  0.83006  1.0000
  H   H629      1.0  0.56543  0.79126  0.80827  1.0000
  H   H630      1.0  0.64399  0.76362  0.82937  1.0000
  H   H631      1.0  0.72376  0.89167  0.80214  1.0000
  S   S143      1.0  0.52859  0.60641  0.78993  1.0000
  H   H632      1.0  0.78974  0.89686  0.81689  1.0000
  C   C522      1.0  0.51879  0.65141  0.78801  1.0000
  H   H633      1.0  0.75399  0.64729  0.86386  1.0000
  C   C523      1.0  0.59102  0.82615  0.67118  1.0000
  H   H634      1.0  0.91297  0.99637  0.75555  1.0000
  H   H635      1.0  0.54597  0.72457  0.72687  1.0000
  C   C524      1.0  0.53616  0.72089  0.77227  1.0000
  C   C525      1.0  0.54483  0.80071  0.67059  1.0000
  C   C526      1.0  0.79696  0.60113  0.99442  1.0000
  C   C527      1.0  0.54355  0.68497  0.77459  1.0000
  H   H636      1.0  0.80983  0.52448  0.86365  1.0000
  C   C528      1.0  0.63213  0.52663  0.84360  1.0000
  H   H637      1.0  0.82865  0.94218  0.77890  1.0000
  C   C529      1.0  0.92191  0.95129  0.89813  1.0000
  H   H638      1.0  0.53613  0.74955  0.70613  1.0000
  H   H639      1.0  0.90118  0.94697  0.91111  1.0000
  C   C530      1.0  0.52682  0.71733  0.71310  1.0000
  H   H640      1.0  0.96796  0.97064  0.93187  1.0000
  H   H641      1.0  0.87455  0.87228  0.90987  1.0000
  N   N36       1.0  0.96000  0.94485  0.90280  1.0000
  C   C531      1.0  0.94674  0.89955  0.90949  1.0000
  H   H642      1.0  0.99298  0.83552  0.92144  1.0000
  C   C532      1.0  0.89063  0.82422  0.91903  1.0000
  H   H643      1.0  0.91461  0.77988  0.92649  1.0000
  C   C533      1.0  0.96774  0.84477  0.91939  1.0000
  Fe  Fe72      1.0  0.89879  0.99536  0.81753  1.0000
  H   H644      1.0  0.93313  0.98536  0.89264  1.0000
  C   C534      1.0  0.97940  0.88743  0.91331  1.0000
  C   C535      1.0  0.98711  0.95495  0.88497  1.0000
  H   H645      1.0  0.49723  0.62600  0.70587  1.0000
  S   S144      1.0  0.51148  0.80870  0.68765  1.0000
  C   C536      1.0  0.93837  0.50342  0.89444  1.0000
  H   H646      1.0  0.79174  0.51027  0.99276  1.0000
  C   C537      1.0  0.85712  0.52290  0.98885  1.0000
  H   H647      1.0  0.85073  0.52404  0.84822  1.0000
  C   C538      1.0  0.61020  0.51728  0.86142  1.0000
  C   C539      1.0  0.81476  0.51316  0.84926  1.0000
  H   H648      1.0  0.93720  0.52604  0.92345  1.0000
  C   C540      1.0  0.94874  0.50855  0.91426  1.0000
