data_image0
_chemical_formula_structural       CFeS2FeS2FeSFeS2FeS2FeSHFe2S3CFeS2FeHSFeH2S2CH3C2SH2CHC2HNCH2C3HC3H4C2HSC6H4C6H4C6H5C5H3C5HCH2C2HCH3C2HFeC3H2CHC2SH3CH3CH3CSCH3CH2C3HNH2C2HCH2SHCHCH2CHCSH5NC9H5CH9CH3NC3H3CNC3H3CNCHNHC2H2CH2C2HCHCHCHC2HFeHCHCH2CSHCH3NH2CSH2CH5C2HFeS2HFeHFeHS2FeSFeS2Fe2S3FeS2FeS2FeSFeS3H2S2HCNFeCSFeCHSHSCSFeSH4FeS2CHC3HC9H4C6H6C4H4C6H4C6H4CHC4HC2HCH2SC2HCHNHSHSH2C6H5CSCNHC2HC3H2CHFeC2HCH6C2HC3H3SC2FeCFeCFeSC3NC6HCH15NC9H14NC7H8C2SH3NC9H13CHCSC2H4CH2C2HCHSH2SCHCHCHCH3C2HCHCHCSCH2C2H3CHCH3CH4FeCSHFe2SCHSFeCFeSHSFeS2FeS2FeHFeS3HS2HSFeSHFeSCHSHFeS2FeCSFeS3CSFeS2FeSFeS3C2HC2H3C6H4CHCHC6H4CH2C8H4C6H4C6H4C2HCH5C7HCHC4H2FeHFeC2HC3H3C2HCHFeHCHC7H2S2H2CHNC9H14NCSHC3FeHFeHC2HC2H5CH2C2HCH2CH2NC2HC2HC4H2NHNH2C2HS2H2CH2SH2NH3CHCH4CHSHCSHCSH2NC6HCH4CH7FeC3H2CNH2C3H2CH5CH4CH2NCH2CHCHCH2CSC3H2C3FeSHCH4SHCHCHCHCH2CSC3HC2FeHFeS2FeS2FeSFeS3H3CHSC2HNFeSCFeS2FeSFeHS2FeS2CFeSHSH2C3H3C2H3C6H4C3HCH2C6H4C3HC2H4C4FeCH4C6H3CNC9H11CH3CHC3HCHNHC4H2CHCH3C2H4CH3NC6HCNH12CHCHC2SH2C2SHSNCHCH2C2H5CH2C2H2C4NH3SCHC3H2FeH4C4H2SHCH3C2HCHCHCSH2CH3C2H5C3H2SH4CHSH2FeS2FeHCH3CS2CFeS2FeS2FeSFeS3FeS2FeS2Fe2CS2FeS2FeS2FeSFeS3CHC2H3C7H4C3HC5H2C6H6C5H5SC7H6CHC2H2C3NH3CH2CHNC9H11CH5C3H3C2HCH5C2H4CH2CH2CHCH2C2HC4SCNCH2CFeH4CHCH2C2H2CHC3HCH3NC9H14C2H2C3H2CHC3H2NC3H12CNH2NHSC2HCNH2CHFeH4CHC4H3C2H6NHSFeSFeSHFe2S2FeS2FeS2FeSFeS3FeS2FeSFeSFeS3CNHSH5C2HC2H2C3HNH2C7HC6H4C6H4C6H4CFeHCHC6H5C2H2C2SHNC9H16SH4C2NH3CH6NC9H12CHNC7HCH11CH2CHC4HC3H3SHCH4CH3CHCSH3CHC3HCH3FeHC4H2C2H3NH2C4HCH4CHS2CH4SH2CH3CHCH3SHFeS2FeS2FeSFeS3HCS2CFeS2FeSFeS2CSCSFe2SCFeS2FeS2FeSFeS3H3CHNC6H4C6H4CHC4H3C6H4C2NC3HC2HC6H4C6H4C7H3NC8H7CH3NHCHCHSHCH3CHC3H2CHCH3SC2HC3NC9H15CHCHCSHCH4CH2NHSC7H8CH4CHCH7C3H3C2H2SHCH2CH4CHC6H4CNH2C2H2NC6H14SH2C2HFeH4C5H2NHC3H2C2HNH4CH2CH5FeS2CSFeCFeS2FeS2FeS2FeSFeS3FeS2H4S2HFeS2FeS2FeCFeHS2HC6H4C4H2CH3C2HSNH4C6H4C6H5C4H4NC6H12SCHCHCHCH2C3H2C2H4CHNC9H15CHCH2CH4CH2CHCHCNHCHC4H2NC9H2CH2CH3FeH2C3H2NH2FeHC2H2CHSC2H2SCHC2Fe2CH5CSH2CS2HNHFeS2FeSFeSFeS4HFeS2FeSFeS2H3FeS2FeSFeS3FeS2FeS2FeSFeS3CFeSCFe2SHC6HCH2C6H5C2H4C2HC8H4FeHC4HC2H4C6H4SHCHC3H2C6H4C6H5NC9H11SH2NC9H14C2HCHCHCH6CH3C2H5NHCH2C2HC2HSH6SC2HC4HCHCH4CH2NSCHCHNCNC7NH2C2HC2H6NC9H13CHC2HS2H3C2H2SC2HC2H4CH3SHC2SH2CNC2HFeCSHCH5SFeCFeS2FeS2FeSFeS3HFeS2C3NH4FeS3H2CFeS2HC2H2CHCNFeSH3CHSH5CSHC4HCH2C5H2CH4FeSC6H4C5H2C6H4C6HCH3C2H4NC9H14CHCH2CFeCS2HCHC2HSCH4C2HCHSC2H6CH2C2H2CFeHS2C2H2CSNCNHC2H2CFeC2FeC3HCNC9H14CSCH2CH2CH4C2H2CNC5HCH3CH2SCSHNC2H7CH2CSCFeCH2CH4CHCHFeSH3SH3CFeS2FeSCFeSFeS3NSC2FeSNSHSFeHC6H4C6H4CSNCH3C7H5SHCH3C2H4CHCH2CH3C3H4NHSHC3NFeHC3H2C2HC2H4SH3CHCHSFeSCSH2CHCH4C2NC9H11CH4C2H6C3HCHCHCNHCSH2FeC2H3SCHC3H3CH3C2H3CHCFeSFeS2FeSFeCS2HCHFeS2FeS2FeSFeS3HSHFeS2FeSFe2S3FeSHFeS2FeSFeS3NCH2C6H5C2HC7H4C6H4C4H3C6H4NH2CHSH6CHC4HC6H4C6H5CHCNH3CH2SCH2CH4C4HCHCH6CH2C2HCH2CHCHCHCH3CH7C3HC2H2CSC2SFeCH3C2HSC2HNC9HSH4CH7NC9H11CFeHNC6H13CHC2H2CSHNH4SHCHCH3CH2NC3HCHC2SHC4H2C2H2SH2C2H3CH2FeCNCHCH2SC2H5C2H2CSFeS2FeSFeS2FeS2NHFeHFeSHS2FeS2FeS2FeSHSFeS2FeS2FeSFeS2FeS2FeSFeS3FeS2FeS2C6H4C6H2CHC4H2C6H6C6H4CSH2C6H4C4H2C6H4C6H3CH3SC2H4CSHCH2CHCHCH2CH2NCHC3HCHNCHSC2HCNH6SH10SH5C2HC3NC9H14NC9SH10C6HC4H3NCHCHC4H2CFeHNC9H16CH3SCFeH4CHCHCHCHFeHSHSC2FeH7CHCH2CNC2HC2H3CHCHFeCSFeS2CFeS4HFeS2FeS2FeSFeS3H2SFeS2C6H4C6H4C6H4C6H4C2HCHC3H5C3H3NC6H5C3NC9H11CH2CHCH3SHCHCHCHC2H2C2Fe2NC9H14CH2NC2H2SHC2H5SHCH2FeCNC2HNSH2C2HCH3SC2HNH2CSH6CH3C3HC5HCHC2HCHCH2C2H6C3H12CHSHCHFeCH2C3H4FeSFeS2FeHFeS3H2FeS2FeS2Fe2S3CFeS2HCFeCFeS4H3C5H5C6H3C6H5CH2C6H9C6H4CH2CHCH3C2NHSCH3CHCHC2H3NH4C3HCHCHC2H3C2H2CSNH2CHC2HC2H2CHSCH2CHCHC2H5C2HCHSC3H4N2CHC5H4SHCH4C2H3C2HCH2C3HC2H2CH2CSHC2NHCHCHCSH3NFeSFeS2CFeSFeSHFe2SHSCFeS2FeS2FeSFeS4FeSFeS2FeS2FeSHFeSFeCS2H2SCH2SCHC2H2C2H3SC4H3C2H2C6H4C6H6CHC2H2C3FeC3HC4H2SCHC7H4C4FeH5C6H7SH2CHCH3NC6H9C2NH2CSCHSH11CH9C2HNC2HFeH2CH2CH2SHCHFeCNHNHCHC3H3CH2SHNC9H13C2H2C2H3CHC2SH2CH3FeSCS2HC3H5C2H2C2H2CHC6NCHCH4NHCNC2HC2FeCHCHCH4CH2CH3SC2HCH2NHCFeCHCHCFeS2FeSHFeSFeS2H3S2CFe2S2FeS2FeSFeS4FeS2FeS2FeSFeS3HNC6HCH2C2H7C2HC6H4C6H4C6H4C6H4C3HC2H3C5H3NC9H14CH3CH3C6H2CH2CHC4HCHCHCHC4H5C2H2CH5CHSH3C2H8C2NHCH2CHC2HCHCHCHC2HCNC3H3CH2SCHNHCHC3HFeHSC2H3C2H3CHCNC5HCH2C3H4SHSFeHCH3C2H3CHCFeS2H4FeS2H2FeS2FeSFeSFeHS2FeSFeHSH3S2CFeS2FeS2FeSFeS3C6H4C6H4C6H5C5H4CHC4H2C6H4CHNC3HC2H2CH5SH3CHFeH7SHSHC2H4SHFeHC2H6NH5C4HC2HC2H4CFeHCH2CNCSC7H3NCH2CH7C2H2NH3CSC4HSC5H6CHCH3C3HFeS2Fe2SHS2HFeS2FeS2FeSFeS3H2SCH4FeS2FeS2FeSFeS2FeS2FeCFeHFeS3CH2CH3CH2C6H4CHC2HC6H11C8H4C6H4C6H4C6H5C3H2NC3HCHC2H3CH6SCHC2HCH10C2NHCHC3H5C2NH2NH2CHC2HCHC2HC3H4SHC2SC2HC2H2CH2NC7SH16NHNC9H16NC8H2C2H2CSCSCH2C3H2CH3CHFeHCFeSCFeS2FeSFeS3CH4SH3SFe2S2FeSFeSFeS2FeS2FeS2FeSFeS3HC6H4C4HC6H4CHNHC3HC6H4C6HCH5C6H4C2H3CHCH2CH3C2H6CH4FeC2H4CNC6H12CH3CHCNC9H15SHSH7C4HSNSHC3H4CNH2CHCH2CHCSCH2CHC2HNCNCHCH2CNC10H9CHCHC2H2C4HC2H5NH3CH2CHCH2CH3CH2C2HCH2CHS2HCSCSCSFe3HCH2CFeS2FeS2FeSFeS4C2FeCHSC2SC3H4SCHC6H4C6H5C2HNH3SH2C2H2C7H4C6H2CH2NSC8SHCH9SCHCHCH3CHCH6C2H2CHSHNH2C3HCHCH6CH4NCHC2H2CH2CH3C2H2CH7CHC2H3FeHCHC2HFeNH2C2H2NHC2SH4CH2CH2CHC3HC2H2C2NCHC2HCH3CH3CH2CHCHCH2CH6C2H5FeH3SCHCFeS2FeS2FeSFeS3FeSHFeSHFeSCSFeS2FeSFeSFeS3FeS2FeS2FeCFeS3FeHSFeS2C4HCHCHC6H5CHNHC6H4C6H4C6H4C3H3C2HCH3C8H4S2C7H5CH2CHC3HCH2C2H6C2SH2NC2HC6HCHSHCH2SH4CHCHNHC2HSCHCNC9H14NC9H13CHCH2CSCH2CH3CHNC2H4CHNCH2CH2SCHFeHCH2CHSH2C2H3C5NCH4C2HC2H4CNC3H2CH2C4HCH4CHCH3C2H3C2HC2H3CH6CFeHFeCH2NCNH2CH2FeS2FeS2FeCFeS3FeS2FeS2FeSFeS3FeSFeS2FeSFeS3FeSC2FeS2CFeS2FeS2CFe2S3HSNC3H2C6H4C6H5CHC3H3C3SHC6H4C6H4SC3HC6H4C2HSHCHCH2C5H4CHCHCH2C3H3C2HC2H5CHFeHC2H4CSHFeCHC2HCH6C4H2NC9H14NH3C6H3C2HCH9C5NC6HC2H12CH2CH3CHCH4CHC2H4CHCH2NHCH2NC3HC2HCNH4SCH4C3H2CHCHCH4C2HC2HCHCHFeHNCH6CFeS2FeS2FeS2FeSFeS3HFeHSHCHFeSHSCHSCFeSCNHC2HFeSFeS2C6HCHC7H9SCHC8H4C6H3C6H5C6H5C2SH2CHNC9H15CHS2C3NCH2SH6NHCHC2HC2HCHCHCSHC3HCHC5HNC6H14CH4C2H3CNSH4CHC2H3CH2NHCH2SH2CSHCH2NH2C3HCH4C2HCH5Fe2H6SC2H
_chemical_formula_sum              "C2880 Fe384 S768 H3456 N192"
_cell_length_a       61.1323
_cell_length_b       61.5167
_cell_length_c       96.6644
_cell_angle_alpha    79.0959
_cell_angle_beta     79.2812
_cell_angle_gamma    79.5014

_space_group_name_H-M_alt    "P 1"
_space_group_IT_number       1

loop_
  _space_group_symop_operation_xyz
  'x, y, z'

loop_
  _atom_site_type_symbol
  _atom_site_label
  _atom_site_symmetry_multiplicity
  _atom_site_fract_x
  _atom_site_fract_y
  _atom_site_fract_z
  _atom_site_occupancy
  C   C1        1.0  0.34014  0.06796  0.11294  1.0000
  Fe  Fe1       1.0  0.30962  0.13611  0.17069  1.0000
  S   S1        1.0  0.29572  0.10994  0.18785  1.0000
  S   S2        1.0  0.28874  0.16657  0.15991  1.0000
  Fe  Fe2       1.0  0.35837  0.11584  0.17265  1.0000
  S   S3        1.0  0.34802  0.08805  0.19022  1.0000
  S   S4        1.0  0.39581  0.11566  0.16412  1.0000
  Fe  Fe3       1.0  0.32202  0.08532  0.17693  1.0000
  S   S5        1.0  0.31767  0.04997  0.17443  1.0000
  Fe  Fe4       1.0  0.32260  0.11483  0.19960  1.0000
  S   S6        1.0  0.33418  0.11134  0.15882  1.0000
  S   S7        1.0  0.33479  0.14270  0.18302  1.0000
  Fe  Fe5       1.0  0.17252  0.22580  0.18777  1.0000
  S   S8        1.0  0.13783  0.23267  0.20006  1.0000
  S   S9        1.0  0.18716  0.18947  0.18812  1.0000
  Fe  Fe6       1.0  0.17613  0.27530  0.17942  1.0000
  S   S10       1.0  0.14169  0.28602  0.19121  1.0000
  H   H1        1.0  0.46050  0.00094  0.97509  1.0000
  Fe  Fe7       1.0  0.15161  0.25804  0.20875  1.0000
  Fe  Fe8       1.0  0.13141  0.25944  0.18137  1.0000
  S   S11       1.0  0.10014  0.26549  0.17066  1.0000
  S   S12       1.0  0.18676  0.24915  0.19754  1.0000
  S   S13       1.0  0.16535  0.25078  0.16845  1.0000
  C   C2        1.0  0.43318  0.29798  0.04468  1.0000
  Fe  Fe9       1.0  0.04571  0.19980  0.12503  1.0000
  S   S14       1.0  0.01912  0.23021  0.12341  1.0000
  S   S15       1.0  0.07570  0.19551  0.13693  1.0000
  Fe  Fe10      1.0  0.02037  0.17348  0.11019  1.0000
  H   H2        1.0  0.34795  0.07872  0.13119  1.0000
  S   S16       1.0  0.01741  0.13915  0.10549  1.0000
  Fe  Fe11      1.0  0.01960  0.22378  0.10126  1.0000
  H   H3        1.0  0.29751  0.17019  0.21254  1.0000
  H   H4        1.0  0.01496  0.17244  0.17996  1.0000
  S   S17       1.0  0.04802  0.19474  0.10216  1.0000
  S   S18       1.0  0.02073  0.17578  0.13314  1.0000
  C   C3        1.0  0.42408  0.27091  0.07389  1.0000
  H   H5        1.0  0.28581  0.07290  0.15493  1.0000
  H   H6        1.0  0.38546  0.13810  0.18906  1.0000
  H   H7        1.0  0.34029  0.98334  0.12517  1.0000
  C   C4        1.0  0.34338  0.00514  0.09829  1.0000
  C   C5        1.0  0.28915  0.00860  0.15692  1.0000
  S   S19       1.0  0.45133  0.19725  0.15070  1.0000
  H   H8        1.0  0.31254  0.00561  0.17167  1.0000
  H   H9        1.0  0.03315  0.21813  0.15212  1.0000
  C   C6        1.0  0.23595  0.15429  0.14363  1.0000
  H   H10       1.0  0.21494  0.25289  0.22101  1.0000
  C   C7        1.0  0.48767  0.30947  0.08965  1.0000
  C   C8        1.0  0.09247  0.27730  0.05197  1.0000
  H   H11       1.0  0.03131  0.17952  0.16247  1.0000
  N   N1        1.0  0.09841  0.30806  0.03106  1.0000
  C   C9        1.0  0.44634  0.24225  0.08851  1.0000
  H   H12       1.0  0.47262  0.01316  0.98686  1.0000
  H   H13       1.0  0.00853  0.01291  0.99649  1.0000
  C   C10       1.0  0.24136  0.19062  0.22255  1.0000
  C   C11       1.0  0.47657  0.01163  0.09470  1.0000
  C   C12       1.0  0.42680  0.14118  0.19163  1.0000
  H   H14       1.0  0.39355  0.11216  0.21794  1.0000
  C   C13       1.0  0.03105  0.27411  0.08120  1.0000
  C   C14       1.0  0.04656  0.27317  0.09034  1.0000
  C   C15       1.0  0.05884  0.29091  0.08885  1.0000
  H   H15       1.0  0.13094  0.29287  0.03685  1.0000
  H   H16       1.0  0.16892  0.16606  0.17209  1.0000
  H   H17       1.0  0.04932  0.25863  0.09843  1.0000
  H   H18       1.0  0.07094  0.28995  0.09589  1.0000
  C   C16       1.0  0.44681  0.30492  0.10760  1.0000
  C   C17       1.0  0.00711  0.14929  0.07801  1.0000
  H   H19       1.0  0.08569  0.25117  0.06981  1.0000
  S   S20       1.0  0.25832  0.01355  0.13807  1.0000
  C   C18       1.0  0.08274  0.21563  0.14572  1.0000
  C   C19       1.0  0.07165  0.23776  0.14460  1.0000
  C   C20       1.0  0.07726  0.25286  0.15220  1.0000
  C   C21       1.0  0.09441  0.24623  0.16070  1.0000
  C   C22       1.0  0.10593  0.22429  0.16152  1.0000
  C   C23       1.0  0.09993  0.20904  0.15419  1.0000
  H   H20       1.0  0.05870  0.24326  0.13790  1.0000
  H   H21       1.0  0.06830  0.26981  0.15147  1.0000
  H   H22       1.0  0.11889  0.21893  0.16821  1.0000
  H   H23       1.0  0.10831  0.19189  0.15529  1.0000
  C   C24       1.0  0.26037  0.17276  0.16756  1.0000
  C   C25       1.0  0.24897  0.15609  0.17617  1.0000
  C   C26       1.0  0.22630  0.16134  0.18212  1.0000
  C   C27       1.0  0.21509  0.18336  0.17979  1.0000
  C   C28       1.0  0.22636  0.20008  0.17108  1.0000
  C   C29       1.0  0.24891  0.19469  0.16481  1.0000
  H   H24       1.0  0.25743  0.13904  0.17797  1.0000
  H   H25       1.0  0.21752  0.14831  0.18869  1.0000
  H   H26       1.0  0.21776  0.21713  0.16921  1.0000
  H   H27       1.0  0.25764  0.20761  0.15805  1.0000
  C   C30       1.0  0.41004  0.13930  0.15849  1.0000
  C   C31       1.0  0.43309  0.13596  0.15280  1.0000
  C   C32       1.0  0.44576  0.15376  0.14976  1.0000
  C   C33       1.0  0.43554  0.17506  0.15259  1.0000
  C   C34       1.0  0.41239  0.17851  0.15803  1.0000
  C   C35       1.0  0.39962  0.16081  0.16079  1.0000
  H   H28       1.0  0.44132  0.11938  0.15101  1.0000
  H   H29       1.0  0.46357  0.15084  0.14564  1.0000
  H   H30       1.0  0.40434  0.19495  0.16021  1.0000
  H   H31       1.0  0.38186  0.16370  0.16503  1.0000
  H   H32       1.0  0.08877  0.21252  0.19743  1.0000
  C   C36       1.0  0.46523  0.25262  0.08295  1.0000
  C   C37       1.0  0.12281  0.30010  0.02727  1.0000
  C   C38       1.0  0.21630  0.26928  0.22306  1.0000
  C   C39       1.0  0.46502  0.28728  0.10828  1.0000
  C   C40       1.0  0.32420  0.99025  0.12106  1.0000
  H   H33       1.0  0.42662  0.15867  0.18582  1.0000
  H   H34       1.0  0.46321  0.27195  0.11573  1.0000
  H   H35       1.0  0.26678  0.21062  0.19949  1.0000
  C   C41       1.0  0.27506  0.02326  0.14825  1.0000
  C   C42       1.0  0.27400  0.04649  0.14762  1.0000
  C   C43       1.0  0.28678  0.05501  0.15556  1.0000
  C   C44       1.0  0.30074  0.04035  0.16434  1.0000
  C   C45       1.0  0.30185  0.01712  0.16492  1.0000
  H   H36       1.0  0.26316  0.05801  0.14097  1.0000
  C   C46       1.0  0.05554  0.30982  0.07833  1.0000
  H   H37       1.0  0.18427  0.20165  0.15823  1.0000
  H   H38       1.0  0.38527  0.16555  0.19296  1.0000
  C   C47       1.0  0.21579  0.16926  0.14511  1.0000
  C   C48       1.0  0.99165  0.00800  0.97979  1.0000
  H   H39       1.0  0.15595  0.16018  0.13755  1.0000
  C   C49       1.0  0.06978  0.28166  0.03328  1.0000
  H   H40       1.0  0.29002  0.99071  0.15767  1.0000
  H   H41       1.0  0.40778  0.27734  0.07074  1.0000
  H   H42       1.0  0.04918  0.12037  0.06949  1.0000
  C   C50       1.0  0.19454  0.16167  0.14752  1.0000
  C   C51       1.0  0.21430  0.30984  0.21494  1.0000
  H   H43       1.0  0.00465  0.05315  0.07583  1.0000
  Fe  Fe12      1.0  0.48542  0.19982  0.13662  1.0000
  C   C52       1.0  0.21516  0.12353  0.14675  1.0000
  C   C53       1.0  0.46184  0.31242  0.05247  1.0000
  C   C54       1.0  0.34386  0.06504  0.12700  1.0000
  H   H44       1.0  0.45097  0.98918  0.00826  1.0000
  H   H45       1.0  0.29092  0.02449  0.11422  1.0000
  C   C55       1.0  0.17530  0.20045  0.14944  1.0000
  H   H46       1.0  0.34145  0.08402  0.10616  1.0000
  C   C56       1.0  0.07192  0.19104  0.18918  1.0000
  C   C57       1.0  0.40859  0.15234  0.21495  1.0000
  S   S21       1.0  0.01638  0.25148  0.08233  1.0000
  H   H47       1.0  0.24349  0.15686  0.20768  1.0000
  H   H48       1.0  0.02768  0.24385  0.18224  1.0000
  H   H49       1.0  0.01408  0.16456  0.07703  1.0000
  C   C58       1.0  0.30402  0.01855  0.10552  1.0000
  H   H50       1.0  0.34476  0.04244  0.14679  1.0000
  H   H51       1.0  0.21503  0.10573  0.14749  1.0000
  H   H52       1.0  0.42602  0.13071  0.18357  1.0000
  C   C59       1.0  0.03665  0.20841  0.18021  1.0000
  H   H53       1.0  0.15867  0.21139  0.15114  1.0000
  H   H54       1.0  0.33949  0.99099  0.09390  1.0000
  H   H55       1.0  0.01842  0.24086  0.16099  1.0000
  C   C60       1.0  0.16031  0.17694  0.13760  1.0000
  S   S22       1.0  0.99223  0.20216  0.10781  1.0000
  C   C61       1.0  0.01795  0.22341  0.15972  1.0000
  H   H56       1.0  0.43909  0.16721  0.20519  1.0000
  H   H57       1.0  0.18455  0.20797  0.13914  1.0000
  H   H58       1.0  0.40838  0.10503  0.20136  1.0000
  C   C62       1.0  0.08167  0.25942  0.05944  1.0000
  H   H59       1.0  0.42373  0.10873  0.21477  1.0000
  H   H60       1.0  0.21780  0.18919  0.20839  1.0000
  C   C63       1.0  0.00649  0.13419  0.09080  1.0000
  C   C64       1.0  0.42590  0.16534  0.21427  1.0000
  C   C65       1.0  0.21992  0.19430  0.21809  1.0000
  H   H61       1.0  0.41112  0.24325  0.08840  1.0000
  N   N2        1.0  0.44063  0.30273  0.05742  1.0000
  H   H62       1.0  0.06032  0.24587  0.19285  1.0000
  H   H63       1.0  0.30456  0.03248  0.09637  1.0000
  C   C66       1.0  0.33452  0.05038  0.10764  1.0000
  C   C67       1.0  0.44298  0.28202  0.06807  1.0000
  H   H64       1.0  0.23524  0.99645  0.06532  1.0000
  C   C68       1.0  0.34209  0.04453  0.13579  1.0000
  H   H65       1.0  0.47029  0.02886  0.09595  1.0000
  H   H66       1.0  0.17943  0.13139  0.14977  1.0000
  S   S23       1.0  0.20172  0.29742  0.16780  1.0000
  H   H67       1.0  0.28639  0.19473  0.22048  1.0000
  C   C69       1.0  0.33232  0.02930  0.11637  1.0000
  H   H68       1.0  0.21019  0.28533  0.20233  1.0000
  C   C70       1.0  0.33627  0.02690  0.13066  1.0000
  H   H69       1.0  0.44516  0.28438  0.03998  1.0000
  H   H70       1.0  0.33168  0.05349  0.09670  1.0000
  C   C71       1.0  0.23565  0.13148  0.14459  1.0000
  H   H71       1.0  0.25199  0.16035  0.14207  1.0000
  C   C72       1.0  0.02776  0.29301  0.07065  1.0000
  S   S24       1.0  0.31059  0.12216  0.22230  1.0000
  H   H72       1.0  0.21739  0.18659  0.14461  1.0000
  H   H73       1.0  0.33458  0.01176  0.13826  1.0000
  H   H74       1.0  0.25637  0.14632  0.22335  1.0000
  H   H75       1.0  0.03975  0.07175  0.04069  1.0000
  H   H76       1.0  0.37128  0.14519  0.20574  1.0000
  N   N3        1.0  0.03606  0.05111  0.06148  1.0000
  C   C73       1.0  0.05438  0.03330  0.05689  1.0000
  C   C74       1.0  0.01776  0.04039  0.07108  1.0000
  C   C75       1.0  0.02682  0.06348  0.04854  1.0000
  C   C76       1.0  0.04462  0.06558  0.06922  1.0000
  C   C77       1.0  0.04356  0.08912  0.06480  1.0000
  C   C78       1.0  0.05352  0.05629  0.08200  1.0000
  C   C79       1.0  0.05069  0.10238  0.07284  1.0000
  C   C80       1.0  0.06034  0.06979  0.09004  1.0000
  C   C81       1.0  0.05874  0.09283  0.08552  1.0000
  H   H77       1.0  0.06096  0.02186  0.06605  1.0000
  H   H78       1.0  0.04839  0.02244  0.05078  1.0000
  H   H79       1.0  0.06876  0.04065  0.04994  1.0000
  H   H80       1.0  0.02394  0.02796  0.07999  1.0000
  H   H81       1.0  0.00939  0.03111  0.06527  1.0000
  C   C82       1.0  0.47472  0.99852  0.98124  1.0000
  H   H82       1.0  0.43099  0.30309  0.11456  1.0000
  H   H83       1.0  0.02078  0.05210  0.04286  1.0000
  H   H84       1.0  0.01208  0.07638  0.05128  1.0000
  H   H85       1.0  0.03664  0.09789  0.05541  1.0000
  H   H86       1.0  0.05477  0.03855  0.08604  1.0000
  H   H87       1.0  0.99741  0.10233  0.10162  1.0000
  H   H88       1.0  0.06654  0.06244  0.09995  1.0000
  H   H89       1.0  0.06335  0.10341  0.09197  1.0000
  H   H90       1.0  0.48119  0.24558  0.08659  1.0000
  C   C83       1.0  0.99775  0.11421  0.09180  1.0000
  H   H91       1.0  0.15293  0.15299  0.16317  1.0000
  H   H92       1.0  0.05618  0.23925  0.05997  1.0000
  H   H93       1.0  0.41621  0.29281  0.04717  1.0000
  N   N4        1.0  0.01707  0.20766  0.17337  1.0000
  C   C84       1.0  0.03949  0.22868  0.18420  1.0000
  C   C85       1.0  0.26461  0.19316  0.19919  1.0000
  C   C86       1.0  0.03990  0.31089  0.06925  1.0000
  H   H94       1.0  0.17046  0.18209  0.12705  1.0000
  H   H95       1.0  0.14412  0.18874  0.13837  1.0000
  H   H96       1.0  0.04573  0.25868  0.03681  1.0000
  C   C87       1.0  0.99263  0.01145  0.99355  1.0000
  N   N5        1.0  0.40775  0.13942  0.20363  1.0000
  C   C88       1.0  0.05803  0.23000  0.19040  1.0000
  C   C89       1.0  0.05352  0.18955  0.18286  1.0000
  C   C90       1.0  0.19488  0.13836  0.14810  1.0000
  H   H97       1.0  0.14378  0.18127  0.16587  1.0000
  H   H98       1.0  0.05314  0.17356  0.17994  1.0000
  H   H99       1.0  0.00035  0.15584  0.05634  1.0000
  C   C91       1.0  0.15901  0.16894  0.16317  1.0000
  N   N6        1.0  0.32612  0.01105  0.11052  1.0000
  C   C92       1.0  0.99575  0.21439  0.18279  1.0000
  H   H100      1.0  0.08476  0.17658  0.19093  1.0000
  N   N7        1.0  0.17278  0.17688  0.14939  1.0000
  H   H101      1.0  0.00131  0.18530  0.16495  1.0000
  C   C93       1.0  0.99936  0.14427  0.06630  1.0000
  C   C94       1.0  0.08685  0.28901  0.03865  1.0000
  H   H102      1.0  0.43201  0.31306  0.03622  1.0000
  H   H103      1.0  0.25136  0.11994  0.14377  1.0000
  C   C95       1.0  0.38653  0.14747  0.19764  1.0000
  H   H104      1.0  0.01585  0.29378  0.06352  1.0000
  H   H105      1.0  0.12570  0.28692  0.02038  1.0000
  C   C96       1.0  0.01623  0.18518  0.17012  1.0000
  C   C97       1.0  0.06499  0.25268  0.05391  1.0000
  H   H106      1.0  0.44336  0.13514  0.19531  1.0000
  C   C98       1.0  0.46091  0.99818  0.09381  1.0000
  H   H107      1.0  0.18451  0.20728  0.22237  1.0000
  C   C99       1.0  0.42580  0.25137  0.08399  1.0000
  H   H108      1.0  0.27956  0.18552  0.19221  1.0000
  C   C100      1.0  0.46369  0.27227  0.07294  1.0000
  H   H109      1.0  0.36033  0.99992  0.10156  1.0000
  C   C101      1.0  0.07417  0.21121  0.19292  1.0000
  C   C102      1.0  0.21349  0.28801  0.21245  1.0000
  H   H110      1.0  0.25005  0.19418  0.19367  1.0000
  Fe  Fe13      1.0  0.99430  0.20580  0.13010  1.0000
  H   H111      1.0  0.10490  0.28220  0.05688  1.0000
  C   C103      1.0  0.40840  0.11532  0.20971  1.0000
  H   H112      1.0  0.34457  0.01929  0.08930  1.0000
  C   C104      1.0  0.05905  0.26377  0.04088  1.0000
  H   H113      1.0  0.44323  0.00514  0.09422  1.0000
  H   H114      1.0  0.47896  0.27956  0.06938  1.0000
  C   C105      1.0  0.48549  0.28957  0.09929  1.0000
  S   S25       1.0  0.00267  0.01352  0.03887  1.0000
  H   H115      1.0  0.99488  0.20358  0.19344  1.0000
  C   C106      1.0  0.01355  0.99075  0.05096  1.0000
  H   H116      1.0  0.00301  0.22403  0.15455  1.0000
  H   H117      1.0  0.25623  0.98798  0.07679  1.0000
  H   H118      1.0  0.22577  0.31204  0.18606  1.0000
  N   N8        1.0  0.26150  0.17993  0.21374  1.0000
  H   H119      1.0  0.44762  0.22716  0.09639  1.0000
  H   H120      1.0  0.27322  0.14844  0.20601  1.0000
  C   C107      1.0  0.25843  0.15697  0.21265  1.0000
  S   S26       1.0  0.48711  0.20818  0.11273  1.0000
  H   H121      1.0  0.29805  0.00473  0.10197  1.0000
  H   H122      1.0  0.06414  0.28960  0.02334  1.0000
  C   C108      1.0  0.28274  0.17805  0.21954  1.0000
  H   H123      1.0  0.09222  0.30774  0.00978  1.0000
  H   H124      1.0  0.13198  0.31403  0.02138  1.0000
  H   H125      1.0  0.47534  0.30056  0.04720  1.0000
  H   H126      1.0  0.31053  0.99320  0.13020  1.0000
  H   H127      1.0  0.99377  0.23207  0.18444  1.0000
  C   C109      1.0  0.00397  0.98706  0.06535  1.0000
  C   C110      1.0  0.24167  0.98274  0.07353  1.0000
  H   H128      1.0  0.40648  0.31515  0.06655  1.0000
  Fe  Fe14      1.0  0.08202  0.05903  0.40790  1.0000
  S   S27       1.0  0.11302  0.04836  0.41830  1.0000
  S   S28       1.0  0.07866  0.08797  0.38968  1.0000
  H   H129      1.0  0.42275  0.15325  0.45065  1.0000
  Fe  Fe15      1.0  0.08870  0.03987  0.43848  1.0000
  H   H130      1.0  0.12863  0.27612  0.28669  1.0000
  Fe  Fe16      1.0  0.11137  0.01364  0.41473  1.0000
  H   H131      1.0  0.07095  0.24171  0.28441  1.0000
  S   S29       1.0  0.05792  0.05321  0.42816  1.0000
  S   S30       1.0  0.08184  0.02497  0.40290  1.0000
  Fe  Fe17      1.0  0.45213  0.01112  0.43316  1.0000
  S   S31       1.0  0.41866  0.02331  0.44561  1.0000
  Fe  Fe18      1.0  0.45288  0.05496  0.41270  1.0000
  S   S32       1.0  0.41982  0.07050  0.42357  1.0000
  S   S33       1.0  0.46785  0.07521  0.39243  1.0000
  Fe  Fe19      1.0  0.43290  0.05495  0.44399  1.0000
  Fe  Fe20      1.0  0.40865  0.03756  0.42411  1.0000
  S   S34       1.0  0.37395  0.03859  0.41882  1.0000
  S   S35       1.0  0.46721  0.04190  0.43298  1.0000
  S   S36       1.0  0.44089  0.02291  0.41176  1.0000
  Fe  Fe21      1.0  0.37741  0.16500  0.30722  1.0000
  S   S37       1.0  0.34429  0.17108  0.32145  1.0000
  S   S38       1.0  0.40966  0.17704  0.30897  1.0000
  Fe  Fe22      1.0  0.35836  0.13901  0.28876  1.0000
  S   S39       1.0  0.32377  0.14298  0.30177  1.0000
  S   S40       1.0  0.36960  0.11866  0.27062  1.0000
  Fe  Fe23      1.0  0.32909  0.17851  0.30124  1.0000
  S   S41       1.0  0.30636  0.21023  0.29355  1.0000
  Fe  Fe24      1.0  0.34212  0.13518  0.32075  1.0000
  S   S42       1.0  0.33694  0.11036  0.34104  1.0000
  S   S43       1.0  0.36264  0.17490  0.28691  1.0000
  S   S44       1.0  0.37633  0.12862  0.30780  1.0000
  H   H132      1.0  0.33664  0.02979  0.30675  1.0000
  H   H133      1.0  0.33241  0.08995  0.30500  1.0000
  S   S45       1.0  0.29187  0.00136  0.37749  1.0000
  S   S46       1.0  0.27955  0.03499  0.34028  1.0000
  H   H134      1.0  0.11559  0.01354  0.46848  1.0000
  C   C111      1.0  0.12328  0.29262  0.29035  1.0000
  N   N9        1.0  0.10277  0.30509  0.28488  1.0000
  Fe  Fe25      1.0  0.46291  0.22078  0.36469  1.0000
  C   C112      1.0  0.38305  0.99331  0.39174  1.0000
  S   S47       1.0  0.42796  0.21885  0.36042  1.0000
  Fe  Fe26      1.0  0.06031  0.01808  0.42414  1.0000
  C   C113      1.0  0.40241  0.14362  0.41018  1.0000
  H   H135      1.0  0.11190  0.16405  0.37325  1.0000
  S   S48       1.0  0.46550  0.22120  0.38761  1.0000
  H   H136      1.0  0.31137  0.04814  0.31257  1.0000
  S   S49       1.0  0.16829  0.27786  0.30788  1.0000
  C   C114      1.0  0.41641  0.16520  0.38761  1.0000
  S   S50       1.0  0.10801  0.29943  0.33147  1.0000
  Fe  Fe27      1.0  0.19472  0.28277  0.31994  1.0000
  S   S51       1.0  0.21702  0.25285  0.33021  1.0000
  H   H137      1.0  0.30566  0.08853  0.30025  1.0000
  H   H138      1.0  0.42033  0.24589  0.32178  1.0000
  H   H139      1.0  0.36361  0.04346  0.28575  1.0000
  H   H140      1.0  0.10168  0.17139  0.34941  1.0000
  Fe  Fe28      1.0  0.01444  0.22500  0.34980  1.0000
  S   S52       1.0  0.04576  0.22625  0.33304  1.0000
  S   S53       1.0  0.01495  0.23669  0.37027  1.0000
  C   C115      1.0  0.06933  0.25721  0.28857  1.0000
  H   H141      1.0  0.44679  0.17843  0.38685  1.0000
  C   C116      1.0  0.16608  0.30798  0.24524  1.0000
  C   C117      1.0  0.15664  0.27239  0.24261  1.0000
  C   C118      1.0  0.16017  0.26396  0.25672  1.0000
  H   H142      1.0  0.30622  0.02822  0.29600  1.0000
  C   C119      1.0  0.01225  0.08924  0.40708  1.0000
  C   C120      1.0  0.01380  0.06942  0.40174  1.0000
  C   C121      1.0  0.16979  0.29949  0.25932  1.0000
  C   C122      1.0  0.09156  0.27827  0.33204  1.0000
  C   C123      1.0  0.06946  0.28060  0.33950  1.0000
  C   C124      1.0  0.05547  0.26456  0.34008  1.0000
  C   C125      1.0  0.06336  0.24614  0.33302  1.0000
  C   C126      1.0  0.08553  0.24366  0.32563  1.0000
  C   C127      1.0  0.09968  0.25954  0.32525  1.0000
  H   H143      1.0  0.06306  0.29499  0.34480  1.0000
  H   H144      1.0  0.03837  0.26680  0.34566  1.0000
  H   H145      1.0  0.09178  0.22944  0.32015  1.0000
  H   H146      1.0  0.11683  0.25720  0.31976  1.0000
  C   C128      1.0  0.28148  0.22152  0.30394  1.0000
  C   C129      1.0  0.27485  0.21202  0.31809  1.0000
  C   C130      1.0  0.25506  0.22181  0.32606  1.0000
  C   C131      1.0  0.24177  0.24104  0.31992  1.0000
  C   C132      1.0  0.24845  0.25052  0.30577  1.0000
  C   C133      1.0  0.26828  0.24082  0.29784  1.0000
  H   H147      1.0  0.28489  0.19713  0.32288  1.0000
  H   H148      1.0  0.24995  0.21441  0.33701  1.0000
  H   H149      1.0  0.23834  0.26532  0.30095  1.0000
  H   H150      1.0  0.27334  0.24826  0.28690  1.0000
  H   H151      1.0  0.43684  0.16748  0.43463  1.0000
  H   H152      1.0  0.33351  0.03178  0.41038  1.0000
  C   C134      1.0  0.00045  0.10919  0.40076  1.0000
  C   C135      1.0  0.35338  0.12040  0.25700  1.0000
  C   C136      1.0  0.33198  0.13319  0.25737  1.0000
  C   C137      1.0  0.31911  0.13348  0.24667  1.0000
  H   H153      1.0  0.00496  0.05400  0.38586  1.0000
  H   H154      1.0  0.13767  0.30218  0.28685  1.0000
  H   H155      1.0  0.32519  0.14259  0.26601  1.0000
  H   H156      1.0  0.30235  0.14297  0.24729  1.0000
  C   C138      1.0  0.41451  0.18762  0.32376  1.0000
  C   C139      1.0  0.39741  0.19180  0.33518  1.0000
  C   C140      1.0  0.40187  0.20102  0.34647  1.0000
  C   C141      1.0  0.42349  0.20580  0.34656  1.0000
  C   C142      1.0  0.44070  0.20104  0.33533  1.0000
  C   C143      1.0  0.43615  0.19221  0.32392  1.0000
  H   H157      1.0  0.38073  0.18824  0.33523  1.0000
  H   H158      1.0  0.38844  0.20474  0.35509  1.0000
  H   H159      1.0  0.45738  0.20472  0.33523  1.0000
  H   H160      1.0  0.44948  0.18899  0.31514  1.0000
  C   C144      1.0  0.32067  0.08968  0.34087  1.0000
  C   C145      1.0  0.32451  0.06882  0.34957  1.0000
  C   C146      1.0  0.31192  0.05194  0.34947  1.0000
  C   C147      1.0  0.29510  0.05604  0.34088  1.0000
  C   C148      1.0  0.29091  0.07706  0.33240  1.0000
  C   C149      1.0  0.30383  0.09379  0.33229  1.0000
  H   H161      1.0  0.33748  0.06554  0.35624  1.0000
  H   H162      1.0  0.31538  0.03571  0.35596  1.0000
  H   H163      1.0  0.27781  0.08031  0.32581  1.0000
  H   H164      1.0  0.30052  0.10999  0.32574  1.0000
  C   C150      1.0  0.21866  0.31168  0.22860  1.0000
  H   H165      1.0  0.22172  0.25730  0.24474  1.0000
  C   C151      1.0  0.40369  0.12715  0.43982  1.0000
  C   C152      1.0  0.34314  0.00685  0.39650  1.0000
  C   C153      1.0  0.05092  0.26294  0.29878  1.0000
  C   C154      1.0  0.16759  0.98745  0.40215  1.0000
  H   H166      1.0  0.40346  0.11175  0.43544  1.0000
  C   C155      1.0  0.42209  0.15865  0.43904  1.0000
  C   C156      1.0  0.32018  0.05762  0.28322  1.0000
  H   H167      1.0  0.38678  0.14961  0.39122  1.0000
  C   C157      1.0  0.36945  0.02126  0.40731  1.0000
  H   H168      1.0  0.32792  0.09864  0.28704  1.0000
  H   H169      1.0  0.41481  0.17238  0.37661  1.0000
  S   S54       1.0  0.02699  0.00534  0.42718  1.0000
  C   C158      1.0  0.32772  0.12153  0.23529  1.0000
  C   C159      1.0  0.04904  0.28250  0.30445  1.0000
  H   H170      1.0  0.40436  0.26801  0.34106  1.0000
  C   C160      1.0  0.30953  0.06677  0.25923  1.0000
  H   H171      1.0  0.36656  0.06406  0.29605  1.0000
  N   N10       1.0  0.33236  0.06264  0.29387  1.0000
  H   H172      1.0  0.35564  0.09893  0.22643  1.0000
  S   S55       1.0  0.20548  0.31298  0.30476  1.0000
  H   H173      1.0  0.12416  0.26075  0.35335  1.0000
  S   S56       1.0  0.08950  0.00403  0.43589  1.0000
  H   H174      1.0  0.08315  0.16732  0.38136  1.0000
  H   H175      1.0  0.13615  0.07704  0.38121  1.0000
  C   C161      1.0  0.03556  0.15560  0.39628  1.0000
  C   C162      1.0  0.04252  0.14996  0.38261  1.0000
  C   C163      1.0  0.05572  0.12919  0.38077  1.0000
  C   C164      1.0  0.06189  0.11373  0.39258  1.0000
  C   C165      1.0  0.05501  0.11932  0.40626  1.0000
  C   C166      1.0  0.04197  0.14025  0.40808  1.0000
  H   H176      1.0  0.03802  0.16165  0.37343  1.0000
  H   H177      1.0  0.06109  0.12499  0.37016  1.0000
  H   H178      1.0  0.05988  0.10758  0.41542  1.0000
  H   H179      1.0  0.03673  0.14449  0.41869  1.0000
  H   H180      1.0  0.44503  0.10982  0.42699  1.0000
  C   C167      1.0  0.01631  0.30452  0.37674  1.0000
  S   S57       1.0  0.08632  0.05414  0.45868  1.0000
  C   C168      1.0  0.42662  0.17644  0.22553  1.0000
  N   N11       1.0  0.42221  0.13937  0.43181  1.0000
  H   H181      1.0  0.22372  0.21274  0.25363  1.0000
  C   C169      1.0  0.08593  0.27104  0.28399  1.0000
  C   C170      1.0  0.39325  0.26341  0.33492  1.0000
  H   H182      1.0  0.31023  0.07740  0.24886  1.0000
  C   C171      1.0  0.35681  0.06057  0.28826  1.0000
  C   C172      1.0  0.20210  0.21136  0.23877  1.0000
  C   C173      1.0  0.30770  0.03945  0.28593  1.0000
  H   H183      1.0  0.10020  0.26550  0.27635  1.0000
  H   H184      1.0  0.37819  0.09765  0.24566  1.0000
  C   C174      1.0  0.29745  0.04887  0.26222  1.0000
  H   H185      1.0  0.16546  0.00014  0.42171  1.0000
  Fe  Fe29      1.0  0.14467  0.30069  0.32152  1.0000
  C   C175      1.0  0.34742  0.02115  0.40513  1.0000
  C   C176      1.0  0.48711  0.13641  0.38477  1.0000
  H   H186      1.0  0.09225  0.24105  0.36226  1.0000
  C   C177      1.0  0.41027  0.17499  0.23768  1.0000
  H   H187      1.0  0.15769  0.24695  0.26128  1.0000
  H   H188      1.0  0.07231  0.17519  0.35631  1.0000
  H   H189      1.0  0.22395  0.29470  0.24965  1.0000
  H   H190      1.0  0.28222  0.16709  0.23013  1.0000
  H   H191      1.0  0.47236  0.00851  0.46000  1.0000
  H   H192      1.0  0.02314  0.05405  0.40664  1.0000
  C   C178      1.0  0.37001  0.26958  0.33805  1.0000
  C   C179      1.0  0.24219  0.19751  0.23567  1.0000
  H   H193      1.0  0.40576  0.12127  0.45122  1.0000
  C   C180      1.0  0.06560  0.29642  0.30001  1.0000
  C   C181      1.0  0.43438  0.16873  0.39343  1.0000
  C   C182      1.0  0.29653  0.03525  0.27553  1.0000
  H   H194      1.0  0.06148  0.10280  0.47344  1.0000
  H   H195      1.0  0.17021  0.27044  0.27569  1.0000
  H   H196      1.0  0.45856  0.13259  0.42867  1.0000
  S   S58       1.0  0.01885  0.18158  0.39891  1.0000
  C   C183      1.0  0.22154  0.29281  0.23911  1.0000
  C   C184      1.0  0.42025  0.14748  0.41657  1.0000
  Fe  Fe30      1.0  0.28864  0.00237  0.35470  1.0000
  C   C185      1.0  0.36179  0.10792  0.24585  1.0000
  Fe  Fe31      1.0  0.00359  0.20387  0.38054  1.0000
  C   C186      1.0  0.39285  0.16281  0.23852  1.0000
  Fe  Fe32      1.0  0.17711  0.30950  0.29361  1.0000
  S   S59       1.0  0.48509  0.24740  0.35630  1.0000
  C   C187      1.0  0.15973  0.29444  0.23687  1.0000
  C   C188      1.0  0.44370  0.12396  0.43294  1.0000
  C   C189      1.0  0.36093  0.99266  0.38993  1.0000
  N   N12       1.0  0.34858  0.24123  0.31254  1.0000
  C   C190      1.0  0.33305  0.22847  0.32337  1.0000
  C   C191      1.0  0.33502  0.26047  0.30470  1.0000
  C   C192      1.0  0.36025  0.22629  0.30214  1.0000
  C   C193      1.0  0.36422  0.24937  0.31970  1.0000
  C   C194      1.0  0.35566  0.26283  0.33051  1.0000
  C   C195      1.0  0.38807  0.24388  0.31652  1.0000
  H   H197      1.0  0.18707  0.21943  0.24485  1.0000
  C   C196      1.0  0.40224  0.25091  0.32404  1.0000
  H   H198      1.0  0.40663  0.17118  0.43788  1.0000
  H   H199      1.0  0.32124  0.23920  0.33040  1.0000
  H   H200      1.0  0.32223  0.22054  0.31832  1.0000
  H   H201      1.0  0.34263  0.21497  0.33030  1.0000
  H   H202      1.0  0.32435  0.27168  0.31190  1.0000
  H   H203      1.0  0.32329  0.25472  0.29904  1.0000
  H   H204      1.0  0.34605  0.27073  0.29659  1.0000
  H   H205      1.0  0.37026  0.21106  0.30742  1.0000
  H   H206      1.0  0.34813  0.22034  0.29698  1.0000
  H   H207      1.0  0.37162  0.23498  0.29333  1.0000
  H   H208      1.0  0.33776  0.26786  0.33340  1.0000
  H   H209      1.0  0.39630  0.23355  0.30860  1.0000
  H   H210      1.0  0.03841  0.25185  0.30265  1.0000
  H   H211      1.0  0.38386  0.99123  0.44391  1.0000
  H   H212      1.0  0.02061  0.08922  0.41604  1.0000
  N   N13       1.0  0.39089  0.08332  0.37728  1.0000
  C   C197      1.0  0.37393  0.07520  0.37110  1.0000
  C   C198      1.0  0.40858  0.06394  0.38054  1.0000
  C   C199      1.0  0.37942  0.09099  0.39082  1.0000
  C   C200      1.0  0.40127  0.10183  0.36776  1.0000
  C   C201      1.0  0.39471  0.11165  0.35429  1.0000
  C   C202      1.0  0.41830  0.11089  0.37201  1.0000
  C   C203      1.0  0.40495  0.12912  0.34561  1.0000
  C   C204      1.0  0.42830  0.12841  0.36326  1.0000
  C   C205      1.0  0.42178  0.13736  0.35006  1.0000
  H   H213      1.0  0.35942  0.08861  0.36903  1.0000
  H   H214      1.0  0.38146  0.06893  0.36092  1.0000
  H   H215      1.0  0.36671  0.06104  0.37843  1.0000
  H   H216      1.0  0.41817  0.05816  0.37058  1.0000
  H   H217      1.0  0.40124  0.04952  0.38740  1.0000
  H   H218      1.0  0.42099  0.06785  0.38643  1.0000
  H   H219      1.0  0.37037  0.07792  0.39798  1.0000
  H   H220      1.0  0.39147  0.09491  0.39697  1.0000
  H   H221      1.0  0.36679  0.10624  0.38875  1.0000
  H   H222      1.0  0.38172  0.10620  0.35016  1.0000
  H   H223      1.0  0.42416  0.10442  0.38211  1.0000
  H   H224      1.0  0.39985  0.13633  0.33532  1.0000
  H   H225      1.0  0.44123  0.13510  0.36670  1.0000
  H   H226      1.0  0.42983  0.15072  0.34326  1.0000
  N   N14       1.0  0.09161  0.19455  0.36459  1.0000
  C   C206      1.0  0.07019  0.20837  0.36987  1.0000
  C   C207      1.0  0.11051  0.20754  0.35921  1.0000
  C   C208      1.0  0.10813  0.23109  0.35887  1.0000
  C   C209      1.0  0.13218  0.19662  0.35396  1.0000
  C   C210      1.0  0.12641  0.24274  0.35370  1.0000
  C   C211      1.0  0.15029  0.20848  0.34874  1.0000
  C   C212      1.0  0.14741  0.23150  0.34861  1.0000
  H   H227      1.0  0.06419  0.22145  0.36118  1.0000
  H   H228      1.0  0.05637  0.19812  0.37396  1.0000
  H   H229      1.0  0.07195  0.21653  0.37886  1.0000
  H   H230      1.0  0.08402  0.19681  0.34347  1.0000
  H   H231      1.0  0.10177  0.18398  0.38527  1.0000
  H   H232      1.0  0.13523  0.17882  0.35375  1.0000
  H   H233      1.0  0.16669  0.19988  0.34468  1.0000
  H   H234      1.0  0.16146  0.24069  0.34445  1.0000
  C   C213      1.0  0.32419  0.08590  0.29663  1.0000
  C   C214      1.0  0.08730  0.18399  0.35297  1.0000
  S   S60       1.0  0.17028  0.30309  0.33488  1.0000
  H   H235      1.0  0.32994  0.08506  0.26669  1.0000
  H   H236      1.0  0.40431  0.00738  0.40208  1.0000
  H   H237      1.0  0.36311  0.27933  0.34653  1.0000
  N   N15       1.0  0.22573  0.04694  0.37538  1.0000
  C   C215      1.0  0.23224  0.03956  0.38978  1.0000
  C   C216      1.0  0.23079  0.02747  0.36770  1.0000
  C   C217      1.0  0.24033  0.06357  0.36747  1.0000
  C   C218      1.0  0.20131  0.05566  0.37674  1.0000
  C   C219      1.0  0.19260  0.07802  0.37118  1.0000
  C   C220      1.0  0.18537  0.04154  0.38387  1.0000
  C   C221      1.0  0.16934  0.08556  0.37281  1.0000
  C   C222      1.0  0.16221  0.04919  0.38542  1.0000
  C   C223      1.0  0.15418  0.07119  0.37994  1.0000
  H   H238      1.0  0.22352  0.02564  0.39603  1.0000
  H   H239      1.0  0.25057  0.03304  0.38921  1.0000
  H   H240      1.0  0.22820  0.05352  0.39610  1.0000
  H   H241      1.0  0.22252  0.01307  0.37362  1.0000
  H   H242      1.0  0.24911  0.02106  0.36603  1.0000
  H   H243      1.0  0.22549  0.03201  0.35697  1.0000
  H   H244      1.0  0.25855  0.05634  0.36671  1.0000
  H   H245      1.0  0.23719  0.06901  0.35625  1.0000
  H   H246      1.0  0.23805  0.07847  0.37285  1.0000
  H   H247      1.0  0.20338  0.08996  0.36549  1.0000
  H   H248      1.0  0.19075  0.02437  0.38830  1.0000
  H   H249      1.0  0.16298  0.10264  0.36851  1.0000
  H   H250      1.0  0.15044  0.03793  0.39091  1.0000
  C   C224      1.0  0.47844  0.09893  0.39450  1.0000
  H   H251      1.0  0.44533  0.11653  0.44421  1.0000
  C   C225      1.0  0.09743  0.17673  0.37659  1.0000
  S   S61       1.0  0.00506  0.19127  0.36014  1.0000
  C   C226      1.0  0.40060  0.15246  0.39590  1.0000
  C   C227      1.0  0.16704  0.27732  0.26496  1.0000
  H   H252      1.0  0.02637  0.01125  0.45788  1.0000
  H   H253      1.0  0.20692  0.99368  0.42128  1.0000
  H   H254      1.0  0.47540  0.11536  0.37310  1.0000
  H   H255      1.0  0.38697  0.13791  0.43979  1.0000
  C   C228      1.0  0.47326  0.00603  0.47129  1.0000
  H   H256      1.0  0.33801  0.05221  0.31578  1.0000
  H   H257      1.0  0.38014  0.16159  0.24801  1.0000
  C   C229      1.0  0.32947  0.04749  0.30780  1.0000
  C   C230      1.0  0.32075  0.07107  0.26954  1.0000
  H   H258      1.0  0.36061  0.07266  0.27834  1.0000
  C   C231      1.0  0.43639  0.15999  0.40766  1.0000
  H   H259      1.0  0.11529  0.29478  0.26418  1.0000
  S   S62       1.0  0.43064  0.07582  0.46134  1.0000
  H   H260      1.0  0.45073  0.16323  0.41161  1.0000
  H   H261      1.0  0.38957  0.13396  0.41599  1.0000
  S   S63       1.0  0.14689  0.25527  0.23297  1.0000
  C   C232      1.0  0.00353  0.06944  0.39003  1.0000
  H   H262      1.0  0.32604  0.00642  0.39523  1.0000
  C   C233      1.0  0.38731  0.00748  0.40045  1.0000
  H   H263      1.0  0.41105  0.18332  0.24647  1.0000
  C   C234      1.0  0.08450  0.29120  0.28948  1.0000
  H   H264      1.0  0.28709  0.02132  0.27783  1.0000
  C   C235      1.0  0.10781  0.30998  0.26905  1.0000
  H   H265      1.0  0.07228  0.98565  0.39311  1.0000
  H   H266      1.0  0.28879  0.04556  0.25419  1.0000
  H   H267      1.0  0.03504  0.28643  0.31275  1.0000
  C   C236      1.0  0.22018  0.27170  0.23639  1.0000
  C   C237      1.0  0.02600  0.00407  0.46908  1.0000
  H   H268      1.0  0.00355  0.28528  0.39655  1.0000
  C   C238      1.0  0.17658  0.99319  0.41301  1.0000
  H   H269      1.0  0.25759  0.19510  0.24009  1.0000
  C   C239      1.0  0.34913  0.10869  0.23492  1.0000
  H   H270      1.0  0.12044  0.28941  0.30220  1.0000
  C   C240      1.0  0.22277  0.20771  0.24361  1.0000
  S   S64       1.0  0.13822  0.99097  0.40221  1.0000
  C   C241      1.0  0.20007  0.98948  0.41274  1.0000
  H   H271      1.0  0.00591  0.13831  0.36647  1.0000
  H   H272      1.0  0.15677  0.30113  0.22609  1.0000
  C   C242      1.0  0.48000  0.11672  0.38314  1.0000
  C   C243      1.0  0.00642  0.30183  0.39102  1.0000
  H   H273      1.0  0.99258  0.15468  0.38860  1.0000
  H   H274      1.0  0.48750  0.15017  0.37607  1.0000
  H   H275      1.0  0.02110  0.29013  0.37125  1.0000
  C   C244      1.0  0.48532  0.10036  0.40727  1.0000
  H   H276      1.0  0.00034  0.12393  0.40533  1.0000
  C   C245      1.0  0.39184  0.15189  0.22728  1.0000
  H   H277      1.0  0.37787  0.14292  0.22836  1.0000
  H   H278      1.0  0.48467  0.08647  0.41599  1.0000
  H   H279      1.0  0.03249  0.99177  0.39100  1.0000
  C   C246      1.0  0.20068  0.20457  0.22607  1.0000
  H   H280      1.0  0.46710  0.04115  0.47241  1.0000
  H   H281      1.0  0.06348  0.31080  0.30529  1.0000
  H   H282      1.0  0.06130  0.00404  0.46846  1.0000
  H   H283      1.0  0.44005  0.18612  0.22486  1.0000
  Fe  Fe33      1.0  0.49009  0.24559  0.37903  1.0000
  C   C247      1.0  0.99165  0.08928  0.38363  1.0000
  S   S65       1.0  0.49058  0.27961  0.38493  1.0000
  H   H284      1.0  0.35076  0.98277  0.43584  1.0000
  Fe  Fe34      1.0  0.24285  0.00167  0.60912  1.0000
  Fe  Fe35      1.0  0.06270  0.00288  0.57219  1.0000
  S   S66       1.0  0.08223  0.02615  0.55606  1.0000
  C   C248      1.0  0.42253  0.06400  0.47932  1.0000
  H   H285      1.0  0.12604  0.04449  0.63774  1.0000
  S   S67       1.0  0.03962  0.03739  0.53871  1.0000
  Fe  Fe36      1.0  0.07050  0.01167  0.53962  1.0000
  C   C249      1.0  0.99988  0.26945  0.58592  1.0000
  Fe  Fe37      1.0  0.04964  0.04973  0.55674  1.0000
  S   S68       1.0  0.05425  0.08545  0.55681  1.0000
  H   H286      1.0  0.11805  0.04474  0.58761  1.0000
  S   S69       1.0  0.03035  0.02719  0.57381  1.0000
  Fe  Fe38      1.0  0.19830  0.13733  0.66820  1.0000
  S   S70       1.0  0.16590  0.12924  0.68176  1.0000
  S   S71       1.0  0.21229  0.12109  0.64862  1.0000
  Fe  Fe39      1.0  0.20372  0.17216  0.68528  1.0000
  S   S72       1.0  0.17128  0.16710  0.69968  1.0000
  S   S73       1.0  0.22178  0.19514  0.69345  1.0000
  Fe  Fe40      1.0  0.18301  0.13065  0.70013  1.0000
  H   H287      1.0  0.39612  0.23248  0.62702  1.0000
  Fe  Fe41      1.0  0.15676  0.16643  0.68027  1.0000
  S   S74       1.0  0.12029  0.18173  0.68010  1.0000
  S   S75       1.0  0.21650  0.13523  0.68678  1.0000
  S   S76       1.0  0.18810  0.17491  0.66550  1.0000
  H   H288      1.0  0.35010  0.04552  0.53816  1.0000
  S   S77       1.0  0.18046  0.02942  0.64722  1.0000
  S   S78       1.0  0.20905  0.02307  0.60777  1.0000
  H   H289      1.0  0.08298  0.06394  0.58306  1.0000
  S   S79       1.0  0.01891  0.22112  0.62478  1.0000
  Fe  Fe42      1.0  0.01277  0.16375  0.61537  1.0000
  S   S80       1.0  0.03660  0.18570  0.60185  1.0000
  H   H290      1.0  0.30767  0.06964  0.60891  1.0000
  Fe  Fe43      1.0  0.04513  0.19064  0.62258  1.0000
  S   S81       1.0  0.08253  0.18875  0.62232  1.0000
  C   C250      1.0  0.04367  0.10834  0.50820  1.0000
  H   H291      1.0  0.43384  0.16408  0.63994  1.0000
  S   S82       1.0  0.02313  0.16665  0.63603  1.0000
  H   H292      1.0  0.32796  0.23691  0.61138  1.0000
  Fe  Fe44      1.0  0.31042  0.27171  0.66338  1.0000
  S   S83       1.0  0.32563  0.30152  0.65088  1.0000
  S   S84       1.0  0.29137  0.25312  0.65277  1.0000
  Fe  Fe45      1.0  0.33217  0.27084  0.68912  1.0000
  C   C251      1.0  0.08617  0.03643  0.47523  1.0000
  S   S85       1.0  0.33423  0.24970  0.71083  1.0000
  Fe  Fe46      1.0  0.35741  0.28429  0.65917  1.0000
  S   S86       1.0  0.38952  0.28689  0.64329  1.0000
  S   S87       1.0  0.29852  0.28729  0.68321  1.0000
  S   S88       1.0  0.34295  0.25334  0.66996  1.0000
  C   C252      1.0  0.04381  0.28955  0.55492  1.0000
  S   S89       1.0  0.44114  0.05673  0.54663  1.0000
  Fe  Fe47      1.0  0.39864  0.02986  0.57773  1.0000
  S   S90       1.0  0.38819  0.06071  0.56250  1.0000
  S   S91       1.0  0.37573  0.01192  0.59591  1.0000
  Fe  Fe48      1.0  0.41016  0.04295  0.54532  1.0000
  S   S92       1.0  0.39872  0.03538  0.52597  1.0000
  Fe  Fe49      1.0  0.42021  0.07192  0.56526  1.0000
  S   S93       1.0  0.41796  0.10763  0.56944  1.0000
  S   S94       1.0  0.42921  0.04206  0.58168  1.0000
  S   S95       1.0  0.46257  0.20033  0.63605  1.0000
  C   C253      1.0  0.44133  0.11843  0.57256  1.0000
  C   C254      1.0  0.46261  0.10541  0.57253  1.0000
  H   H293      1.0  0.13936  0.22838  0.69247  1.0000
  C   C255      1.0  0.45652  0.14956  0.57799  1.0000
  C   C256      1.0  0.43837  0.14054  0.57532  1.0000
  H   H294      1.0  0.45420  0.16674  0.57971  1.0000
  H   H295      1.0  0.42199  0.15075  0.57526  1.0000
  H   H296      1.0  0.09508  0.08392  0.48275  1.0000
  C   C257      1.0  0.09642  0.05982  0.52408  1.0000
  C   C258      1.0  0.40508  0.03621  0.49716  1.0000
  C   C259      1.0  0.40888  0.04633  0.50817  1.0000
  C   C260      1.0  0.41994  0.06510  0.50474  1.0000
  C   C261      1.0  0.42655  0.07402  0.49034  1.0000
  C   C262      1.0  0.02516  0.98571  0.49844  1.0000
  H   H297      1.0  0.39660  0.02165  0.49972  1.0000
  H   H298      1.0  0.42287  0.07307  0.51315  1.0000
  H   H299      1.0  0.43473  0.08879  0.48773  1.0000
  H   H300      1.0  0.11283  0.05224  0.49717  1.0000
  C   C263      1.0  0.34208  0.26184  0.72389  1.0000
  H   H301      1.0  0.30048  0.99110  0.61438  1.0000
  C   C264      1.0  0.10640  0.98749  0.59015  1.0000
  H   H302      1.0  0.38907  0.19726  0.58635  1.0000
  C   C265      1.0  0.41008  0.26291  0.64170  1.0000
  C   C266      1.0  0.40840  0.24292  0.65124  1.0000
  C   C267      1.0  0.42476  0.22393  0.64948  1.0000
  C   C268      1.0  0.44288  0.22477  0.63818  1.0000
  C   C269      1.0  0.44460  0.24478  0.62865  1.0000
  C   C270      1.0  0.42825  0.26379  0.63042  1.0000
  H   H303      1.0  0.39462  0.24212  0.66005  1.0000
  H   H304      1.0  0.42341  0.20855  0.65694  1.0000
  H   H305      1.0  0.45849  0.24560  0.61990  1.0000
  H   H306      1.0  0.42964  0.27919  0.62299  1.0000
  C   C271      1.0  0.34636  0.01459  0.59609  1.0000
  H   H307      1.0  0.46514  0.08840  0.57042  1.0000
  H   H308      1.0  0.26990  0.19250  0.71096  1.0000
  C   C272      1.0  0.11295  0.09354  0.51597  1.0000
  C   C273      1.0  0.31224  0.03248  0.58662  1.0000
  C   C274      1.0  0.24093  0.21112  0.68186  1.0000
  C   C275      1.0  0.24578  0.21026  0.66724  1.0000
  C   C276      1.0  0.26125  0.22326  0.65837  1.0000
  C   C277      1.0  0.27204  0.23699  0.66410  1.0000
  C   C278      1.0  0.26727  0.23771  0.67874  1.0000
  C   C279      1.0  0.25162  0.22497  0.68755  1.0000
  H   H309      1.0  0.23754  0.19969  0.66276  1.0000
  H   H310      1.0  0.26479  0.22270  0.64705  1.0000
  H   H311      1.0  0.27543  0.24827  0.68325  1.0000
  H   H312      1.0  0.24767  0.22597  0.69881  1.0000
  C   C280      1.0  0.10992  0.18457  0.66391  1.0000
  C   C281      1.0  0.08659  0.18731  0.66400  1.0000
  C   C282      1.0  0.07795  0.18866  0.65130  1.0000
  C   C283      1.0  0.09262  0.18763  0.63841  1.0000
  C   C284      1.0  0.11593  0.18522  0.63829  1.0000
  C   C285      1.0  0.12459  0.18354  0.65101  1.0000
  H   H313      1.0  0.07515  0.18813  0.67394  1.0000
  H   H314      1.0  0.05994  0.19056  0.65149  1.0000
  H   H315      1.0  0.12735  0.18451  0.62833  1.0000
  H   H316      1.0  0.14259  0.18155  0.65084  1.0000
  C   C286      1.0  0.20330  0.09564  0.64839  1.0000
  C   C287      1.0  0.20616  0.08761  0.63543  1.0000
  C   C288      1.0  0.19981  0.06695  0.63502  1.0000
  C   C289      1.0  0.19018  0.05444  0.64756  1.0000
  C   C290      1.0  0.18705  0.06261  0.66049  1.0000
  C   C291      1.0  0.19375  0.08308  0.66093  1.0000
  H   H317      1.0  0.21326  0.09747  0.62569  1.0000
  H   H318      1.0  0.20192  0.06095  0.62497  1.0000
  H   H319      1.0  0.17957  0.05299  0.67021  1.0000
  H   H320      1.0  0.19181  0.08896  0.67100  1.0000
  C   C292      1.0  0.08233  0.08796  0.50514  1.0000
  C   C293      1.0  0.00893  0.27736  0.59595  1.0000
  H   H321      1.0  0.05784  0.05177  0.58813  1.0000
  C   C294      1.0  0.06442  0.03210  0.61423  1.0000
  H   H322      1.0  0.04771  0.03217  0.61114  1.0000
  H   H323      1.0  0.40978  0.14295  0.61264  1.0000
  H   H324      1.0  0.29959  0.20134  0.72168  1.0000
  H   H325      1.0  0.08421  0.03377  0.58716  1.0000
  H   H326      1.0  0.08809  0.04991  0.63163  1.0000
  C   C295      1.0  0.35086  0.25516  0.62603  1.0000
  C   C296      1.0  0.04078  0.09833  0.57168  1.0000
  C   C297      1.0  0.04784  0.11767  0.57399  1.0000
  C   C298      1.0  0.03782  0.12780  0.58602  1.0000
  C   C299      1.0  0.02057  0.11869  0.59575  1.0000
  C   C300      1.0  0.01329  0.09960  0.59328  1.0000
  C   C301      1.0  0.02339  0.08940  0.58134  1.0000
  H   H327      1.0  0.04354  0.14251  0.58782  1.0000
  C   C302      1.0  0.01060  0.30024  0.59432  1.0000
  H   H328      1.0  0.01755  0.07475  0.57956  1.0000
  C   C303      1.0  0.33556  0.03075  0.58636  1.0000
  C   C304      1.0  0.14278  0.04232  0.61640  1.0000
  C   C305      1.0  0.08974  0.01351  0.50302  1.0000
  C   C306      1.0  0.39035  0.20492  0.59535  1.0000
  H   H329      1.0  0.06720  0.22085  0.60062  1.0000
  H   H330      1.0  0.06964  0.08667  0.60189  1.0000
  Fe  Fe50      1.0  0.44782  0.02594  0.56294  1.0000
  H   H331      1.0  0.05694  0.05635  0.48520  1.0000
  Fe  Fe51      1.0  0.19994  0.00878  0.63072  1.0000
  C   C307      1.0  0.03037  0.99399  0.52092  1.0000
  C   C308      1.0  0.06871  0.28254  0.57722  1.0000
  H   H332      1.0  0.13945  0.14900  0.72345  1.0000
  C   C309      1.0  0.45353  0.15996  0.61244  1.0000
  C   C310      1.0  0.14022  0.04259  0.60235  1.0000
  C   C311      1.0  0.05109  0.26769  0.56130  1.0000
  H   H333      1.0  0.34519  0.04205  0.57874  1.0000
  H   H334      1.0  0.07301  0.20564  0.57867  1.0000
  H   H335      1.0  0.15948  0.03959  0.61933  1.0000
  C   C312      1.0  0.10497  0.00676  0.49130  1.0000
  C   C313      1.0  0.06653  0.22260  0.57321  1.0000
  H   H336      1.0  0.37304  0.99836  0.53746  1.0000
  C   C314      1.0  0.41143  0.20783  0.59756  1.0000
  H   H337      1.0  0.03339  0.29240  0.54662  1.0000
  Fe  Fe52      1.0  0.00858  0.21433  0.60516  1.0000
  H   H338      1.0  0.08636  0.06757  0.53321  1.0000
  C   C315      1.0  0.06400  0.26352  0.57262  1.0000
  H   H339      1.0  0.12711  0.07651  0.49210  1.0000
  C   C316      1.0  0.04570  0.99990  0.47504  1.0000
  C   C317      1.0  0.29948  0.01808  0.59660  1.0000
  C   C318      1.0  0.35310  0.21884  0.64081  1.0000
  C   C319      1.0  0.09675  0.23729  0.57910  1.0000
  C   C320      1.0  0.47542  0.99939  0.50093  1.0000
  C   C321      1.0  0.33351  0.00057  0.60637  1.0000
  C   C322      1.0  0.34648  0.03644  0.62719  1.0000
  H   H340      1.0  0.11862  0.99310  0.49299  1.0000
  H   H341      1.0  0.01487  0.26593  0.60487  1.0000
  S   S96       1.0  0.09366  0.00015  0.52038  1.0000
  S   S97       1.0  0.00875  0.12948  0.61164  1.0000
  H   H342      1.0  0.34174  0.98821  0.61406  1.0000
  H   H343      1.0  0.06119  0.12476  0.56650  1.0000
  C   C323      1.0  0.07538  0.05000  0.59031  1.0000
  H   H344      1.0  0.36753  0.22232  0.64514  1.0000
  N   N16       1.0  0.12741  0.11347  0.64835  1.0000
  C   C324      1.0  0.14806  0.12405  0.64359  1.0000
  C   C325      1.0  0.11324  0.12498  0.65987  1.0000
  C   C326      1.0  0.13384  0.08975  0.65472  1.0000
  C   C327      1.0  0.11599  0.11468  0.63591  1.0000
  C   C328      1.0  0.09451  0.12771  0.63451  1.0000
  C   C329      1.0  0.12677  0.10319  0.62443  1.0000
  C   C330      1.0  0.08459  0.12901  0.62240  1.0000
  C   C331      1.0  0.11664  0.10456  0.61239  1.0000
  C   C332      1.0  0.09564  0.11756  0.61134  1.0000
  H   H345      1.0  0.14402  0.14173  0.63838  1.0000
  H   H346      1.0  0.15689  0.12423  0.65266  1.0000
  H   H347      1.0  0.16053  0.11514  0.63583  1.0000
  H   H348      1.0  0.10863  0.14314  0.65611  1.0000
  H   H349      1.0  0.12223  0.12387  0.66907  1.0000
  H   H350      1.0  0.09746  0.11771  0.66406  1.0000
  H   H351      1.0  0.14651  0.08027  0.64736  1.0000
  H   H352      1.0  0.14164  0.08839  0.66445  1.0000
  H   H353      1.0  0.11891  0.08087  0.65778  1.0000
  H   H354      1.0  0.08513  0.13755  0.64244  1.0000
  H   H355      1.0  0.14333  0.09336  0.62459  1.0000
  H   H356      1.0  0.06840  0.13945  0.62145  1.0000
  H   H357      1.0  0.12529  0.09573  0.60374  1.0000
  H   H358      1.0  0.08800  0.11912  0.60187  1.0000
  N   N17       1.0  0.44774  0.14205  0.62442  1.0000
  C   C333      1.0  0.42872  0.15166  0.63458  1.0000
  S   S98       1.0  0.18076  0.99466  0.58430  1.0000
  H   H359      1.0  0.39993  0.11380  0.60202  1.0000
  C   C334      1.0  0.44140  0.12384  0.61862  1.0000
  C   C335      1.0  0.33709  0.05205  0.61665  1.0000
  C   C336      1.0  0.45583  0.10312  0.61742  1.0000
  Fe  Fe53      1.0  0.02321  0.01237  0.55573  1.0000
  H   H360      1.0  0.02808  0.11855  0.48932  1.0000
  Fe  Fe54      1.0  0.19795  0.99281  0.60324  1.0000
  H   H361      1.0  0.42239  0.13829  0.64305  1.0000
  C   C337      1.0  0.00526  0.99039  0.49206  1.0000
  C   C338      1.0  0.41204  0.04488  0.48280  1.0000
  H   H362      1.0  0.19634  0.14814  0.72194  1.0000
  C   C339      1.0  0.09897  0.04825  0.60896  1.0000
  C   C340      1.0  0.47784  0.13652  0.57792  1.0000
  H   H363      1.0  0.44063  0.99925  0.52230  1.0000
  H   H364      1.0  0.11491  0.20300  0.70710  1.0000
  H   H365      1.0  0.99989  0.09253  0.60074  1.0000
  H   H366      1.0  0.04272  0.23923  0.59573  1.0000
  H   H367      1.0  0.30490  0.03031  0.54670  1.0000
  C   C341      1.0  0.04881  0.30779  0.55968  1.0000
  H   H368      1.0  0.41442  0.16102  0.62926  1.0000
  H   H369      1.0  0.47117  0.14851  0.63686  1.0000
  C   C342      1.0  0.39389  0.22481  0.61833  1.0000
  C   C343      1.0  0.34241  0.28489  0.72221  1.0000
  H   H370      1.0  0.33997  0.01488  0.64722  1.0000
  C   C344      1.0  0.31799  0.02128  0.53925  1.0000
  H   H371      1.0  0.42967  0.21974  0.61085  1.0000
  H   H372      1.0  0.27151  0.08494  0.61589  1.0000
  C   C345      1.0  0.10225  0.04809  0.62316  1.0000
  H   H373      1.0  0.35482  0.20041  0.64128  1.0000
  H   H374      1.0  0.07410  0.22371  0.56176  1.0000
  N   N18       1.0  0.47667  0.99650  0.51635  1.0000
  C   C346      1.0  0.37208  0.22255  0.61627  1.0000
  C   C347      1.0  0.11870  0.04546  0.59860  1.0000
  H   H375      1.0  0.07457  0.01553  0.61274  1.0000
  C   C348      1.0  0.07209  0.03107  0.50071  1.0000
  C   C349      1.0  0.47733  0.98442  0.47879  1.0000
  H   H376      1.0  0.31112  0.00719  0.53671  1.0000
  C   C350      1.0  0.12385  0.04508  0.62678  1.0000
  C   C351      1.0  0.31534  0.99032  0.56535  1.0000
  C   C352      1.0  0.33037  0.22768  0.62220  1.0000
  C   C353      1.0  0.33256  0.02708  0.63906  1.0000
  H   H377      1.0  0.10329  0.21989  0.58388  1.0000
  H   H378      1.0  0.10648  0.98531  0.61267  1.0000
  N   N19       1.0  0.07195  0.24064  0.57971  1.0000
  H   H379      1.0  0.45769  0.17446  0.61621  1.0000
  N   N20       1.0  0.07590  0.05060  0.60555  1.0000
  H   H380      1.0  0.15506  0.03977  0.59436  1.0000
  H   H381      1.0  0.06199  0.07432  0.62015  1.0000
  C   C354      1.0  0.07034  0.04246  0.48687  1.0000
  C   C355      1.0  0.11948  0.98940  0.57662  1.0000
  H   H382      1.0  0.42643  0.20265  0.59026  1.0000
  S   S99       1.0  0.41823  0.01118  0.56044  1.0000
  S   S100      1.0  0.48360  0.00752  0.56120  1.0000
  H   H383      1.0  0.06258  0.09670  0.52519  1.0000
  H   H384      1.0  0.31550  0.23423  0.62965  1.0000
  C   C356      1.0  0.16283  0.22283  0.70726  1.0000
  H   H385      1.0  0.04486  0.07367  0.60737  1.0000
  H   H386      1.0  0.34806  0.05887  0.60728  1.0000
  S   S101      1.0  0.27035  0.02083  0.59595  1.0000
  H   H387      1.0  0.30403  0.04499  0.57899  1.0000
  H   H388      1.0  0.33763  0.22402  0.64834  1.0000
  N   N21       1.0  0.35188  0.23084  0.62607  1.0000
  H   H389      1.0  0.32936  0.20965  0.62275  1.0000
  H   H390      1.0  0.10208  0.24846  0.58521  1.0000
  H   H391      1.0  0.06130  0.03300  0.62581  1.0000
  C   C357      1.0  0.41322  0.21755  0.60911  1.0000
  H   H392      1.0  0.33883  0.29558  0.71239  1.0000
  C   C358      1.0  0.06127  0.23767  0.59486  1.0000
  H   H393      1.0  0.04577  0.25444  0.55745  1.0000
  H   H394      1.0  0.35101  0.98725  0.53241  1.0000
  H   H395      1.0  0.47212  0.09935  0.62082  1.0000
  H   H396      1.0  0.04795  0.22320  0.57418  1.0000
  C   C359      1.0  0.37088  0.21212  0.60453  1.0000
  H   H397      1.0  0.35512  0.20949  0.60209  1.0000
  S   S102      1.0  0.17764  0.10835  0.72147  1.0000
  H   H398      1.0  0.06001  0.03630  0.50956  1.0000
  C   C360      1.0  0.14323  0.22003  0.70286  1.0000
  S   S103      1.0  0.48325  0.20886  0.59467  1.0000
  H   H399      1.0  0.06486  0.25007  0.60080  1.0000
  C   C361      1.0  0.42952  0.09046  0.60596  1.0000
  S   S104      1.0  0.34967  0.30032  0.67892  1.0000
  H   H400      1.0  0.33525  0.26211  0.63278  1.0000
  H   H401      1.0  0.11214  0.98887  0.56737  1.0000
  N   N22       1.0  0.27411  0.05419  0.63106  1.0000
  C   C362      1.0  0.26589  0.06685  0.64310  1.0000
  C   C363      1.0  0.26618  0.06811  0.61808  1.0000
  C   C364      1.0  0.26353  0.03354  0.63404  1.0000
  C   C365      1.0  0.29896  0.04837  0.62955  1.0000
  C   C366      1.0  0.30916  0.03309  0.64034  1.0000
  C   C367      1.0  0.31371  0.05795  0.61770  1.0000
  H   H402      1.0  0.11753  0.10675  0.50682  1.0000
  C   C368      1.0  0.14228  0.99154  0.57501  1.0000
  H   H403      1.0  0.36458  0.03126  0.62594  1.0000
  H   H404      1.0  0.27315  0.08269  0.64123  1.0000
  H   H405      1.0  0.24725  0.07144  0.64470  1.0000
  H   H406      1.0  0.27028  0.05703  0.65337  1.0000
  C   C369      1.0  0.31013  0.00224  0.60661  1.0000
  H   H407      1.0  0.24749  0.07109  0.61917  1.0000
  H   H408      1.0  0.27241  0.05965  0.60856  1.0000
  H   H409      1.0  0.26577  0.02340  0.64460  1.0000
  H   H410      1.0  0.24498  0.03738  0.63411  1.0000
  H   H411      1.0  0.27068  0.02268  0.62578  1.0000
  H   H412      1.0  0.29911  0.02552  0.64981  1.0000
  H   H413      1.0  0.04743  0.99838  0.51675  1.0000
  Fe  Fe55      1.0  0.99577  0.19667  0.63643  1.0000
  C   C370      1.0  0.04314  0.11031  0.49367  1.0000
  C   C371      1.0  0.00581  0.99944  0.47758  1.0000
  C   C372      1.0  0.06267  0.07221  0.60892  1.0000
  H   H414      1.0  0.36515  0.25890  0.63037  1.0000
  H   H415      1.0  0.35108  0.26480  0.61505  1.0000
  C   C373      1.0  0.99163  0.28469  0.57466  1.0000
  N   N23       1.0  0.33916  0.01321  0.54534  1.0000
  H   H416      1.0  0.10544  0.24048  0.56788  1.0000
  H   H417      1.0  0.11146  0.04933  0.52818  1.0000
  C   C374      1.0  0.08136  0.09064  0.49031  1.0000
  C   C375      1.0  0.06299  0.09751  0.51387  1.0000
  C   C376      1.0  0.44983  0.08672  0.61120  1.0000
  H   H418      1.0  0.45519  0.00406  0.53578  1.0000
  H   H419      1.0  0.11705  0.16397  0.71421  1.0000
  C   C377      1.0  0.11995  0.06472  0.50132  1.0000
  H   H420      1.0  0.42531  0.07808  0.60066  1.0000
  H   H421      1.0  0.46445  0.12052  0.64091  1.0000
  H   H422      1.0  0.43955  0.16631  0.60619  1.0000
  H   H423      1.0  0.32073  0.03334  0.52915  1.0000
  H   H424      1.0  0.08639  0.04823  0.52151  1.0000
  C   C378      1.0  0.12921  0.20547  0.71141  1.0000
  H   H425      1.0  0.46131  0.07128  0.61001  1.0000
  H   H426      1.0  0.37187  0.99171  0.56140  1.0000
  H   H427      1.0  0.13444  0.05527  0.50649  1.0000
  H   H428      1.0  0.01798  0.00966  0.51962  1.0000
  C   C379      1.0  0.10318  0.01817  0.47740  1.0000
  H   H429      1.0  0.17422  0.23332  0.70032  1.0000
  H   H430      1.0  0.46842  0.15367  0.60493  1.0000
  N   N24       1.0  0.10262  0.07662  0.51141  1.0000
  C   C380      1.0  0.41514  0.11064  0.60681  1.0000
  H   H431      1.0  0.02902  0.11516  0.51517  1.0000
  H   H432      1.0  0.10124  0.10206  0.52429  1.0000
  C   C381      1.0  0.06197  0.10158  0.48474  1.0000
  H   H433      1.0  0.15227  0.99310  0.56448  1.0000
  C   C382      1.0  0.15219  0.99170  0.58692  1.0000
  H   H434      1.0  0.36357  0.02867  0.55216  1.0000
  C   C383      1.0  0.45504  0.00660  0.52407  1.0000
  H   H435      1.0  0.40889  0.03699  0.47443  1.0000
  H   H436      1.0  0.07776  0.28076  0.58606  1.0000
  C   C384      1.0  0.46743  0.13469  0.63209  1.0000
  S   S105      1.0  0.23441  0.98932  0.63270  1.0000
  C   C385      1.0  0.26883  0.18948  0.72249  1.0000
  C   C386      1.0  0.42098  0.12719  0.61294  1.0000
  C   C387      1.0  0.47116  0.02118  0.49294  1.0000
  H   H437      1.0  0.27237  0.25571  0.71329  1.0000
  H   H438      1.0  0.48312  0.12959  0.62478  1.0000
  C   C388      1.0  0.47030  0.02436  0.47832  1.0000
  C   C389      1.0  0.34724  0.03309  0.54807  1.0000
  C   C390      1.0  0.13928  0.98934  0.60052  1.0000
  Fe  Fe56      1.0  0.31677  0.31565  0.67129  1.0000
  S   S106      1.0  0.07739  0.98653  0.59208  1.0000
  H   H439      1.0  0.14679  0.98950  0.60977  1.0000
  C   C391      1.0  0.35540  0.98702  0.56552  1.0000
  H   H440      1.0  0.01820  0.30622  0.60185  1.0000
  H   H441      1.0  0.33488  0.04170  0.55602  1.0000
  H   H442      1.0  0.23386  0.09992  0.72166  1.0000
  H   H443      1.0  0.12846  0.08580  0.52061  1.0000
  S   S107      1.0  0.05385  0.98597  0.55577  1.0000
  H   H444      1.0  0.45126  0.02501  0.52066  1.0000
  C   C392      1.0  0.26496  0.25658  0.72434  1.0000
  H   H445      1.0  0.29981  0.99737  0.56133  1.0000
  C   C393      1.0  0.35596  0.00280  0.53436  1.0000
  H   H446      1.0  0.35806  0.01443  0.52402  1.0000
  C   C394      1.0  0.48075  0.11446  0.57514  1.0000
  H   H447      1.0  0.48539  0.29789  0.59475  1.0000
  C   C395      1.0  0.06114  0.30430  0.57085  1.0000
  H   H448      1.0  0.18384  0.21326  0.72354  1.0000
  H   H449      1.0  0.46835  0.03597  0.49793  1.0000
  C   C396      1.0  0.16825  0.21144  0.72036  1.0000
  S   S108      1.0  0.99931  0.24069  0.58663  1.0000
  C   C397      1.0  0.11643  0.98706  0.60214  1.0000
  C   C398      1.0  0.33647  0.99686  0.55870  1.0000
  C   C399      1.0  0.99291  0.30759  0.57319  1.0000
  H   H450      1.0  0.02985  0.98814  0.53257  1.0000
  C   C400      1.0  0.04534  0.99095  0.48948  1.0000
  C   C401      1.0  0.00271  0.31542  0.58288  1.0000
  Fe  Fe57      1.0  0.49077  0.20025  0.61713  1.0000
  H   H451      1.0  0.06099  0.98860  0.49364  1.0000
  Fe  Fe58      1.0  0.16731  0.12396  0.82464  1.0000
  S   S109      1.0  0.17157  0.10643  0.80563  1.0000
  S   S110      1.0  0.13750  0.12690  0.84233  1.0000
  Fe  Fe59      1.0  0.21595  0.13193  0.81896  1.0000
  S   S111      1.0  0.22464  0.11481  0.79975  1.0000
  S   S112      1.0  0.24020  0.14666  0.82805  1.0000
  Fe  Fe60      1.0  0.19158  0.13368  0.79417  1.0000
  S   S113      1.0  0.19164  0.15384  0.77204  1.0000
  Fe  Fe61      1.0  0.20429  0.08881  0.81276  1.0000
  S   S114      1.0  0.21626  0.05211  0.81090  1.0000
  S   S115      1.0  0.18436  0.15280  0.81258  1.0000
  S   S116      1.0  0.19859  0.10433  0.83252  1.0000
  H   H452      1.0  0.11092  0.14552  0.73069  1.0000
  H   H453      1.0  0.09005  0.28952  0.87864  1.0000
  H   H454      1.0  0.28340  0.22379  0.75738  1.0000
  C   C402      1.0  0.33987  0.25900  0.84668  1.0000
  H   H455      1.0  0.31923  0.18412  0.76951  1.0000
  S   S117      1.0  0.44586  0.25043  0.84952  1.0000
  C   C403      1.0  0.07792  0.28767  0.88831  1.0000
  C   C404      1.0  0.25008  0.18135  0.73095  1.0000
  H   H456      1.0  0.35387  0.25057  0.83948  1.0000
  N   N25       1.0  0.27115  0.28701  0.75394  1.0000
  Fe  Fe62      1.0  0.31414  0.27964  0.81198  1.0000
  S   S118      1.0  0.35119  0.27723  0.80368  1.0000
  C   C405      1.0  0.07738  0.30080  0.89884  1.0000
  Fe  Fe63      1.0  0.30799  0.24252  0.79648  1.0000
  S   S119      1.0  0.34472  0.23644  0.78749  1.0000
  S   S120      1.0  0.28294  0.22743  0.78806  1.0000
  Fe  Fe64      1.0  0.35113  0.24005  0.80909  1.0000
  S   S121      1.0  0.37653  0.21534  0.82084  1.0000
  Fe  Fe65      1.0  0.34162  0.27387  0.78281  1.0000
  H   H457      1.0  0.36685  0.30166  0.86596  1.0000
  S   S122      1.0  0.31440  0.24253  0.81861  1.0000
  S   S123      1.0  0.30455  0.27986  0.79073  1.0000
  Fe  Fe66      1.0  0.03360  0.21455  0.86063  1.0000
  S   S124      1.0  0.03772  0.19932  0.88314  1.0000
  S   S125      1.0  0.06007  0.21072  0.84113  1.0000
  C   C406      1.0  0.46710  0.22880  0.80140  1.0000
  Fe  Fe67      1.0  0.02069  0.23272  0.88885  1.0000
  S   S126      1.0  0.02846  0.24968  0.90593  1.0000
  H   H458      1.0  0.03384  0.31152  0.87881  1.0000
  S   S127      1.0  0.01934  0.24874  0.86613  1.0000
  H   H459      1.0  0.12343  0.16090  0.81900  1.0000
  H   H460      1.0  0.23870  0.25796  0.76392  1.0000
  C   C407      1.0  0.04674  0.28260  0.91327  1.0000
  C   C408      1.0  0.04734  0.26939  0.90280  1.0000
  C   C409      1.0  0.06286  0.27212  0.89022  1.0000
  H   H461      1.0  0.31302  0.22290  0.75653  1.0000
  H   H462      1.0  0.03478  0.28059  0.92302  1.0000
  H   H463      1.0  0.39690  0.28853  0.88052  1.0000
  C   C410      1.0  0.35086  0.25751  0.74791  1.0000
  C   C411      1.0  0.44205  0.31381  0.88512  1.0000
  H   H464      1.0  0.28103  0.31123  0.73540  1.0000
  H   H465      1.0  0.06349  0.26202  0.88209  1.0000
  H   H466      1.0  0.35438  0.24680  0.75768  1.0000
  C   C412      1.0  0.42785  0.23978  0.84107  1.0000
  C   C413      1.0  0.42531  0.21715  0.84386  1.0000
  C   C414      1.0  0.40951  0.20979  0.83760  1.0000
  C   C415      1.0  0.39650  0.22492  0.82836  1.0000
  C   C416      1.0  0.39964  0.24735  0.82525  1.0000
  C   C417      1.0  0.41508  0.25478  0.83169  1.0000
  H   H467      1.0  0.43503  0.20548  0.85111  1.0000
  H   H468      1.0  0.40726  0.19236  0.83997  1.0000
  H   H469      1.0  0.39021  0.25897  0.81786  1.0000
  H   H470      1.0  0.41715  0.27226  0.82940  1.0000
  C   C418      1.0  0.30437  0.18179  0.76509  1.0000
  C   C419      1.0  0.23497  0.09807  0.73291  1.0000
  C   C420      1.0  0.03664  0.08687  0.86978  1.0000
  H   H471      1.0  0.47827  0.17861  0.83533  1.0000
  C   C421      1.0  0.24812  0.24389  0.73099  1.0000
  H   H472      1.0  0.14920  0.30486  0.88311  1.0000
  H   H473      1.0  0.32901  0.20015  0.73158  1.0000
  C   C422      1.0  0.25173  0.16928  0.81692  1.0000
  C   C423      1.0  0.24468  0.17833  0.80378  1.0000
  C   C424      1.0  0.25409  0.19644  0.79511  1.0000
  C   C425      1.0  0.27072  0.20544  0.79948  1.0000
  C   C426      1.0  0.27769  0.19645  0.81263  1.0000
  C   C427      1.0  0.26815  0.17846  0.82135  1.0000
  H   H474      1.0  0.23197  0.17138  0.80032  1.0000
  H   H475      1.0  0.24850  0.20343  0.78500  1.0000
  H   H476      1.0  0.29057  0.20320  0.81604  1.0000
  H   H477      1.0  0.27369  0.17148  0.83149  1.0000
  C   C428      1.0  0.18741  0.14091  0.75824  1.0000
  C   C429      1.0  0.17775  0.12129  0.76108  1.0000
  C   C430      1.0  0.17458  0.11143  0.74974  1.0000
  H   H478      1.0  0.15971  0.18846  0.73896  1.0000
  C   C431      1.0  0.09624  0.18751  0.73549  1.0000
  C   C432      1.0  0.19358  0.15077  0.74408  1.0000
  H   H479      1.0  0.17250  0.11395  0.77200  1.0000
  H   H480      1.0  0.16701  0.09631  0.75192  1.0000
  H   H481      1.0  0.24019  0.29437  0.76829  1.0000
  H   H482      1.0  0.20088  0.16604  0.74182  1.0000
  C   C433      1.0  0.21895  0.03147  0.82623  1.0000
  C   C434      1.0  0.21555  0.03723  0.83987  1.0000
  C   C435      1.0  0.21801  0.02045  0.85183  1.0000
  C   C436      1.0  0.24248  0.11471  0.73796  1.0000
  Fe  Fe68      1.0  0.00273  0.19121  0.88488  1.0000
  C   C437      1.0  0.22481  0.00878  0.82467  1.0000
  H   H483      1.0  0.21105  0.05460  0.84123  1.0000
  H   H484      1.0  0.21530  0.02509  0.86234  1.0000
  H   H485      1.0  0.28972  0.18786  0.77282  1.0000
  H   H486      1.0  0.22747  0.00415  0.81417  1.0000
  C   C438      1.0  0.11719  0.15116  0.84180  1.0000
  C   C439      1.0  0.10389  0.15622  0.85459  1.0000
  C   C440      1.0  0.08646  0.17458  0.85450  1.0000
  C   C441      1.0  0.08207  0.18783  0.84160  1.0000
  C   C442      1.0  0.09562  0.18298  0.82882  1.0000
  C   C443      1.0  0.11325  0.16474  0.82891  1.0000
  H   H487      1.0  0.10707  0.14588  0.86459  1.0000
  H   H488      1.0  0.07650  0.17855  0.86442  1.0000
  H   H489      1.0  0.09240  0.19330  0.81881  1.0000
  C   C444      1.0  0.37489  0.24589  0.86375  1.0000
  N   N26       1.0  0.17959  0.17257  0.85717  1.0000
  C   C445      1.0  0.17811  0.15056  0.85359  1.0000
  C   C446      1.0  0.19809  0.18232  0.84704  1.0000
  C   C447      1.0  0.18593  0.16851  0.87166  1.0000
  C   C448      1.0  0.15789  0.18759  0.85599  1.0000
  C   C449      1.0  0.15072  0.19496  0.84250  1.0000
  C   C450      1.0  0.14312  0.19494  0.86801  1.0000
  C   C451      1.0  0.13041  0.20926  0.84106  1.0000
  C   C452      1.0  0.12269  0.20904  0.86645  1.0000
  C   C453      1.0  0.02796  0.10999  0.86664  1.0000
  H   H490      1.0  0.17397  0.15211  0.84273  1.0000
  H   H491      1.0  0.19431  0.13887  0.85390  1.0000
  H   H492      1.0  0.16458  0.14243  0.86100  1.0000
  H   H493      1.0  0.19703  0.18202  0.83572  1.0000
  H   H494      1.0  0.21496  0.17271  0.84869  1.0000
  H   H495      1.0  0.19815  0.19995  0.84821  1.0000
  H   H496      1.0  0.17370  0.15950  0.87968  1.0000
  H   H497      1.0  0.20263  0.15768  0.87202  1.0000
  H   H498      1.0  0.18713  0.18449  0.87507  1.0000
  H   H499      1.0  0.16056  0.18935  0.83296  1.0000
  H   H500      1.0  0.14680  0.18987  0.87874  1.0000
  C   C454      1.0  0.12188  0.15808  0.72501  1.0000
  H   H501      1.0  0.11146  0.21421  0.87574  1.0000
  H   H502      1.0  0.23671  0.17812  0.72596  1.0000
  H   H503      1.0  0.24782  0.12636  0.75649  1.0000
  C   C455      1.0  0.39051  0.27668  0.87592  1.0000
  H   H504      1.0  0.30242  0.29049  0.76004  1.0000
  C   C456      1.0  0.22713  0.99196  0.83666  1.0000
  C   C457      1.0  0.16590  0.31068  0.87938  1.0000
  C   C458      1.0  0.29140  0.99317  0.86532  1.0000
  H   H505      1.0  0.12510  0.21440  0.83068  1.0000
  C   C459      1.0  0.43206  0.22052  0.79696  1.0000
  H   H506      1.0  0.42307  0.18861  0.80721  1.0000
  N   N27       1.0  0.04342  0.12691  0.86255  1.0000
  H   H507      1.0  0.23354  0.17185  0.75237  1.0000
  C   C460      1.0  0.25843  0.28834  0.76852  1.0000
  C   C461      1.0  0.03192  0.14991  0.85794  1.0000
  C   C462      1.0  0.23901  0.24460  0.74525  1.0000
  C   C463      1.0  0.15425  0.19699  0.72908  1.0000
  H   H508      1.0  0.41376  0.24865  0.88414  1.0000
  H   H509      1.0  0.12604  0.18006  0.75388  1.0000
  C   C464      1.0  0.99388  0.29113  0.88707  1.0000
  H   H510      1.0  0.01712  0.30290  0.86132  1.0000
  C   C465      1.0  0.39993  0.25417  0.87810  1.0000
  H   H511      1.0  0.34665  0.31211  0.73223  1.0000
  H   H512      1.0  0.44702  0.29503  0.85363  1.0000
  H   H513      1.0  0.02284  0.15051  0.84888  1.0000
  C   C466      1.0  0.47438  0.28697  0.91811  1.0000
  C   C467      1.0  0.26308  0.27204  0.74629  1.0000
  H   H514      1.0  0.28581  0.27960  0.72622  1.0000
  H   H515      1.0  0.04396  0.16218  0.85435  1.0000
  H   H516      1.0  0.07326  0.10578  0.85367  1.0000
  H   H517      1.0  0.05455  0.08121  0.86915  1.0000
  C   C468      1.0  0.05413  0.12742  0.87502  1.0000
  H   H518      1.0  0.26307  0.17910  0.76368  1.0000
  H   H519      1.0  0.31269  0.29397  0.85433  1.0000
  H   H520      1.0  0.46541  0.28847  0.87505  1.0000
  N   N28       1.0  0.22047  0.05805  0.76766  1.0000
  C   C469      1.0  0.21404  0.04082  0.76094  1.0000
  C   C470      1.0  0.23885  0.04687  0.77585  1.0000
  C   C471      1.0  0.20057  0.06607  0.77776  1.0000
  C   C472      1.0  0.22796  0.07730  0.75727  1.0000
  C   C473      1.0  0.22771  0.07964  0.74237  1.0000
  C   C474      1.0  0.23559  0.09466  0.76202  1.0000
  H   H521      1.0  0.08528  0.17598  0.74258  1.0000
  C   C475      1.0  0.28534  0.18966  0.74382  1.0000
  N   N29       1.0  0.12013  0.17675  0.73308  1.0000
  H   H522      1.0  0.29718  0.26214  0.76225  1.0000
  H   H523      1.0  0.20883  0.02648  0.76906  1.0000
  H   H524      1.0  0.22836  0.03381  0.75331  1.0000
  H   H525      1.0  0.25449  0.04139  0.76864  1.0000
  H   H526      1.0  0.23401  0.03193  0.78355  1.0000
  H   H527      1.0  0.24308  0.05794  0.78251  1.0000
  H   H528      1.0  0.18616  0.07404  0.77213  1.0000
  H   H529      1.0  0.19486  0.05213  0.78604  1.0000
  H   H530      1.0  0.20414  0.07853  0.78368  1.0000
  H   H531      1.0  0.14388  0.15704  0.74627  1.0000
  H   H532      1.0  0.23570  0.09435  0.77322  1.0000
  H   H533      1.0  0.06501  0.14068  0.87279  1.0000
  C   C476      1.0  0.39202  0.23881  0.87212  1.0000
  H   H534      1.0  0.99583  0.13300  0.86685  1.0000
  C   C477      1.0  0.34681  0.29423  0.73345  1.0000
  H   H535      1.0  0.30561  0.27712  0.74487  1.0000
  C   C478      1.0  0.24631  0.25841  0.75287  1.0000
  C   C479      1.0  0.24271  0.11305  0.75250  1.0000
  S   S128      1.0  0.47270  0.23107  0.88475  1.0000
  H   H536      1.0  0.34721  0.23031  0.73785  1.0000
  H   H537      1.0  0.32607  0.26570  0.84025  1.0000
  C   C480      1.0  0.47120  0.20772  0.81026  1.0000
  C   C481      1.0  0.18118  0.12110  0.73557  1.0000
  S   S129      1.0  0.35318  0.29285  0.76103  1.0000
  H   H538      1.0  0.39982  0.22140  0.87356  1.0000
  S   S130      1.0  0.99965  0.20443  0.86183  1.0000
  N   N30       1.0  0.34707  0.27704  0.85226  1.0000
  C   C482      1.0  0.35530  0.29332  0.83985  1.0000
  H   H539      1.0  0.32072  0.27703  0.87043  1.0000
  C   C483      1.0  0.32682  0.28842  0.86064  1.0000
  H   H540      1.0  0.46465  0.27813  0.92725  1.0000
  H   H541      1.0  0.02937  0.05307  0.87654  1.0000
  C   C484      1.0  0.48631  0.27537  0.90711  1.0000
  C   C485      1.0  0.13439  0.19329  0.72474  1.0000
  H   H542      1.0  0.22618  0.23437  0.75044  1.0000
  H   H543      1.0  0.07189  0.13452  0.84643  1.0000
  H   H544      1.0  0.24222  0.23337  0.72509  1.0000
  H   H545      1.0  0.45629  0.17694  0.81864  1.0000
  H   H546      1.0  0.34019  0.18955  0.74747  1.0000
  C   C486      1.0  0.27242  0.27040  0.73184  1.0000
  H   H547      1.0  0.33331  0.24617  0.85544  1.0000
  H   H548      1.0  0.24741  0.12927  0.73062  1.0000
  C   C487      1.0  0.26564  0.18194  0.75216  1.0000
  C   C488      1.0  0.43574  0.19956  0.80536  1.0000
  H   H549      1.0  0.17870  0.29821  0.88464  1.0000
  H   H550      1.0  0.22142  0.06784  0.73772  1.0000
  C   C489      1.0  0.32619  0.18847  0.74183  1.0000
  C   C490      1.0  0.44025  0.30482  0.86211  1.0000
  C   C491      1.0  0.99909  0.07690  0.87558  1.0000
  C   C492      1.0  0.28600  0.19406  0.72877  1.0000
  N   N31       1.0  0.30370  0.19439  0.75039  1.0000
  H   H551      1.0  0.47865  0.24077  0.79962  1.0000
  H   H552      1.0  0.10029  0.22672  0.85187  1.0000
  H   H553      1.0  0.09452  0.20274  0.74051  1.0000
  S   S131      1.0  0.29444  0.30170  0.82772  1.0000
  C   C493      1.0  0.30015  0.21859  0.75114  1.0000
  H   H554      1.0  0.30105  0.22893  0.74033  1.0000
  C   C494      1.0  0.11639  0.21623  0.85301  1.0000
  C   C495      1.0  0.26939  0.31011  0.74575  1.0000
  C   C496      1.0  0.35056  0.28061  0.74645  1.0000
  H   H555      1.0  0.04118  0.13091  0.88442  1.0000
  H   H556      1.0  0.41671  0.22564  0.79232  1.0000
  Fe  Fe69      1.0  0.47287  0.22955  0.86169  1.0000
  H   H557      1.0  0.48588  0.25768  0.90785  1.0000
  H   H558      1.0  0.06483  0.11128  0.87828  1.0000
  H   H559      1.0  0.11532  0.15496  0.75345  1.0000
  H   H560      1.0  0.34319  0.29825  0.83212  1.0000
  C   C497      1.0  0.44775  0.23508  0.79494  1.0000
  C   C498      1.0  0.34678  0.24818  0.73665  1.0000
  C   C499      1.0  0.19068  0.14081  0.73279  1.0000
  C   C500      1.0  0.45494  0.19315  0.81198  1.0000
  H   H561      1.0  0.01204  0.28407  0.88556  1.0000
  H   H562      1.0  0.05381  0.11836  0.84147  1.0000
  S   S132      1.0  0.99955  0.15546  0.89551  1.0000
  H   H563      1.0  0.30439  0.99548  0.85565  1.0000
  C   C501      1.0  0.12664  0.16690  0.74729  1.0000
  H   H564      1.0  0.27451  0.99791  0.86181  1.0000
  H   H565      1.0  0.99159  0.11037  0.90502  1.0000
  H   H566      1.0  0.30496  0.16352  0.76542  1.0000
  C   C502      1.0  0.22370  0.99777  0.85029  1.0000
  C   C503      1.0  0.29506  0.27881  0.75534  1.0000
  H   H567      1.0  0.26043  0.27183  0.77566  1.0000
  C   C504      1.0  0.02237  0.07063  0.87412  1.0000
  H   H568      1.0  0.44465  0.25149  0.78853  1.0000
  C   C505      1.0  0.99874  0.30928  0.86255  1.0000
  H   H569      1.0  0.19941  0.04778  0.75523  1.0000
  C   C506      1.0  0.45054  0.30110  0.87421  1.0000
  S   S133      1.0  0.48791  0.19320  0.86352  1.0000
  H   H570      1.0  0.01982  0.15641  0.86684  1.0000
  H   H571      1.0  0.32996  0.30378  0.86392  1.0000
  C   C507      1.0  0.06156  0.29836  0.91127  1.0000
  H   H572      1.0  0.37160  0.28610  0.83399  1.0000
  H   H573      1.0  0.08898  0.19260  0.72542  1.0000
  H   H574      1.0  0.31141  0.98875  0.89142  1.0000
  C   C508      1.0  0.06128  0.12105  0.85056  1.0000
  C   C509      1.0  0.24838  0.17780  0.74576  1.0000
  H   H575      1.0  0.32845  0.17112  0.73944  1.0000
  H   H576      1.0  0.47685  0.12558  0.92185  1.0000
  H   H577      1.0  0.99690  0.02270  0.95074  1.0000
  H   H578      1.0  0.06093  0.30838  0.91945  1.0000
  H   H579      1.0  0.29251  0.00545  0.87215  1.0000
  C   C510      1.0  0.47520  0.30982  0.91741  1.0000
  C   C511      1.0  0.00410  0.11584  0.86839  1.0000
  C   C512      1.0  0.36497  0.26879  0.86125  1.0000
  H   H580      1.0  0.47598  0.21916  0.83483  1.0000
  H   H581      1.0  0.37020  0.23313  0.85907  1.0000
  S   S134      1.0  0.48168  0.16824  0.90428  1.0000
  H   H582      1.0  0.00723  0.00687  0.97236  1.0000
  H   H583      1.0  0.45103  0.31064  0.89407  1.0000
  H   H584      1.0  0.35778  0.30909  0.84296  1.0000
  H   H585      1.0  0.16989  0.31020  0.86774  1.0000
  C   C513      1.0  0.37333  0.28398  0.86759  1.0000
  H   H586      1.0  0.26470  0.30006  0.77382  1.0000
  S   S135      1.0  0.49054  0.98670  0.94591  1.0000
  H   H587      1.0  0.49002  0.99898  0.97298  1.0000
  H   H588      1.0  0.15111  0.36958  0.16725  1.0000
  Fe  Fe70      1.0  0.18782  0.59074  0.17043  1.0000
  S   S136      1.0  0.19380  0.62015  0.15332  1.0000
  S   S137      1.0  0.19814  0.55349  0.16918  1.0000
  Fe  Fe71      1.0  0.16763  0.62114  0.19282  1.0000
  H   H589      1.0  0.09890  0.33354  0.01228  1.0000
  C   C514      1.0  0.25200  0.63891  0.22397  1.0000
  H   H590      1.0  0.01200  0.43284  0.07064  1.0000
  H   H591      1.0  0.10170  0.34091  0.03467  1.0000
  H   H592      1.0  0.11696  0.37660  0.08215  1.0000
  C   C515      1.0  0.22661  0.63868  0.20756  1.0000
  S   S138      1.0  0.15221  0.60549  0.17831  1.0000
  S   S139      1.0  0.20270  0.60430  0.18610  1.0000
  C   C516      1.0  0.46278  0.59959  0.08641  1.0000
  Fe  Fe72      1.0  0.42693  0.37313  0.07743  1.0000
  S   S140      1.0  0.39783  0.37829  0.06543  1.0000
  S   S141      1.0  0.42588  0.34655  0.09710  1.0000
  Fe  Fe73      1.0  0.44895  0.41063  0.05739  1.0000
  S   S142      1.0  0.42130  0.41912  0.04399  1.0000
  S   S143      1.0  0.48188  0.42434  0.05061  1.0000
  Fe  Fe74      1.0  0.39782  0.41482  0.06503  1.0000
  S   S144      1.0  0.36597  0.43910  0.07042  1.0000
  Fe  Fe75      1.0  0.42366  0.38192  0.04564  1.0000
  S   S145      1.0  0.42773  0.36173  0.02785  1.0000
  S   S146      1.0  0.42553  0.40960  0.07830  1.0000
  S   S147      1.0  0.45274  0.37354  0.05774  1.0000
  Fe  Fe76      1.0  0.08180  0.38906  0.03232  1.0000
  S   S148      1.0  0.05105  0.37290  0.04136  1.0000
  S   S149      1.0  0.10257  0.38491  0.01077  1.0000
  Fe  Fe77      1.0  0.07989  0.41007  0.05896  1.0000
  S   S150      1.0  0.04875  0.39565  0.06993  1.0000
  S   S151      1.0  0.09217  0.43154  0.07165  1.0000
  Fe  Fe78      1.0  0.06592  0.36412  0.06169  1.0000
  Fe  Fe79      1.0  0.03686  0.40601  0.04868  1.0000
  C   C517      1.0  0.13311  0.44644  0.14450  1.0000
  S   S152      1.0  0.09795  0.37789  0.05211  1.0000
  S   S153      1.0  0.06670  0.42283  0.03823  1.0000
  Fe  Fe80      1.0  0.20959  0.46524  0.11689  1.0000
  S   S154      1.0  0.23057  0.45142  0.09774  1.0000
  S   S155      1.0  0.20052  0.50283  0.11694  1.0000
  Fe  Fe81      1.0  0.19928  0.41949  0.13214  1.0000
  S   S156      1.0  0.21928  0.40199  0.11455  1.0000
  S   S157      1.0  0.17780  0.40278  0.15147  1.0000
  Fe  Fe82      1.0  0.24516  0.42402  0.11384  1.0000
  S   S158      1.0  0.28070  0.40490  0.11104  1.0000
  Fe  Fe83      1.0  0.20343  0.43031  0.09963  1.0000
  S   S159      1.0  0.19426  0.42012  0.08038  1.0000
  S   S160      1.0  0.22636  0.43934  0.13300  1.0000
  S   S161      1.0  0.18122  0.44628  0.11723  1.0000
  C   C518      1.0  0.07459  0.61994  0.12541  1.0000
  H   H593      1.0  0.02337  0.64692  0.11766  1.0000
  C   C519      1.0  0.15127  0.38777  0.11248  1.0000
  C   C520      1.0  0.00727  0.42794  0.97907  1.0000
  H   H594      1.0  0.47793  0.63993  0.10141  1.0000
  H   H595      1.0  0.11691  0.47671  0.10805  1.0000
  H   H596      1.0  0.13794  0.43702  0.15438  1.0000
  C   C521      1.0  0.07071  0.61009  0.14000  1.0000
  C   C522      1.0  0.12076  0.42883  0.07345  1.0000
  C   C523      1.0  0.13750  0.41475  0.06601  1.0000
  C   C524      1.0  0.16001  0.41239  0.06814  1.0000
  C   C525      1.0  0.16589  0.42389  0.07782  1.0000
  C   C526      1.0  0.14915  0.43804  0.08522  1.0000
  C   C527      1.0  0.12668  0.44059  0.08297  1.0000
  H   H597      1.0  0.13313  0.40579  0.05855  1.0000
  H   H598      1.0  0.17291  0.40153  0.06232  1.0000
  H   H599      1.0  0.15356  0.44717  0.09257  1.0000
  H   H600      1.0  0.11379  0.45164  0.08865  1.0000
  C   C528      1.0  0.06928  0.37113  0.00018  1.0000
  C   C529      1.0  0.09042  0.37814  0.99725  1.0000
  C   C530      1.0  0.10274  0.37864  0.98344  1.0000
  H   H601      1.0  0.05962  0.37072  0.01076  1.0000
  C   C531      1.0  0.47047  0.48331  0.06575  1.0000
  C   C532      1.0  0.16770  0.36102  0.16365  1.0000
  C   C533      1.0  0.18419  0.37340  0.15553  1.0000
  C   C534      1.0  0.20550  0.36222  0.15077  1.0000
  C   C535      1.0  0.21046  0.33885  0.15439  1.0000
  H   H602      1.0  0.21831  0.37161  0.14449  1.0000
  H   H603      1.0  0.12417  0.32094  0.10514  1.0000
  C   C536      1.0  0.34148  0.42949  0.08071  1.0000
  C   C537      1.0  0.33991  0.40666  0.08419  1.0000
  C   C538      1.0  0.32082  0.39944  0.09311  1.0000
  C   C539      1.0  0.30298  0.41495  0.09850  1.0000
  C   C540      1.0  0.30401  0.43785  0.09450  1.0000
  C   C541      1.0  0.32326  0.44508  0.08567  1.0000
  H   H604      1.0  0.35352  0.39449  0.08019  1.0000
  H   H605      1.0  0.32003  0.38169  0.09600  1.0000
  H   H606      1.0  0.29035  0.44996  0.09861  1.0000
  H   H607      1.0  0.32424  0.46280  0.08290  1.0000
  H   H608      1.0  0.13078  0.39448  0.09640  1.0000
  H   H609      1.0  0.10295  0.64758  0.16828  1.0000
  C   C542      1.0  0.41202  0.41029  0.99488  1.0000
  C   C543      1.0  0.41467  0.39899  0.00867  1.0000
  C   C544      1.0  0.42476  0.37657  0.01066  1.0000
  C   C545      1.0  0.43258  0.36565  0.99878  1.0000
  C   C546      1.0  0.43029  0.37708  0.98496  1.0000
  H   H610      1.0  0.40381  0.42751  0.99343  1.0000
  H   H611      1.0  0.40851  0.40752  0.01776  1.0000
  H   H612      1.0  0.44036  0.34828  0.00026  1.0000
  H   H613      1.0  0.41275  0.63474  0.09321  1.0000
  H   H614      1.0  0.04476  0.35809  0.99192  1.0000
  S   S162      1.0  0.07185  0.33134  0.07668  1.0000
  C   C547      1.0  0.45655  0.56833  0.07543  1.0000
  C   C548      1.0  0.19912  0.53998  0.15435  1.0000
  C   C549      1.0  0.20752  0.51696  0.15537  1.0000
  C   C550      1.0  0.20849  0.50545  0.14392  1.0000
  C   C551      1.0  0.20082  0.51681  0.13136  1.0000
  C   C552      1.0  0.19235  0.53982  0.13034  1.0000
  C   C553      1.0  0.19152  0.55138  0.14176  1.0000
  H   H615      1.0  0.21353  0.50804  0.16504  1.0000
  H   H616      1.0  0.21528  0.48782  0.14480  1.0000
  H   H617      1.0  0.18641  0.54877  0.12065  1.0000
  H   H618      1.0  0.18504  0.56908  0.14083  1.0000
  H   H619      1.0  0.09186  0.33680  0.12125  1.0000
  H   H620      1.0  0.18294  0.34610  0.19226  1.0000
  C   C554      1.0  0.08804  0.60472  0.14827  1.0000
  H   H621      1.0  0.22841  0.35138  0.21049  1.0000
  C   C555      1.0  0.08869  0.35131  0.11271  1.0000
  C   C556      1.0  0.48545  0.44857  0.05656  1.0000
  H   H622      1.0  0.07535  0.62633  0.09591  1.0000
  H   H623      1.0  0.25332  0.60007  0.20274  1.0000
  C   C557      1.0  0.99386  0.52114  0.04168  1.0000
  C   C558      1.0  0.46703  0.46333  0.06198  1.0000
  C   C559      1.0  0.13551  0.46940  0.14035  1.0000
  N   N32       1.0  0.47289  0.57861  0.08076  1.0000
  H   H624      1.0  0.11918  0.38389  0.98114  1.0000
  H   H625      1.0  0.45013  0.45953  0.06305  1.0000
  H   H626      1.0  0.44281  0.56332  0.08411  1.0000
  C   C560      1.0  0.99449  0.53549  0.01030  1.0000
  H   H627      1.0  0.07166  0.32649  0.01983  1.0000
  H   H628      1.0  0.13067  0.49742  0.12275  1.0000
  C   C561      1.0  0.03739  0.64137  0.12402  1.0000
  H   H629      1.0  0.22498  0.63595  0.19675  1.0000
  N   N33       1.0  0.36824  0.39849  0.12069  1.0000
  C   C562      1.0  0.35185  0.41958  0.12039  1.0000
  C   C563      1.0  0.38060  0.39657  0.13278  1.0000
  C   C564      1.0  0.38447  0.40063  0.10719  1.0000
  C   C565      1.0  0.35758  0.37818  0.12228  1.0000
  C   C566      1.0  0.37109  0.35693  0.12153  1.0000
  C   C567      1.0  0.33383  0.37867  0.12488  1.0000
  C   C568      1.0  0.36147  0.33756  0.12279  1.0000
  C   C569      1.0  0.32437  0.35920  0.12610  1.0000
  C   C570      1.0  0.33814  0.33871  0.12501  1.0000
  H   H630      1.0  0.33998  0.41998  0.13060  1.0000
  H   H631      1.0  0.36037  0.43463  0.11861  1.0000
  H   H632      1.0  0.34191  0.42183  0.11154  1.0000
  H   H633      1.0  0.36910  0.39438  0.14316  1.0000
  H   H634      1.0  0.38856  0.41172  0.13213  1.0000
  H   H635      1.0  0.39439  0.38199  0.13302  1.0000
  H   H636      1.0  0.37637  0.40005  0.09792  1.0000
  H   H637      1.0  0.39137  0.41671  0.10501  1.0000
  H   H638      1.0  0.39927  0.38711  0.10725  1.0000
  H   H639      1.0  0.38926  0.35512  0.11987  1.0000
  H   H640      1.0  0.32205  0.39394  0.12567  1.0000
  C   C571      1.0  0.42354  0.32006  0.06369  1.0000
  H   H641      1.0  0.30617  0.36021  0.12764  1.0000
  H   H642      1.0  0.33071  0.32371  0.12585  1.0000
  H   H643      1.0  0.17102  0.37723  0.12938  1.0000
  H   H644      1.0  0.15974  0.32812  0.17326  1.0000
  H   H645      1.0  0.47178  0.40282  0.02778  1.0000
  C   C572      1.0  0.01810  0.48857  0.03375  1.0000
  C   C573      1.0  0.00117  0.50735  0.03096  1.0000
  C   C574      1.0  0.01635  0.41629  0.99138  1.0000
  H   H646      1.0  0.08454  0.59794  0.15951  1.0000
  H   H647      1.0  0.02442  0.47671  0.02649  1.0000
  H   H648      1.0  0.42778  0.60064  0.08339  1.0000
  C   C575      1.0  0.21142  0.35113  0.20798  1.0000
  C   C576      1.0  0.12559  0.36257  0.11027  1.0000
  H   H649      1.0  0.01267  0.53721  0.00800  1.0000
  C   C577      1.0  0.12122  0.46836  0.11834  1.0000
  H   H650      1.0  0.22713  0.33034  0.15088  1.0000
  H   H651      1.0  0.43615  0.36848  0.97587  1.0000
  H   H652      1.0  0.01929  0.49717  0.00400  1.0000
  H   H653      1.0  0.11369  0.43662  0.11583  1.0000
  H   H654      1.0  0.02619  0.49422  0.06671  1.0000
  C   C578      1.0  0.14911  0.35358  0.12927  1.0000
  C   C579      1.0  0.13517  0.38262  0.10555  1.0000
  H   H655      1.0  0.24432  0.32527  0.19291  1.0000
  H   H656      1.0  0.07739  0.32952  0.04492  1.0000
  H   H657      1.0  0.03057  0.40308  0.99060  1.0000
  H   H658      1.0  0.27167  0.59997  0.21538  1.0000
  C   C580      1.0  0.06089  0.36399  0.98949  1.0000
  H   H659      1.0  0.05413  0.60689  0.14523  1.0000
  H   H660      1.0  0.12680  0.33252  0.12652  1.0000
  C   C581      1.0  0.06234  0.63732  0.10217  1.0000
  H   H661      1.0  0.22421  0.34157  0.18202  1.0000
  H   H662      1.0  0.99659  0.52685  0.06259  1.0000
  C   C582      1.0  0.11422  0.61805  0.12791  1.0000
  H   H663      1.0  0.15476  0.34229  0.13843  1.0000
  C   C583      1.0  0.02716  0.48419  0.04644  1.0000
  H   H664      1.0  0.09448  0.38944  0.09441  1.0000
  H   H665      1.0  0.47142  0.34237  0.08158  1.0000
  C   C584      1.0  0.41979  0.39937  0.98301  1.0000
  C   C585      1.0  0.04685  0.60550  0.11612  1.0000
  H   H666      1.0  0.48930  0.50088  0.01528  1.0000
  C   C586      1.0  0.18717  0.33098  0.20022  1.0000
  C   C587      1.0  0.17253  0.33754  0.16701  1.0000
  C   C588      1.0  0.10974  0.60870  0.14223  1.0000
  C   C589      1.0  0.46946  0.32700  0.08892  1.0000
  S   S163      1.0  0.00277  0.42411  0.04399  1.0000
  C   C590      1.0  0.11940  0.44575  0.12269  1.0000
  N   N34       1.0  0.10949  0.35596  0.10269  1.0000
  C   C591      1.0  0.19407  0.32645  0.16257  1.0000
  H   H667      1.0  0.26342  0.63403  0.18823  1.0000
  H   H668      1.0  0.01430  0.41201  0.01427  1.0000
  C   C592      1.0  0.47204  0.44239  0.99795  1.0000
  Fe  Fe84      1.0  0.15900  0.63596  0.16211  1.0000
  H   H669      1.0  0.99367  0.46141  0.08576  1.0000
  H   H670      1.0  0.03721  0.32539  0.06113  1.0000
  H   H671      1.0  0.46796  0.31721  0.06146  1.0000
  H   H672      1.0  0.44918  0.57982  0.06655  1.0000
  C   C593      1.0  0.10250  0.37332  0.09073  1.0000
  H   H673      1.0  0.42185  0.33608  0.05611  1.0000
  C   C594      1.0  0.12010  0.33537  0.09671  1.0000
  H   H674      1.0  0.03972  0.46954  0.04852  1.0000
  H   H675      1.0  0.08074  0.36613  0.11789  1.0000
  C   C595      1.0  0.09700  0.62365  0.11955  1.0000
  C   C596      1.0  0.43055  0.62821  0.09274  1.0000
  H   H676      1.0  0.46931  0.55882  0.10172  1.0000
  H   H677      1.0  0.13105  0.62170  0.12344  1.0000
  C   C597      1.0  0.00291  0.51648  0.05437  1.0000
  H   H678      1.0  0.06028  0.59319  0.11119  1.0000
  C   C598      1.0  0.99783  0.44479  0.06750  1.0000
  C   C599      1.0  0.13304  0.34822  0.12240  1.0000
  C   C600      1.0  0.48237  0.56191  0.09219  1.0000
  H   H679      1.0  0.45942  0.32799  0.04450  1.0000
  C   C601      1.0  0.12917  0.48012  0.12697  1.0000
  H   H680      1.0  0.46471  0.55276  0.07111  1.0000
  H   H681      1.0  0.46965  0.44361  0.02044  1.0000
  H   H682      1.0  0.02974  0.63372  0.13476  1.0000
  N   N35       1.0  0.26298  0.41592  0.06166  1.0000
  C   C602      1.0  0.25137  0.39960  0.05737  1.0000
  C   C603      1.0  0.26270  0.41014  0.07728  1.0000
  C   C604      1.0  0.24963  0.43848  0.05846  1.0000
  C   C605      1.0  0.28654  0.41601  0.05436  1.0000
  C   C606      1.0  0.29949  0.43142  0.05688  1.0000
  C   C607      1.0  0.29740  0.40093  0.04480  1.0000
  C   C608      1.0  0.32170  0.43199  0.05007  1.0000
  C   C609      1.0  0.31976  0.40148  0.03819  1.0000
  C   C610      1.0  0.33187  0.41697  0.04083  1.0000
  H   H683      1.0  0.23358  0.40029  0.06289  1.0000
  H   H684      1.0  0.25064  0.40319  0.04573  1.0000
  H   H685      1.0  0.25966  0.38207  0.06030  1.0000
  H   H686      1.0  0.27368  0.39395  0.08016  1.0000
  H   H687      1.0  0.24539  0.40868  0.08316  1.0000
  H   H688      1.0  0.26876  0.42302  0.08162  1.0000
  H   H689      1.0  0.25045  0.44403  0.04676  1.0000
  H   H690      1.0  0.23154  0.43874  0.06321  1.0000
  H   H691      1.0  0.25546  0.45143  0.06290  1.0000
  H   H692      1.0  0.29262  0.44304  0.06426  1.0000
  H   H693      1.0  0.28906  0.38849  0.04228  1.0000
  H   H694      1.0  0.33124  0.44396  0.05214  1.0000
  H   H695      1.0  0.32782  0.38981  0.03098  1.0000
  H   H696      1.0  0.34924  0.41728  0.03577  1.0000
  C   C611      1.0  0.00711  0.42123  0.00499  1.0000
  C   C612      1.0  0.43949  0.60853  0.08709  1.0000
  H   H697      1.0  0.48924  0.54551  0.08854  1.0000
  H   H698      1.0  0.03296  0.60947  0.10957  1.0000
  C   C613      1.0  0.01957  0.49808  0.05672  1.0000
  C   C614      1.0  0.46721  0.63118  0.09734  1.0000
  C   C615      1.0  0.47421  0.39620  0.00646  1.0000
  H   H699      1.0  0.45616  0.49480  0.06980  1.0000
  H   H700      1.0  0.03974  0.59705  0.12679  1.0000
  C   C616      1.0  0.22683  0.32699  0.19067  1.0000
  H   H701      1.0  0.47557  0.39364  0.98485  1.0000
  C   C617      1.0  0.44898  0.32478  0.09788  1.0000
  C   C618      1.0  0.15827  0.37327  0.12426  1.0000
  C   C619      1.0  0.47486  0.40533  0.99202  1.0000
  H   H702      1.0  0.24226  0.59847  0.22125  1.0000
  H   H703      1.0  0.12304  0.60517  0.14874  1.0000
  N   N36       1.0  0.14474  0.48097  0.14960  1.0000
  C   C620      1.0  0.13074  0.47953  0.16393  1.0000
  C   C621      1.0  0.16807  0.47003  0.15117  1.0000
  C   C622      1.0  0.14555  0.50508  0.14396  1.0000
  H   H704      1.0  0.08991  0.36810  0.08554  1.0000
  H   H705      1.0  0.13150  0.46202  0.16968  1.0000
  H   H706      1.0  0.13650  0.48917  0.17089  1.0000
  H   H707      1.0  0.11277  0.48632  0.16314  1.0000
  H   H708      1.0  0.16912  0.45191  0.15569  1.0000
  H   H709      1.0  0.17544  0.47797  0.15830  1.0000
  H   H710      1.0  0.17928  0.47135  0.14067  1.0000
  H   H711      1.0  0.12847  0.51463  0.14300  1.0000
  H   H712      1.0  0.15309  0.51318  0.15096  1.0000
  H   H713      1.0  0.15636  0.50740  0.13333  1.0000
  H   H714      1.0  0.15871  0.40293  0.10855  1.0000
  H   H715      1.0  0.12447  0.41708  0.13899  1.0000
  C   C623      1.0  0.12535  0.43481  0.13575  1.0000
  N   N37       1.0  0.24988  0.63117  0.21074  1.0000
  H   H716      1.0  0.19852  0.35459  0.21740  1.0000
  H   H717      1.0  0.07598  0.34710  0.10710  1.0000
  N   N38       1.0  0.05579  0.62596  0.11699  1.0000
  H   H718      1.0  0.99524  0.62851  0.07257  1.0000
  S   S164      1.0  0.15530  0.61784  0.21665  1.0000
  C   C624      1.0  0.08982  0.31931  0.01768  1.0000
  C   C625      1.0  0.47255  0.41000  0.01659  1.0000
  H   H719      1.0  0.99820  0.47946  0.01212  1.0000
  C   C626      1.0  0.47395  0.42879  0.98730  1.0000
  N   N39       1.0  0.21007  0.32949  0.20373  1.0000
  H   H720      1.0  0.48537  0.59652  0.06023  1.0000
  H   H721      1.0  0.10165  0.63128  0.10864  1.0000
  C   C627      1.0  0.00090  0.49691  0.00741  1.0000
  H   H722      1.0  0.10460  0.31944  0.04973  1.0000
  Fe  Fe85      1.0  0.20539  0.63516  0.16967  1.0000
  H   H723      1.0  0.21411  0.62952  0.21518  1.0000
  H   H724      1.0  0.10879  0.33007  0.09060  1.0000
  H   H725      1.0  0.47059  0.46039  0.99524  1.0000
  H   H726      1.0  0.13602  0.33808  0.08932  1.0000
  C   C628      1.0  0.09546  0.32519  0.04046  1.0000
  H   H727      1.0  0.04774  0.64194  0.09622  1.0000
  C   C629      1.0  0.25451  0.60635  0.21264  1.0000
  C   C630      1.0  0.47632  0.61158  0.09169  1.0000
  C   C631      1.0  0.47141  0.43304  0.01237  1.0000
  C   C632      1.0  0.26562  0.63980  0.19809  1.0000
  H   H728      1.0  0.20829  0.36549  0.19926  1.0000
  H   H729      1.0  0.42820  0.32359  0.07354  1.0000
  H   H730      1.0  0.17414  0.33178  0.20990  1.0000
  C   C633      1.0  0.44438  0.63949  0.09787  1.0000
  C   C634      1.0  0.07321  0.36453  0.97568  1.0000
  H   H731      1.0  0.28353  0.63400  0.19948  1.0000
  H   H732      1.0  0.47436  0.37834  0.00989  1.0000
  H   H733      1.0  0.37226  0.32163  0.12193  1.0000
  H   H734      1.0  0.45026  0.46865  0.97623  1.0000
  H   H735      1.0  0.99299  0.50138  0.99754  1.0000
  H   H736      1.0  0.43814  0.44499  0.97470  1.0000
  N   N40       1.0  0.99111  0.51261  0.01767  1.0000
  H   H737      1.0  0.18539  0.31635  0.19550  1.0000
  S   S165      1.0  0.23967  0.60020  0.30619  1.0000
  Fe  Fe86      1.0  0.05494  0.50986  0.46059  1.0000
  S   S166      1.0  0.05096  0.48848  0.44495  1.0000
  Fe  Fe87      1.0  0.04286  0.55370  0.44065  1.0000
  S   S167      1.0  0.03747  0.53596  0.42367  1.0000
  H   H738      1.0  0.01520  0.58296  0.41808  1.0000
  Fe  Fe88      1.0  0.01986  0.51312  0.44145  1.0000
  Fe  Fe89      1.0  0.06914  0.51296  0.42855  1.0000
  S   S168      1.0  0.09343  0.50649  0.40861  1.0000
  S   S169      1.0  0.07586  0.53230  0.44444  1.0000
  Fe  Fe90      1.0  0.21991  0.49295  0.36024  1.0000
  S   S170      1.0  0.25441  0.47571  0.35257  1.0000
  S   S171      1.0  0.19796  0.52103  0.34842  1.0000
  Fe  Fe91      1.0  0.21602  0.46187  0.38839  1.0000
  S   S172      1.0  0.25054  0.44215  0.38312  1.0000
  S   S173      1.0  0.19262  0.45351  0.40895  1.0000
  Fe  Fe92      1.0  0.26161  0.47595  0.37471  1.0000
  S   S174      1.0  0.29489  0.48805  0.37526  1.0000
  Fe  Fe93      1.0  0.24032  0.44356  0.36162  1.0000
  S   S175      1.0  0.24688  0.41282  0.35037  1.0000
  S   S176      1.0  0.22761  0.49538  0.38163  1.0000
  S   S177      1.0  0.20538  0.46100  0.36757  1.0000
  Fe  Fe94      1.0  0.37387  0.51981  0.42643  1.0000
  S   S178      1.0  0.39813  0.53312  0.40759  1.0000
  S   S179      1.0  0.34143  0.50642  0.42548  1.0000
  Fe  Fe95      1.0  0.40477  0.52377  0.44805  1.0000
  S   S180      1.0  0.43078  0.53686  0.43039  1.0000
  Fe  Fe96      1.0  0.40166  0.55815  0.42102  1.0000
  S   S181      1.0  0.40110  0.59553  0.41357  1.0000
  Fe  Fe97      1.0  0.42506  0.51062  0.41889  1.0000
  S   S182      1.0  0.45383  0.48853  0.40753  1.0000
  S   S183      1.0  0.37545  0.54652  0.43936  1.0000
  S   S184      1.0  0.40081  0.49593  0.43698  1.0000
  C   C635      1.0  0.00953  0.61428  0.40384  1.0000
  N   N41       1.0  0.99416  0.36259  0.39778  1.0000
  H   H739      1.0  0.18181  0.40151  0.41178  1.0000
  S   S185      1.0  0.17857  0.36696  0.32633  1.0000
  H   H740      1.0  0.21296  0.35776  0.38752  1.0000
  H   H741      1.0  0.20861  0.41846  0.39138  1.0000
  H   H742      1.0  0.45997  0.58904  0.46840  1.0000
  H   H743      1.0  0.41585  0.64203  0.37796  1.0000
  H   H744      1.0  0.19390  0.37403  0.40809  1.0000
  C   C636      1.0  0.16525  0.38190  0.37345  1.0000
  C   C637      1.0  0.48545  0.45114  0.41227  1.0000
  H   H745      1.0  0.01525  0.36061  0.37023  1.0000
  C   C638      1.0  0.23986  0.61658  0.36179  1.0000
  C   C639      1.0  0.46797  0.46622  0.41848  1.0000
  H   H746      1.0  0.14403  0.60050  0.35471  1.0000
  H   H747      1.0  0.40681  0.64344  0.36113  1.0000
  C   C640      1.0  0.02420  0.64532  0.40900  1.0000
  C   C641      1.0  0.47302  0.44511  0.44186  1.0000
  C   C642      1.0  0.46190  0.46323  0.43330  1.0000
  H   H748      1.0  0.03185  0.57247  0.46915  1.0000
  N   N42       1.0  0.46333  0.57517  0.44896  1.0000
  H   H749      1.0  0.46804  0.44281  0.45331  1.0000
  H   H750      1.0  0.44862  0.47485  0.43820  1.0000
  C   C643      1.0  0.99958  0.47000  0.42610  1.0000
  C   C644      1.0  0.42662  0.60650  0.40790  1.0000
  C   C645      1.0  0.42626  0.62978  0.40589  1.0000
  C   C646      1.0  0.46726  0.60174  0.40091  1.0000
  C   C647      1.0  0.44720  0.59250  0.40536  1.0000
  C   C648      1.0  0.18293  0.38017  0.38151  1.0000
  C   C649      1.0  0.26479  0.59090  0.34162  1.0000
  H   H751      1.0  0.44765  0.57457  0.40671  1.0000
  C   C650      1.0  0.22727  0.39944  0.34469  1.0000
  C   C651      1.0  0.20465  0.40896  0.34480  1.0000
  C   C652      1.0  0.19010  0.39876  0.33917  1.0000
  C   C653      1.0  0.19769  0.37851  0.33375  1.0000
  C   C654      1.0  0.22013  0.36858  0.33407  1.0000
  C   C655      1.0  0.23484  0.37910  0.33939  1.0000
  H   H752      1.0  0.19850  0.42441  0.34895  1.0000
  H   H753      1.0  0.17280  0.40661  0.33897  1.0000
  H   H754      1.0  0.22629  0.35305  0.32995  1.0000
  H   H755      1.0  0.25228  0.37151  0.33926  1.0000
  C   C656      1.0  0.30702  0.49375  0.38942  1.0000
  C   C657      1.0  0.29716  0.48958  0.40374  1.0000
  C   C658      1.0  0.30787  0.49373  0.41455  1.0000
  C   C659      1.0  0.32838  0.50237  0.41124  1.0000
  C   C660      1.0  0.33794  0.50705  0.39687  1.0000
  C   C661      1.0  0.32743  0.50258  0.38608  1.0000
  H   H756      1.0  0.28148  0.48284  0.40654  1.0000
  H   H757      1.0  0.30021  0.49012  0.42560  1.0000
  H   H758      1.0  0.35347  0.51403  0.39404  1.0000
  H   H759      1.0  0.33526  0.50589  0.37506  1.0000
  C   C662      1.0  0.12099  0.49211  0.40929  1.0000
  C   C663      1.0  0.13645  0.49263  0.39660  1.0000
  C   C664      1.0  0.15858  0.48144  0.39657  1.0000
  C   C665      1.0  0.16527  0.46897  0.40916  1.0000
  C   C666      1.0  0.14977  0.46824  0.42188  1.0000
  C   C667      1.0  0.12771  0.48003  0.42199  1.0000
  H   H760      1.0  0.13130  0.50181  0.38674  1.0000
  H   H761      1.0  0.17036  0.48236  0.38676  1.0000
  H   H762      1.0  0.15486  0.45867  0.43166  1.0000
  H   H763      1.0  0.11585  0.47952  0.43182  1.0000
  C   C668      1.0  0.16785  0.41823  0.38731  1.0000
  Fe  Fe98      1.0  0.21350  0.63055  0.30212  1.0000
  H   H764      1.0  0.12612  0.63044  0.26596  1.0000
  C   C669      1.0  0.19849  0.34414  0.37337  1.0000
  H   H765      1.0  0.22496  0.62224  0.23732  1.0000
  C   C670      1.0  0.22822  0.57796  0.31775  1.0000
  C   C671      1.0  0.24234  0.55824  0.32232  1.0000
  C   C672      1.0  0.23332  0.54062  0.33186  1.0000
  C   C673      1.0  0.21009  0.54257  0.33656  1.0000
  C   C674      1.0  0.19597  0.56200  0.33164  1.0000
  C   C675      1.0  0.20503  0.57979  0.32244  1.0000
  H   H766      1.0  0.26024  0.55667  0.31846  1.0000
  H   H767      1.0  0.24426  0.52550  0.33542  1.0000
  H   H768      1.0  0.17794  0.56342  0.33498  1.0000
  H   H769      1.0  0.19400  0.59487  0.31892  1.0000
  H   H770      1.0  0.17488  0.62877  0.26151  1.0000
  C   C676      1.0  0.99922  0.32041  0.39803  1.0000
  C   C677      1.0  0.16665  0.62395  0.24162  1.0000
  H   H771      1.0  0.01023  0.44114  0.45383  1.0000
  H   H772      1.0  0.16196  0.60757  0.24587  1.0000
  C   C678      1.0  0.46694  0.62498  0.39904  1.0000
  C   C679      1.0  0.20728  0.40448  0.38590  1.0000
  S   S186      1.0  0.02252  0.53290  0.45820  1.0000
  H   H773      1.0  0.22095  0.39084  0.38894  1.0000
  N   N43       1.0  0.20367  0.47279  0.31921  1.0000
  C   C680      1.0  0.22353  0.47236  0.32613  1.0000
  C   C681      1.0  0.20255  0.49280  0.30792  1.0000
  C   C682      1.0  0.18333  0.47541  0.33023  1.0000
  C   C683      1.0  0.20456  0.45242  0.31290  1.0000
  C   C684      1.0  0.18604  0.44945  0.30686  1.0000
  C   C685      1.0  0.22346  0.43504  0.31258  1.0000
  C   C686      1.0  0.18600  0.42990  0.30147  1.0000
  C   C687      1.0  0.22332  0.41569  0.30700  1.0000
  C   C688      1.0  0.20455  0.41299  0.30163  1.0000
  H   H774      1.0  0.23943  0.47179  0.31834  1.0000
  H   H775      1.0  0.22214  0.48767  0.33101  1.0000
  H   H776      1.0  0.22529  0.45770  0.33482  1.0000
  H   H777      1.0  0.21738  0.49134  0.29931  1.0000
  H   H778      1.0  0.20229  0.50843  0.31229  1.0000
  H   H779      1.0  0.18716  0.49528  0.30289  1.0000
  H   H780      1.0  0.18281  0.48987  0.33576  1.0000
  H   H781      1.0  0.16741  0.47858  0.32573  1.0000
  H   H782      1.0  0.18289  0.46021  0.33852  1.0000
  H   H783      1.0  0.17126  0.46207  0.30647  1.0000
  H   H784      1.0  0.23830  0.43551  0.31702  1.0000
  H   H785      1.0  0.17138  0.42756  0.29739  1.0000
  H   H786      1.0  0.23752  0.40226  0.30739  1.0000
  H   H787      1.0  0.20415  0.39750  0.29793  1.0000
  H   H788      1.0  0.21126  0.41006  0.37422  1.0000
  H   H789      1.0  0.16862  0.56423  0.36021  1.0000
  S   S187      1.0  0.04053  0.59133  0.43872  1.0000
  H   H790      1.0  0.22765  0.63517  0.25920  1.0000
  H   H791      1.0  0.39818  0.56070  0.47349  1.0000
  H   H792      1.0  0.46557  0.61052  0.44610  1.0000
  H   H793      1.0  0.46867  0.59992  0.42998  1.0000
  C   C689      1.0  0.18096  0.38862  0.40523  1.0000
  C   C690      1.0  0.19926  0.36051  0.38146  1.0000
  N   N44       1.0  0.18457  0.39764  0.38978  1.0000
  H   H794      1.0  0.27636  0.56232  0.38210  1.0000
  H   H795      1.0  0.15528  0.53519  0.37963  1.0000
  H   H796      1.0  0.42985  0.59379  0.45302  1.0000
  C   C691      1.0  0.24292  0.62591  0.34740  1.0000
  H   H797      1.0  0.25999  0.52641  0.37104  1.0000
  H   H798      1.0  0.27384  0.58195  0.33318  1.0000
  H   H799      1.0  0.29349  0.52858  0.35379  1.0000
  H   H800      1.0  0.23557  0.64308  0.34397  1.0000
  H   H801      1.0  0.02132  0.38053  0.38654  1.0000
  H   H802      1.0  0.08176  0.33690  0.28686  1.0000
  N   N45       1.0  0.39301  0.45378  0.40784  1.0000
  C   C692      1.0  0.39657  0.47738  0.40316  1.0000
  C   C693      1.0  0.38827  0.44978  0.42369  1.0000
  C   C694      1.0  0.41432  0.43901  0.40350  1.0000
  C   C695      1.0  0.37458  0.44971  0.40109  1.0000
  C   C696      1.0  0.37735  0.45081  0.38606  1.0000
  C   C697      1.0  0.35319  0.44573  0.40896  1.0000
  C   C698      1.0  0.35998  0.44767  0.37939  1.0000
  C   C699      1.0  0.33601  0.44247  0.40218  1.0000
  C   C700      1.0  0.33938  0.44345  0.38744  1.0000
  H   H803      1.0  0.38106  0.48902  0.40639  1.0000
  H   H804      1.0  0.41025  0.48120  0.40800  1.0000
  H   H805      1.0  0.40135  0.48155  0.39142  1.0000
  H   H806      1.0  0.37384  0.46201  0.42784  1.0000
  H   H807      1.0  0.40289  0.45184  0.42844  1.0000
  H   H808      1.0  0.38460  0.43248  0.42790  1.0000
  H   H809      1.0  0.41203  0.42107  0.40607  1.0000
  H   H810      1.0  0.42082  0.44281  0.39193  1.0000
  H   H811      1.0  0.42815  0.44113  0.40899  1.0000
  H   H812      1.0  0.39278  0.45466  0.37931  1.0000
  H   H813      1.0  0.34902  0.44573  0.42031  1.0000
  H   H814      1.0  0.36227  0.44901  0.36789  1.0000
  C   C701      1.0  0.09751  0.32688  0.29023  1.0000
  H   H815      1.0  0.24295  0.55052  0.37715  1.0000
  N   N46       1.0  0.08644  0.57992  0.39205  1.0000
  C   C702      1.0  0.07515  0.60357  0.38965  1.0000
  C   C703      1.0  0.07173  0.56567  0.38863  1.0000
  C   C704      1.0  0.08820  0.57386  0.40749  1.0000
  C   C705      1.0  0.10897  0.57611  0.38325  1.0000
  C   C706      1.0  0.12332  0.55530  0.38570  1.0000
  C   C707      1.0  0.11699  0.59230  0.37172  1.0000
  C   C708      1.0  0.14459  0.55122  0.37751  1.0000
  H   H816      1.0  0.00052  0.60763  0.39736  1.0000
  C   C709      1.0  0.00201  0.34240  0.39086  1.0000
  H   H817      1.0  0.07091  0.60875  0.37867  1.0000
  H   H818      1.0  0.05884  0.60618  0.39690  1.0000
  H   H819      1.0  0.08570  0.61524  0.39168  1.0000
  H   H820      1.0  0.07000  0.56949  0.37713  1.0000
  H   H821      1.0  0.05452  0.56806  0.39499  1.0000
  H   H822      1.0  0.07852  0.54753  0.39098  1.0000
  H   H823      1.0  0.10058  0.58278  0.41035  1.0000
  H   H824      1.0  0.07176  0.57813  0.41433  1.0000
  H   H825      1.0  0.09323  0.55557  0.41081  1.0000
  H   H826      1.0  0.11812  0.54188  0.39391  1.0000
  H   H827      1.0  0.10714  0.60840  0.36874  1.0000
  C   C710      1.0  0.46979  0.53307  0.45090  1.0000
  H   H828      1.0  0.02678  0.36292  0.40300  1.0000
  H   H829      1.0  0.21153  0.32962  0.37311  1.0000
  C   C711      1.0  0.99596  0.45194  0.42018  1.0000
  H   H830      1.0  0.47374  0.49749  0.45099  1.0000
  C   C712      1.0  0.16553  0.63294  0.22724  1.0000
  C   C713      1.0  0.28614  0.55666  0.37219  1.0000
  C   C714      1.0  0.17391  0.63596  0.25050  1.0000
  C   C715      1.0  0.01050  0.44909  0.46324  1.0000
  H   H831      1.0  0.01573  0.47587  0.42345  1.0000
  C   C716      1.0  0.24924  0.59439  0.36618  1.0000
  C   C717      1.0  0.43891  0.57896  0.44818  1.0000
  C   C718      1.0  0.01794  0.60022  0.41555  1.0000
  H   H832      1.0  0.00938  0.44398  0.41295  1.0000
  H   H833      1.0  0.23009  0.62657  0.36958  1.0000
  H   H834      1.0  0.16818  0.32511  0.24078  1.0000
  S   S188      1.0  0.15181  0.33212  0.30657  1.0000
  H   H835      1.0  0.18101  0.33425  0.35872  1.0000
  C   C719      1.0  0.23767  0.63259  0.23691  1.0000
  H   H836      1.0  0.00816  0.38922  0.40305  1.0000
  H   H837      1.0  0.04140  0.63793  0.42732  1.0000
  H   H838      1.0  0.31964  0.44002  0.40832  1.0000
  H   H839      1.0  0.41038  0.64065  0.40793  1.0000
  C   C720      1.0  0.47799  0.51342  0.44511  1.0000
  H   H840      1.0  0.45663  0.56062  0.47135  1.0000
  H   H841      1.0  0.15149  0.36727  0.35895  1.0000
  H   H842      1.0  0.11245  0.62652  0.28393  1.0000
  C   C721      1.0  0.44635  0.63903  0.40144  1.0000
  H   H843      1.0  0.24180  0.54490  0.35977  1.0000
  C   C722      1.0  0.01258  0.34446  0.37638  1.0000
  S   S189      1.0  0.18244  0.62951  0.29311  1.0000
  H   H844      1.0  0.99517  0.34631  0.41957  1.0000
  H   H845      1.0  0.25733  0.62028  0.32612  1.0000
  H   H846      1.0  0.29961  0.56728  0.36808  1.0000
  C   C723      1.0  0.01347  0.37426  0.39755  1.0000
  H   H847      1.0  0.16965  0.42583  0.37583  1.0000
  C   C724      1.0  0.03252  0.63126  0.42078  1.0000
  C   C725      1.0  0.47391  0.55440  0.44316  1.0000
  C   C726      1.0  0.13827  0.58798  0.36352  1.0000
  H   H848      1.0  0.17001  0.43133  0.39327  1.0000
  C   C727      1.0  0.18124  0.34660  0.36535  1.0000
  H   H849      1.0  0.16416  0.38306  0.40861  1.0000
  H   H850      1.0  0.15202  0.39611  0.37281  1.0000
  H   H851      1.0  0.15026  0.41489  0.39109  1.0000
  Fe  Fe99      1.0  0.17929  0.33317  0.31904  1.0000
  H   H852      1.0  0.24615  0.58781  0.37744  1.0000
  C   C728      1.0  0.02945  0.60867  0.42407  1.0000
  C   C729      1.0  0.15210  0.56756  0.36650  1.0000
  C   C730      1.0  0.01261  0.63686  0.40052  1.0000
  C   C731      1.0  0.16455  0.36529  0.36551  1.0000
  H   H853      1.0  0.00507  0.40695  0.46982  1.0000
  H   H854      1.0  0.29448  0.53928  0.37562  1.0000
  C   C732      1.0  0.01954  0.32577  0.36946  1.0000
  C   C733      1.0  0.23906  0.63991  0.24951  1.0000
  H   H855      1.0  0.99097  0.31707  0.40895  1.0000
  H   H856      1.0  0.32569  0.44171  0.38221  1.0000
  H   H857      1.0  0.43585  0.58181  0.43691  1.0000
  N   N47       1.0  0.27185  0.55742  0.36120  1.0000
  H   H858      1.0  0.43075  0.56428  0.45376  1.0000
  H   H859      1.0  0.27612  0.54447  0.34145  1.0000
  C   C734      1.0  0.28608  0.54602  0.34964  1.0000
  C   C735      1.0  0.26219  0.58089  0.35624  1.0000
  C   C736      1.0  0.25530  0.61308  0.33736  1.0000
  C   C737      1.0  0.49037  0.51436  0.43144  1.0000
  H   H860      1.0  0.30043  0.55502  0.34437  1.0000
  C   C738      1.0  0.25333  0.54431  0.36756  1.0000
  H   H861      1.0  0.48312  0.59085  0.39887  1.0000
  H   H862      1.0  0.05385  0.58831  0.46762  1.0000
  H   H863      1.0  0.09328  0.64745  0.34503  1.0000
  H   H864      1.0  0.11129  0.33719  0.28617  1.0000
  C   C739      1.0  0.47277  0.59543  0.44101  1.0000
  H   H865      1.0  0.45911  0.53142  0.46115  1.0000
  S   S190      1.0  0.41407  0.51356  0.47050  1.0000
  S   S191      1.0  0.13247  0.64331  0.32365  1.0000
  C   C740      1.0  0.46628  0.57308  0.46411  1.0000
  H   H866      1.0  0.12050  0.32160  0.26536  1.0000
  H   H867      1.0  0.48433  0.56811  0.46536  1.0000
  H   H868      1.0  0.21927  0.32752  0.23166  1.0000
  H   H869      1.0  0.09586  0.63509  0.26972  1.0000
  S   S192      1.0  0.17781  0.31714  0.26943  1.0000
  H   H870      1.0  0.02718  0.32775  0.35832  1.0000
  H   H871      1.0  0.02833  0.44675  0.46495  1.0000
  C   C741      1.0  0.11139  0.63734  0.27340  1.0000
  H   H872      1.0  0.00480  0.46726  0.46006  1.0000
  H   H873      1.0  0.09493  0.64486  0.30169  1.0000
  H   H874      1.0  0.09585  0.32450  0.30209  1.0000
  C   C742      1.0  0.48689  0.55471  0.42930  1.0000
  H   H875      1.0  0.49027  0.45344  0.40080  1.0000
  C   C743      1.0  0.49034  0.42990  0.43567  1.0000
  H   H876      1.0  0.09232  0.31769  0.26439  1.0000
  H   H877      1.0  0.38669  0.64863  0.37669  1.0000
  H   H878      1.0  0.49059  0.57006  0.42250  1.0000
  S   S193      1.0  0.19547  0.64928  0.31980  1.0000
  H   H879      1.0  0.00774  0.42645  0.57277  1.0000
  Fe  Fe100     1.0  0.08893  0.54083  0.54494  1.0000
  S   S194      1.0  0.05666  0.53574  0.55955  1.0000
  S   S195      1.0  0.09122  0.55170  0.52103  1.0000
  Fe  Fe101     1.0  0.11697  0.52854  0.56936  1.0000
  S   S196      1.0  0.08676  0.52191  0.58600  1.0000
  S   S197      1.0  0.15437  0.52269  0.57109  1.0000
  Fe  Fe102     1.0  0.07666  0.50482  0.56999  1.0000
  S   S198      1.0  0.06511  0.47081  0.57604  1.0000
  Fe  Fe103     1.0  0.06900  0.55348  0.57426  1.0000
  S   S199      1.0  0.04179  0.57843  0.58460  1.0000
  S   S200      1.0  0.10828  0.50869  0.55435  1.0000
  S   S201      1.0  0.09982  0.56139  0.55867  1.0000
  H   H880      1.0  0.34111  0.56625  0.60349  1.0000
  C   C744      1.0  0.19869  0.61058  0.67440  1.0000
  S   S202      1.0  0.45585  0.60706  0.57000  1.0000
  S   S203      1.0  0.30473  0.35214  0.67365  1.0000
  C   C745      1.0  0.48638  0.64409  0.58934  1.0000
  Fe  Fe104     1.0  0.44578  0.56019  0.53398  1.0000
  S   S204      1.0  0.45539  0.52381  0.54245  1.0000
  S   S205      1.0  0.43088  0.57355  0.51347  1.0000
  Fe  Fe105     1.0  0.45822  0.57560  0.56003  1.0000
  S   S206      1.0  0.46870  0.54018  0.57031  1.0000
  Fe  Fe106     1.0  0.43777  0.53269  0.56368  1.0000
  S   S207      1.0  0.41619  0.50886  0.57829  1.0000
  S   S208      1.0  0.42593  0.56841  0.55494  1.0000
  C   C746      1.0  0.22047  0.61445  0.67437  1.0000
  S   S209      1.0  0.35262  0.62606  0.68100  1.0000
  C   C747      1.0  0.06539  0.41009  0.52854  1.0000
  S   S210      1.0  0.30031  0.62475  0.69745  1.0000
  Fe  Fe107     1.0  0.33380  0.62648  0.70336  1.0000
  Fe  Fe108     1.0  0.31850  0.62779  0.67489  1.0000
  S   S211      1.0  0.31326  0.61318  0.65610  1.0000
  C   C748      1.0  0.05102  0.59282  0.49408  1.0000
  Fe  Fe109     1.0  0.29077  0.51419  0.60899  1.0000
  S   S212      1.0  0.30608  0.48994  0.62630  1.0000
  S   S213      1.0  0.31041  0.53620  0.59160  1.0000
  Fe  Fe110     1.0  0.24225  0.50840  0.62267  1.0000
  S   S214      1.0  0.25394  0.48399  0.64124  1.0000
  S   S215      1.0  0.20440  0.51899  0.62396  1.0000
  Fe  Fe111     1.0  0.27839  0.50741  0.64097  1.0000
  S   S216      1.0  0.28403  0.51788  0.66107  1.0000
  Fe  Fe112     1.0  0.28032  0.46878  0.62489  1.0000
  S   S217      1.0  0.28676  0.43195  0.62266  1.0000
  S   S218      1.0  0.26463  0.53289  0.62377  1.0000
  S   S219      1.0  0.26713  0.49190  0.60616  1.0000
  H   H881      1.0  0.40856  0.49691  0.54032  1.0000
  H   H882      1.0  0.33749  0.42611  0.62653  1.0000
  H   H883      1.0  0.36289  0.34731  0.67148  1.0000
  C   C749      1.0  0.35511  0.55893  0.63672  1.0000
  H   H884      1.0  0.07017  0.42862  0.50125  1.0000
  N   N48       1.0  0.35959  0.55819  0.62115  1.0000
  C   C750      1.0  0.30427  0.58700  0.65808  1.0000
  C   C751      1.0  0.29928  0.58045  0.64604  1.0000
  C   C752      1.0  0.29344  0.55917  0.64682  1.0000
  C   C753      1.0  0.29187  0.54449  0.65978  1.0000
  C   C754      1.0  0.29636  0.55124  0.67193  1.0000
  C   C755      1.0  0.30267  0.57242  0.67108  1.0000
  H   H885      1.0  0.30010  0.59185  0.63603  1.0000
  H   H886      1.0  0.28999  0.55422  0.63743  1.0000
  H   H887      1.0  0.29514  0.53997  0.68201  1.0000
  H   H888      1.0  0.30646  0.57735  0.68044  1.0000
  C   C756      1.0  0.38678  0.51657  0.58166  1.0000
  C   C757      1.0  0.37643  0.53798  0.57645  1.0000
  C   C758      1.0  0.35292  0.54365  0.57932  1.0000
  C   C759      1.0  0.33967  0.52812  0.58766  1.0000
  C   C760      1.0  0.34999  0.50664  0.59281  1.0000
  C   C761      1.0  0.37350  0.50086  0.58975  1.0000
  H   H889      1.0  0.38647  0.55026  0.57033  1.0000
  H   H890      1.0  0.34497  0.56024  0.57522  1.0000
  H   H891      1.0  0.33986  0.49448  0.59909  1.0000
  H   H892      1.0  0.38143  0.48423  0.59375  1.0000
  C   C762      1.0  0.41900  0.53086  0.48199  1.0000
  H   H893      1.0  0.38116  0.53073  0.51158  1.0000
  C   C763      1.0  0.41312  0.56624  0.49092  1.0000
  C   C764      1.0  0.42678  0.55677  0.50141  1.0000
  C   C765      1.0  0.43665  0.53431  0.50209  1.0000
  C   C766      1.0  0.43274  0.52145  0.49243  1.0000
  H   H894      1.0  0.40534  0.58360  0.49035  1.0000
  H   H895      1.0  0.44732  0.52684  0.51003  1.0000
  H   H896      1.0  0.44038  0.50405  0.49307  1.0000
  C   C767      1.0  0.29824  0.37400  0.65956  1.0000
  C   C768      1.0  0.29474  0.39631  0.66195  1.0000
  C   C769      1.0  0.29088  0.41425  0.65080  1.0000
  C   C770      1.0  0.29046  0.41000  0.63716  1.0000
  C   C771      1.0  0.29363  0.38770  0.63481  1.0000
  C   C772      1.0  0.29743  0.36976  0.64596  1.0000
  H   H897      1.0  0.29527  0.39974  0.67244  1.0000
  H   H898      1.0  0.28846  0.43135  0.65275  1.0000
  H   H899      1.0  0.29331  0.38427  0.62428  1.0000
  H   H900      1.0  0.29988  0.35267  0.64401  1.0000
  C   C773      1.0  0.04090  0.46678  0.56991  1.0000
  C   C774      1.0  0.03278  0.44623  0.57432  1.0000
  N   N49       1.0  0.38036  0.52163  0.53449  1.0000
  C   C775      1.0  0.99642  0.53948  0.50426  1.0000
  C   C776      1.0  0.40664  0.60267  0.59905  1.0000
  C   C777      1.0  0.02993  0.48345  0.56048  1.0000
  H   H901      1.0  0.41085  0.37845  0.63271  1.0000
  C   C778      1.0  0.01658  0.55831  0.62961  1.0000
  C   C779      1.0  0.99975  0.63702  0.57506  1.0000
  H   H902      1.0  0.03620  0.49917  0.55684  1.0000
  C   C780      1.0  0.16763  0.52208  0.58600  1.0000
  C   C781      1.0  0.15543  0.52496  0.59946  1.0000
  C   C782      1.0  0.16689  0.52396  0.61101  1.0000
  C   C783      1.0  0.19056  0.51996  0.60922  1.0000
  C   C784      1.0  0.20273  0.51694  0.59580  1.0000
  C   C785      1.0  0.19130  0.51807  0.58426  1.0000
  H   H903      1.0  0.13722  0.52795  0.60094  1.0000
  H   H904      1.0  0.15733  0.52626  0.62137  1.0000
  H   H905      1.0  0.22093  0.51402  0.59423  1.0000
  H   H906      1.0  0.20083  0.51582  0.57388  1.0000
  C   C786      1.0  0.04759  0.59686  0.59485  1.0000
  C   C787      1.0  0.02949  0.61060  0.60163  1.0000
  C   C788      1.0  0.03329  0.62615  0.60948  1.0000
  C   C789      1.0  0.05522  0.62754  0.61105  1.0000
  C   C790      1.0  0.07337  0.61355  0.60447  1.0000
  C   C791      1.0  0.06960  0.59836  0.59626  1.0000
  H   H907      1.0  0.01243  0.60925  0.60075  1.0000
  H   H908      1.0  0.03989  0.56663  0.51703  1.0000
  H   H909      1.0  0.09041  0.61453  0.60565  1.0000
  H   H910      1.0  0.08365  0.58775  0.59110  1.0000
  C   C792      1.0  0.06893  0.50915  0.49367  1.0000
  C   C793      1.0  0.08331  0.52478  0.48748  1.0000
  C   C794      1.0  0.09054  0.53728  0.49604  1.0000
  C   C795      1.0  0.08377  0.53398  0.51088  1.0000
  C   C796      1.0  0.07004  0.51775  0.51715  1.0000
  C   C797      1.0  0.06240  0.50558  0.50853  1.0000
  C   C798      1.0  0.01378  0.44240  0.56939  1.0000
  H   H911      1.0  0.10139  0.54962  0.49115  1.0000
  H   H912      1.0  0.06482  0.51500  0.52859  1.0000
  H   H913      1.0  0.05136  0.49346  0.51342  1.0000
  N   N50       1.0  0.37387  0.35908  0.64917  1.0000
  C   C799      1.0  0.39652  0.34562  0.65008  1.0000
  C   C800      1.0  0.36351  0.36321  0.66377  1.0000
  C   C801      1.0  0.36028  0.34523  0.64427  1.0000
  C   C802      1.0  0.37424  0.38073  0.63938  1.0000
  C   C803      1.0  0.35378  0.39511  0.63723  1.0000
  C   C804      1.0  0.01084  0.47972  0.55564  1.0000
  C   C805      1.0  0.41036  0.58052  0.59677  1.0000
  C   C806      1.0  0.39401  0.40878  0.62258  1.0000
  H   H914      1.0  0.06860  0.57246  0.62611  1.0000
  H   H915      1.0  0.40753  0.35454  0.65426  1.0000
  H   H916      1.0  0.44656  0.61773  0.60976  1.0000
  H   H917      1.0  0.40492  0.34109  0.63953  1.0000
  H   H918      1.0  0.37298  0.37390  0.66779  1.0000
  H   H919      1.0  0.38500  0.62760  0.61018  1.0000
  H   H920      1.0  0.31209  0.56753  0.52787  1.0000
  C   C807      1.0  0.00411  0.41533  0.47922  1.0000
  H   H921      1.0  0.99340  0.52028  0.52541  1.0000
  H   H922      1.0  0.41988  0.59321  0.64170  1.0000
  H   H923      1.0  0.33777  0.39061  0.64268  1.0000
  N   N51       1.0  0.00352  0.60265  0.65420  1.0000
  H   H924      1.0  0.01783  0.58300  0.67217  1.0000
  C   C808      1.0  0.05083  0.57213  0.63004  1.0000
  H   H925      1.0  0.99398  0.62808  0.63697  1.0000
  C   C809      1.0  0.05522  0.43633  0.50813  1.0000
  H   H926      1.0  0.03502  0.63539  0.57013  1.0000
  S   S220      1.0  0.06042  0.64649  0.62120  1.0000
  H   H927      1.0  0.08986  0.45601  0.50166  1.0000
  C   C810      1.0  0.38856  0.61476  0.64483  1.0000
  H   H928      1.0  0.48952  0.42818  0.48859  1.0000
  H   H929      1.0  0.34335  0.54717  0.64259  1.0000
  H   H930      1.0  0.33074  0.58322  0.61714  1.0000
  C   C811      1.0  0.10780  0.46853  0.51431  1.0000
  H   H931      1.0  0.34225  0.35266  0.64498  1.0000
  C   C812      1.0  0.09148  0.45645  0.51254  1.0000
  C   C813      1.0  0.00149  0.53314  0.51806  1.0000
  C   C814      1.0  0.07719  0.44648  0.52449  1.0000
  H   H932      1.0  0.11782  0.47687  0.50504  1.0000
  H   H933      1.0  0.03352  0.46129  0.52894  1.0000
  C   C815      1.0  0.23873  0.60246  0.66670  1.0000
  H   H934      1.0  0.35137  0.50521  0.55914  1.0000
  C   C816      1.0  0.33830  0.56599  0.61523  1.0000
  H   H935      1.0  0.00302  0.59930  0.47990  1.0000
  H   H936      1.0  0.36069  0.32836  0.65089  1.0000
  H   H937      1.0  0.35927  0.64002  0.64717  1.0000
  S   S221      1.0  0.47708  0.57053  0.53825  1.0000
  C   C817      1.0  0.34365  0.51854  0.55177  1.0000
  C   C818      1.0  0.34391  0.54657  0.53046  1.0000
  H   H938      1.0  0.45621  0.62074  0.65194  1.0000
  C   C819      1.0  0.11058  0.47082  0.52791  1.0000
  C   C820      1.0  0.09733  0.46068  0.53983  1.0000
  C   C821      1.0  0.02768  0.55987  0.51298  1.0000
  N   N52       1.0  0.21946  0.44480  0.61000  1.0000
  C   C822      1.0  0.22034  0.42130  0.61742  1.0000
  C   C823      1.0  0.23923  0.44566  0.59844  1.0000
  C   C824      1.0  0.22206  0.45902  0.62020  1.0000
  C   C825      1.0  0.19757  0.45256  0.60480  1.0000
  C   C826      1.0  0.19579  0.45955  0.59009  1.0000
  C   C827      1.0  0.17710  0.45342  0.61459  1.0000
  C   C828      1.0  0.17484  0.46709  0.58562  1.0000
  C   C829      1.0  0.15626  0.46119  0.60999  1.0000
  C   C830      1.0  0.15516  0.46808  0.59553  1.0000
  H   H939      1.0  0.21775  0.41012  0.61025  1.0000
  H   H940      1.0  0.23693  0.41478  0.62111  1.0000
  H   H941      1.0  0.20729  0.41956  0.62707  1.0000
  H   H942      1.0  0.23901  0.43455  0.59065  1.0000
  H   H943      1.0  0.25541  0.43998  0.60271  1.0000
  H   H944      1.0  0.23995  0.46308  0.59270  1.0000
  H   H945      1.0  0.22095  0.47686  0.61509  1.0000
  H   H946      1.0  0.20895  0.45821  0.62984  1.0000
  H   H947      1.0  0.23858  0.45394  0.62409  1.0000
  H   H948      1.0  0.21028  0.45989  0.58181  1.0000
  H   H949      1.0  0.17707  0.44841  0.62592  1.0000
  H   H950      1.0  0.17383  0.47313  0.57441  1.0000
  H   H951      1.0  0.14088  0.46223  0.61766  1.0000
  H   H952      1.0  0.13907  0.47472  0.59197  1.0000
  H   H953      1.0  0.01920  0.63685  0.61442  1.0000
  C   C831      1.0  0.39260  0.54035  0.53443  1.0000
  H   H954      1.0  0.09941  0.46254  0.55044  1.0000
  C   C832      1.0  0.01703  0.54334  0.52241  1.0000
  H   H955      1.0  0.35828  0.60271  0.62261  1.0000
  C   C833      1.0  0.03760  0.44273  0.53154  1.0000
  S   S222      1.0  0.99884  0.39215  0.54688  1.0000
  H   H956      1.0  0.43622  0.63595  0.67405  1.0000
  C   C834      1.0  0.45453  0.60912  0.61920  1.0000
  H   H957      1.0  0.35227  0.55530  0.52069  1.0000
  H   H958      1.0  0.06407  0.31863  0.57491  1.0000
  H   H959      1.0  0.04121  0.43324  0.58160  1.0000
  H   H960      1.0  0.36672  0.34274  0.63303  1.0000
  C   C835      1.0  0.37356  0.42241  0.62070  1.0000
  H   H961      1.0  0.35435  0.52353  0.62539  1.0000
  H   H962      1.0  0.47300  0.60549  0.61546  1.0000
  N   N53       1.0  0.44944  0.62317  0.63063  1.0000
  H   H963      1.0  0.02121  0.53815  0.53310  1.0000
  S   S223      1.0  0.34410  0.60381  0.72307  1.0000
  C   C836      1.0  0.36694  0.53434  0.61943  1.0000
  C   C837      1.0  0.37627  0.57298  0.61378  1.0000
  C   C838      1.0  0.39547  0.56580  0.60395  1.0000
  C   C839      1.0  0.37290  0.59575  0.61573  1.0000
  C   C840      1.0  0.38799  0.61026  0.60855  1.0000
  C   C841      1.0  0.99275  0.47040  0.51328  1.0000
  C   C842      1.0  0.02295  0.56671  0.49879  1.0000
  H   H964      1.0  0.36875  0.53218  0.60812  1.0000
  H   H965      1.0  0.38325  0.52754  0.62331  1.0000
  H   H966      1.0  0.37096  0.55436  0.64139  1.0000
  H   H967      1.0  0.39922  0.54901  0.60140  1.0000
  H   H968      1.0  0.47887  0.60773  0.64025  1.0000
  H   H969      1.0  0.02113  0.41226  0.48238  1.0000
  H   H970      1.0  0.12280  0.48074  0.52920  1.0000
  H   H971      1.0  0.00787  0.54773  0.62543  1.0000
  C   C843      1.0  0.01530  0.60064  0.66662  1.0000
  H   H972      1.0  0.40219  0.50830  0.51676  1.0000
  H   H973      1.0  0.04840  0.59786  0.64234  1.0000
  H   H974      1.0  0.32544  0.55484  0.61995  1.0000
  H   H975      1.0  0.38941  0.54568  0.54509  1.0000
  C   C844      1.0  0.39448  0.38819  0.63177  1.0000
  H   H976      1.0  0.04220  0.32471  0.55516  1.0000
  C   C845      1.0  0.01569  0.58684  0.64452  1.0000
  H   H977      1.0  0.37909  0.60109  0.64929  1.0000
  H   H978      1.0  0.18454  0.61989  0.68045  1.0000
  H   H979      1.0  0.40192  0.59604  0.70876  1.0000
  H   H980      1.0  0.00562  0.61127  0.67454  1.0000
  H   H981      1.0  0.04089  0.42789  0.50747  1.0000
  H   H982      1.0  0.25573  0.60531  0.66676  1.0000
  H   H983      1.0  0.38187  0.48704  0.54454  1.0000
  C   C846      1.0  0.30934  0.54340  0.54708  1.0000
  C   C847      1.0  0.46015  0.61087  0.64301  1.0000
  C   C848      1.0  0.41232  0.62685  0.71075  1.0000
  H   H984      1.0  0.47888  0.63920  0.62197  1.0000
  H   H985      1.0  0.45460  0.59434  0.64713  1.0000
  H   H986      1.0  0.04389  0.60075  0.50371  1.0000
  C   C849      1.0  0.40915  0.55335  0.48129  1.0000
  C   C850      1.0  0.35347  0.41557  0.62801  1.0000
  H   H987      1.0  0.02317  0.43537  0.52980  1.0000
  H   H988      1.0  0.39544  0.32937  0.65743  1.0000
  S   S224      1.0  0.00674  0.34366  0.58039  1.0000
  H   H989      1.0  0.08171  0.40303  0.52258  1.0000
  C   C851      1.0  0.39025  0.50185  0.54402  1.0000
  H   H990      1.0  0.07120  0.44113  0.54787  1.0000
  H   H991      1.0  0.37323  0.43831  0.61356  1.0000
  C   C852      1.0  0.03909  0.58648  0.63947  1.0000
  H   H992      1.0  0.06725  0.40719  0.54002  1.0000
  H   H993      1.0  0.04855  0.54784  0.61722  1.0000
  H   H994      1.0  0.31161  0.51806  0.56558  1.0000
  H   H995      1.0  0.03796  0.43846  0.54315  1.0000
  C   C853      1.0  0.00278  0.45917  0.56002  1.0000
  H   H996      1.0  0.22326  0.62669  0.68034  1.0000
  C   C854      1.0  0.00690  0.55604  0.49475  1.0000
  C   C855      1.0  0.00471  0.57229  0.63925  1.0000
  C   C856      1.0  0.47483  0.61488  0.57939  1.0000
  C   C857      1.0  0.32093  0.55376  0.53449  1.0000
  C   C858      1.0  0.35598  0.52867  0.53895  1.0000
  C   C859      1.0  0.08101  0.44855  0.53821  1.0000
  H   H997      1.0  0.37352  0.50359  0.51910  1.0000
  H   H998      1.0  0.05229  0.40019  0.52766  1.0000
  H   H999      1.0  0.34697  0.57568  0.63927  1.0000
  H   H1000     1.0  0.40960  0.41423  0.61686  1.0000
  C   C860      1.0  0.46029  0.64348  0.62510  1.0000
  N   N54       1.0  0.05921  0.43420  0.52306  1.0000
  H   H1001     1.0  0.38766  0.55537  0.52659  1.0000
  H   H1002     1.0  0.05097  0.45425  0.50340  1.0000
  C   C861      1.0  0.32065  0.52581  0.55566  1.0000
  C   C862      1.0  0.00283  0.62582  0.64633  1.0000
  H   H1003     1.0  0.05612  0.56029  0.47730  1.0000
  H   H1004     1.0  0.29158  0.54913  0.55031  1.0000
  N   N55       1.0  0.21030  0.56522  0.65057  1.0000
  C   C863      1.0  0.18656  0.56153  0.65205  1.0000
  C   C864      1.0  0.21814  0.57266  0.63522  1.0000
  C   C865      1.0  0.22375  0.54327  0.65526  1.0000
  C   C866      1.0  0.21335  0.58207  0.65889  1.0000
  C   C867      1.0  0.23525  0.58662  0.65902  1.0000
  C   C868      1.0  0.19504  0.59464  0.66680  1.0000
  H   H1005     1.0  0.38907  0.50544  0.55501  1.0000
  H   H1006     1.0  0.18506  0.54853  0.64577  1.0000
  H   H1007     1.0  0.17967  0.55551  0.66334  1.0000
  H   H1008     1.0  0.17556  0.57698  0.64792  1.0000
  H   H1009     1.0  0.21582  0.56060  0.62852  1.0000
  H   H1010     1.0  0.23634  0.57421  0.63299  1.0000
  H   H1011     1.0  0.20867  0.58924  0.63132  1.0000
  H   H1012     1.0  0.22111  0.52994  0.64964  1.0000
  H   H1013     1.0  0.24215  0.54374  0.65309  1.0000
  H   H1014     1.0  0.21928  0.53763  0.66693  1.0000
  H   H1015     1.0  0.24991  0.57785  0.65321  1.0000
  H   H1016     1.0  0.17777  0.59245  0.66734  1.0000
  H   H1017     1.0  0.41804  0.61406  0.59321  1.0000
  H   H1018     1.0  0.44858  0.59266  0.62273  1.0000
  S   S225      1.0  0.05956  0.49337  0.48310  1.0000
  H   H1019     1.0  0.00251  0.49269  0.54833  1.0000
  H   H1020     1.0  0.34577  0.37176  0.66427  1.0000
  C   C869      1.0  0.42472  0.62818  0.63499  1.0000
  C   C870      1.0  0.41189  0.61048  0.64052  1.0000
  H   H1021     1.0  0.00699  0.61051  0.49496  1.0000
  Fe  Fe113     1.0  0.48528  0.53445  0.54823  1.0000
  H   H1022     1.0  0.42472  0.57487  0.58914  1.0000
  H   H1023     1.0  0.06480  0.57903  0.49688  1.0000
  H   H1024     1.0  0.41110  0.53558  0.53155  1.0000
  H   H1025     1.0  0.99295  0.40649  0.48801  1.0000
  C   C871      1.0  0.38440  0.51584  0.51990  1.0000
  C   C872      1.0  0.01590  0.60384  0.48514  1.0000
  C   C873      1.0  0.03957  0.55822  0.62502  1.0000
  C   C874      1.0  0.47130  0.63689  0.58238  1.0000
  C   C875      1.0  0.41765  0.63994  0.71994  1.0000
  H   H1026     1.0  0.99387  0.63836  0.65320  1.0000
  H   H1027     1.0  0.02001  0.63022  0.64226  1.0000
  N   N56       1.0  0.99572  0.43966  0.47613  1.0000
  H   H1028     1.0  0.08883  0.52729  0.47607  1.0000
  C   C876      1.0  0.37731  0.63669  0.64364  1.0000
  C   C877      1.0  0.01960  0.64609  0.57352  1.0000
  C   C878      1.0  0.00691  0.46843  0.48835  1.0000
  H   H1029     1.0  0.03203  0.60633  0.66353  1.0000
  H   H1030     1.0  0.01474  0.49208  0.49985  1.0000
  C   C879      1.0  0.00562  0.47826  0.50046  1.0000
  C   C880      1.0  0.99518  0.45026  0.48878  1.0000
  H   H1031     1.0  0.41193  0.63329  0.69960  1.0000
  N   N57       1.0  0.03349  0.58450  0.48857  1.0000
  H   H1032     1.0  0.05910  0.60567  0.48605  1.0000
  H   H1033     1.0  0.26846  0.64737  0.65877  1.0000
  H   H1034     1.0  0.01715  0.47554  0.47878  1.0000
  H   H1035     1.0  0.35786  0.64701  0.72183  1.0000
  C   C881      1.0  0.40693  0.60534  0.71583  1.0000
  H   H1036     1.0  0.00233  0.56044  0.48419  1.0000
  H   H1037     1.0  0.39469  0.64678  0.67674  1.0000
  C   C882      1.0  0.04426  0.57600  0.47515  1.0000
  H   H1038     1.0  0.02323  0.61771  0.47760  1.0000
  H   H1039     1.0  0.06210  0.64688  0.58037  1.0000
  H   H1040     1.0  0.00061  0.62014  0.57292  1.0000
  H   H1041     1.0  0.45710  0.64863  0.57897  1.0000
  H   H1042     1.0  0.99172  0.47804  0.52267  1.0000
  Fe  Fe114     1.0  0.43902  0.40553  0.91447  1.0000
  S   S226      1.0  0.42308  0.38173  0.93237  1.0000
  S   S227      1.0  0.42358  0.41886  0.89447  1.0000
  C   C883      1.0  0.35785  0.54805  0.86518  1.0000
  S   S228      1.0  0.46873  0.37689  0.94674  1.0000
  Fe  Fe115     1.0  0.45753  0.36108  0.93060  1.0000
  C   C884      1.0  0.40717  0.59602  0.73010  1.0000
  Fe  Fe116     1.0  0.43581  0.39988  0.94664  1.0000
  S   S229      1.0  0.47288  0.38381  0.91189  1.0000
  S   S230      1.0  0.44894  0.42568  0.92879  1.0000
  Fe  Fe117     1.0  0.30413  0.42255  0.87739  1.0000
  S   S231      1.0  0.32232  0.43627  0.85604  1.0000
  S   S232      1.0  0.31999  0.41443  0.89748  1.0000
  Fe  Fe118     1.0  0.25995  0.42448  0.86643  1.0000
  S   S233      1.0  0.27498  0.43845  0.84420  1.0000
  S   S234      1.0  0.22354  0.42003  0.86739  1.0000
  Fe  Fe119     1.0  0.30525  0.41285  0.84786  1.0000
  S   S235      1.0  0.32418  0.39431  0.83013  1.0000
  Fe  Fe120     1.0  0.29051  0.46065  0.85424  1.0000
  S   S236      1.0  0.28698  0.49795  0.84580  1.0000
  S   S237      1.0  0.28944  0.39710  0.86940  1.0000
  S   S238      1.0  0.27320  0.44874  0.87629  1.0000
  Fe  Fe121     1.0  0.35861  0.59388  0.81618  1.0000
  S   S239      1.0  0.38728  0.61363  0.80724  1.0000
  S   S240      1.0  0.36594  0.55593  0.82137  1.0000
  H   H1043     1.0  0.43416  0.37019  0.88516  1.0000
  H   H1044     1.0  0.13028  0.41089  0.95600  1.0000
  H   H1045     1.0  0.11551  0.48898  0.90762  1.0000
  H   H1046     1.0  0.12406  0.43631  0.89315  1.0000
  S   S241      1.0  0.33622  0.61250  0.80039  1.0000
  S   S242      1.0  0.34371  0.61548  0.83286  1.0000
  H   H1047     1.0  0.10057  0.43340  0.90721  1.0000
  Fe  Fe122     1.0  0.07640  0.39502  0.91274  1.0000
  S   S243      1.0  0.06104  0.36388  0.92163  1.0000
  S   S244      1.0  0.05566  0.42502  0.90164  1.0000
  Fe  Fe123     1.0  0.12258  0.37362  0.92018  1.0000
  S   S245      1.0  0.11091  0.34067  0.92993  1.0000
  S   S246      1.0  0.15841  0.37786  0.92087  1.0000
  Fe  Fe124     1.0  0.09301  0.34560  0.91093  1.0000
  C   C885      1.0  0.02319  0.32665  0.88155  1.0000
  Fe  Fe125     1.0  0.08006  0.36179  0.93982  1.0000
  H   H1048     1.0  0.45157  0.46112  0.95906  1.0000
  S   S247      1.0  0.10704  0.37718  0.90050  1.0000
  S   S248      1.0  0.09303  0.39429  0.93164  1.0000
  H   H1049     1.0  0.00770  0.45402  0.95244  1.0000
  C   C886      1.0  0.04332  0.44672  0.91144  1.0000
  C   C887      1.0  0.05252  0.44982  0.92299  1.0000
  C   C888      1.0  0.04276  0.46752  0.93048  1.0000
  C   C889      1.0  0.02347  0.48189  0.92671  1.0000
  C   C890      1.0  0.45272  0.45419  0.97047  1.0000
  C   C891      1.0  0.02423  0.46134  0.90750  1.0000
  H   H1050     1.0  0.06727  0.43878  0.92607  1.0000
  H   H1051     1.0  0.04988  0.46993  0.93939  1.0000
  H   H1052     1.0  0.37707  0.51668  0.87193  1.0000
  H   H1053     1.0  0.46308  0.41275  0.96474  1.0000
  C   C892      1.0  0.29114  0.34050  0.83836  1.0000
  C   C893      1.0  0.42276  0.33054  0.88433  1.0000
  C   C894      1.0  0.34193  0.51298  0.87287  1.0000
  C   C895      1.0  0.00395  0.62863  0.89831  1.0000
  H   H1054     1.0  0.10377  0.37243  0.96204  1.0000
  H   H1055     1.0  0.99521  0.59797  0.91164  1.0000
  C   C896      1.0  0.36040  0.52504  0.87029  1.0000
  H   H1056     1.0  0.13140  0.34540  0.87876  1.0000
  H   H1057     1.0  0.36152  0.48368  0.85634  1.0000
  H   H1058     1.0  0.37932  0.34881  0.89411  1.0000
  C   C897      1.0  0.35869  0.61436  0.76027  1.0000
  C   C898      1.0  0.35249  0.60463  0.74982  1.0000
  H   H1059     1.0  0.01711  0.45907  0.89851  1.0000
  S   S249      1.0  0.41597  0.41403  0.96591  1.0000
  N   N58       1.0  0.34537  0.48840  0.87755  1.0000
  H   H1060     1.0  0.35944  0.60500  0.77087  1.0000
  H   H1061     1.0  0.34824  0.58785  0.75248  1.0000
  H   H1062     1.0  0.30193  0.55783  0.86357  1.0000
  H   H1063     1.0  0.09365  0.47410  0.90539  1.0000
  C   C899      1.0  0.20551  0.40909  0.88257  1.0000
  C   C900      1.0  0.21233  0.40268  0.89596  1.0000
  C   C901      1.0  0.19762  0.39330  0.90765  1.0000
  C   C902      1.0  0.17603  0.39038  0.90604  1.0000
  C   C903      1.0  0.16907  0.39716  0.89271  1.0000
  C   C904      1.0  0.18378  0.40646  0.88102  1.0000
  H   H1064     1.0  0.22902  0.40470  0.89726  1.0000
  H   H1065     1.0  0.20310  0.38813  0.91796  1.0000
  H   H1066     1.0  0.15252  0.39500  0.89132  1.0000
  H   H1067     1.0  0.17845  0.41138  0.87066  1.0000
  C   C905      1.0  0.30927  0.51374  0.83927  1.0000
  C   C906      1.0  0.30415  0.53713  0.83587  1.0000
  C   C907      1.0  0.32137  0.55032  0.83058  1.0000
  C   C908      1.0  0.34387  0.54013  0.82858  1.0000
  C   C909      1.0  0.34899  0.51672  0.83196  1.0000
  C   C910      1.0  0.33176  0.50356  0.83729  1.0000
  H   H1068     1.0  0.28677  0.54514  0.83734  1.0000
  H   H1069     1.0  0.31724  0.56833  0.82797  1.0000
  H   H1070     1.0  0.36636  0.50878  0.83029  1.0000
  H   H1071     1.0  0.33591  0.48558  0.83979  1.0000
  H   H1072     1.0  0.48563  0.64723  0.85827  1.0000
  C   C911      1.0  0.14883  0.34940  0.87507  1.0000
  C   C912      1.0  0.32651  0.35631  0.81861  1.0000
  C   C913      1.0  0.31539  0.36890  0.82925  1.0000
  C   C914      1.0  0.29759  0.36099  0.83907  1.0000
  H   H1073     1.0  0.32822  0.45947  0.88131  1.0000
  H   H1074     1.0  0.09108  0.47838  0.92859  1.0000
  H   H1075     1.0  0.34022  0.36239  0.81094  1.0000
  H   H1076     1.0  0.28874  0.37067  0.84720  1.0000
  N   N59       1.0  0.16551  0.33332  0.88273  1.0000
  C   C915      1.0  0.39489  0.41718  0.89549  1.0000
  C   C916      1.0  0.38067  0.41457  0.90861  1.0000
  C   C917      1.0  0.35776  0.41348  0.90909  1.0000
  C   C918      1.0  0.34898  0.41487  0.89649  1.0000
  C   C919      1.0  0.36332  0.41697  0.88340  1.0000
  C   C920      1.0  0.38616  0.41841  0.88289  1.0000
  H   H1077     1.0  0.38718  0.41383  0.91838  1.0000
  H   H1078     1.0  0.34675  0.41181  0.91927  1.0000
  H   H1079     1.0  0.35684  0.41757  0.87366  1.0000
  H   H1080     1.0  0.39714  0.42026  0.87271  1.0000
  H   H1081     1.0  0.11772  0.47663  0.89197  1.0000
  H   H1082     1.0  0.05119  0.41103  0.96911  1.0000
  H   H1083     1.0  0.18961  0.33827  0.85559  1.0000
  H   H1084     1.0  0.41249  0.60106  0.75054  1.0000
  H   H1085     1.0  0.15573  0.34922  0.90146  1.0000
  H   H1086     1.0  0.39833  0.34666  0.87001  1.0000
  H   H1087     1.0  0.48609  0.45237  0.92493  1.0000
  H   H1088     1.0  0.33499  0.57754  0.85856  1.0000
  S   S250      1.0  0.06189  0.35593  0.96248  1.0000
  C   C921      1.0  0.15736  0.33249  0.89827  1.0000
  H   H1089     1.0  0.02109  0.62131  0.89474  1.0000
  C   C922      1.0  0.30232  0.32786  0.82777  1.0000
  H   H1090     1.0  0.02886  0.37465  0.89228  1.0000
  C   C923      1.0  0.31994  0.33588  0.81782  1.0000
  H   H1091     1.0  0.44802  0.34925  0.89763  1.0000
  C   C924      1.0  0.02076  0.36238  0.88921  1.0000
  H   H1092     1.0  0.42811  0.32041  0.91298  1.0000
  H   H1093     1.0  0.42162  0.63833  0.74234  1.0000
  C   C925      1.0  0.21890  0.34954  0.85874  1.0000
  C   C926      1.0  0.01412  0.47876  0.91523  1.0000
  C   C927      1.0  0.35760  0.63805  0.73257  1.0000
  H   H1094     1.0  0.30555  0.51798  0.87205  1.0000
  H   H1095     1.0  0.99626  0.32522  0.85496  1.0000
  C   C928      1.0  0.00615  0.43609  0.95303  1.0000
  C   C929      1.0  0.36390  0.47762  0.86760  1.0000
  H   H1096     1.0  0.38074  0.48085  0.86870  1.0000
  H   H1097     1.0  0.36490  0.45915  0.86946  1.0000
  H   H1098     1.0  0.36753  0.48934  0.89239  1.0000
  H   H1099     1.0  0.35428  0.46481  0.89594  1.0000
  C   C930      1.0  0.42144  0.32126  0.86087  1.0000
  H   H1100     1.0  0.31934  0.48131  0.86748  1.0000
  N   N60       1.0  0.31150  0.47277  0.80587  1.0000
  C   C931      1.0  0.28659  0.47524  0.80984  1.0000
  C   C932      1.0  0.31779  0.46095  0.79334  1.0000
  C   C933      1.0  0.32134  0.45844  0.81802  1.0000
  C   C934      1.0  0.32034  0.49438  0.80251  1.0000
  C   C935      1.0  0.34381  0.49482  0.79827  1.0000
  C   C936      1.0  0.30628  0.51538  0.80344  1.0000
  C   C937      1.0  0.35262  0.51496  0.79516  1.0000
  C   C938      1.0  0.31527  0.53542  0.80015  1.0000
  C   C939      1.0  0.33836  0.53522  0.79606  1.0000
  H   H1101     1.0  0.27796  0.48557  0.80109  1.0000
  H   H1102     1.0  0.28048  0.45873  0.81222  1.0000
  H   H1103     1.0  0.28074  0.48298  0.81970  1.0000
  H   H1104     1.0  0.33631  0.45624  0.79059  1.0000
  H   H1105     1.0  0.31154  0.47157  0.78378  1.0000
  H   H1106     1.0  0.31068  0.44497  0.79538  1.0000
  H   H1107     1.0  0.34000  0.45467  0.81581  1.0000
  H   H1108     1.0  0.31669  0.46664  0.82768  1.0000
  H   H1109     1.0  0.31520  0.44195  0.82078  1.0000
  H   H1110     1.0  0.35561  0.47955  0.79757  1.0000
  H   H1111     1.0  0.28836  0.51680  0.80709  1.0000
  H   H1112     1.0  0.37064  0.51492  0.79237  1.0000
  H   H1113     1.0  0.30438  0.55119  0.80135  1.0000
  H   H1114     1.0  0.34533  0.55074  0.79413  1.0000
  H   H1115     1.0  0.05153  0.33962  0.88556  1.0000
  C   C940      1.0  0.32059  0.52558  0.87058  1.0000
  H   H1116     1.0  0.14157  0.41852  0.93030  1.0000
  C   C941      1.0  0.41273  0.33403  0.87177  1.0000
  H   H1117     1.0  0.19450  0.34488  0.89895  1.0000
  H   H1118     1.0  0.15407  0.45769  0.89540  1.0000
  C   C942      1.0  0.32503  0.47800  0.87807  1.0000
  H   H1119     1.0  0.01413  0.43138  0.94244  1.0000
  H   H1120     1.0  0.24633  0.36152  0.86459  1.0000
  H   H1121     1.0  0.30525  0.62546  0.74460  1.0000
  H   H1122     1.0  0.48889  0.55760  0.89476  1.0000
  C   C943      1.0  0.47730  0.42256  0.96232  1.0000
  H   H1123     1.0  0.12785  0.41784  0.90942  1.0000
  H   H1124     1.0  0.31080  0.48415  0.88607  1.0000
  C   C944      1.0  0.48769  0.32110  0.90551  1.0000
  H   H1125     1.0  0.48808  0.33872  0.90473  1.0000
  C   C945      1.0  0.20064  0.34557  0.88768  1.0000
  H   H1126     1.0  0.40232  0.57961  0.73410  1.0000
  C   C946      1.0  0.35163  0.48323  0.89204  1.0000
  N   N61       1.0  0.01689  0.42167  0.96486  1.0000
  H   H1127     1.0  0.33821  0.49112  0.89984  1.0000
  C   C947      1.0  0.19805  0.34212  0.86350  1.0000
  H   H1128     1.0  0.32856  0.32632  0.80955  1.0000
  C   C948      1.0  0.18810  0.34019  0.87810  1.0000
  C   C949      1.0  0.33681  0.55981  0.86283  1.0000
  C   C950      1.0  0.03352  0.34263  0.88541  1.0000
  C   C951      1.0  0.31820  0.54865  0.86568  1.0000
  H   H1129     1.0  0.08104  0.47026  0.95426  1.0000
  H   H1130     1.0  0.38657  0.36826  0.90349  1.0000
  N   N62       1.0  0.12413  0.45296  0.91092  1.0000
  C   C952      1.0  0.14871  0.45373  0.90715  1.0000
  C   C953      1.0  0.11895  0.43433  0.90494  1.0000
  C   C954      1.0  0.11220  0.47414  0.90374  1.0000
  C   C955      1.0  0.11756  0.44914  0.92665  1.0000
  C   C956      1.0  0.12832  0.43023  0.93509  1.0000
  C   C957      1.0  0.10030  0.46356  0.93402  1.0000
  C   C958      1.0  0.12196  0.42571  0.94988  1.0000
  C   C959      1.0  0.09421  0.45901  0.94887  1.0000
  C   C960      1.0  0.10491  0.44005  0.95677  1.0000
  H   H1131     1.0  0.15362  0.46659  0.91219  1.0000
  H   H1132     1.0  0.15905  0.43741  0.91058  1.0000
  C   C961      1.0  0.36448  0.63593  0.75684  1.0000
  H   H1133     1.0  0.04886  0.41927  0.95082  1.0000
  H   H1134     1.0  0.40471  0.33971  0.91877  1.0000
  C   C962      1.0  0.09407  0.37210  0.97263  1.0000
  H   H1135     1.0  0.37233  0.55680  0.86273  1.0000
  H   H1136     1.0  0.04437  0.44030  0.96216  1.0000
  H   H1137     1.0  0.29264  0.63999  0.77280  1.0000
  Fe  Fe126     1.0  0.36349  0.63397  0.79273  1.0000
  H   H1138     1.0  0.27745  0.33441  0.84605  1.0000
  H   H1139     1.0  0.27864  0.62162  0.75552  1.0000
  C   C963      1.0  0.23050  0.35511  0.86835  1.0000
  C   C964      1.0  0.41188  0.32976  0.91002  1.0000
  C   C965      1.0  0.36380  0.64778  0.74300  1.0000
  H   H1140     1.0  0.41367  0.32415  0.85134  1.0000
  H   H1141     1.0  0.40059  0.31733  0.91034  1.0000
  N   N63       1.0  0.41464  0.34429  0.89585  1.0000
  H   H1142     1.0  0.42587  0.36997  0.90393  1.0000
  H   H1143     1.0  0.22603  0.35132  0.84751  1.0000
  Fe  Fe127     1.0  0.37057  0.63683  0.82286  1.0000
  H   H1144     1.0  0.15227  0.34937  0.86338  1.0000
  C   C966      1.0  0.01395  0.39827  0.96484  1.0000
  C   C967      1.0  0.41289  0.60813  0.73934  1.0000
  H   H1145     1.0  0.14879  0.36680  0.87678  1.0000
  H   H1146     1.0  0.23050  0.35752  0.89019  1.0000
  C   C968      1.0  0.22152  0.35287  0.88279  1.0000
  H   H1147     1.0  0.39388  0.37176  0.88468  1.0000
  S   S251      1.0  0.46055  0.32361  0.93164  1.0000
  C   C969      1.0  0.39264  0.35879  0.89440  1.0000
  C   C970      1.0  0.28741  0.63346  0.74706  1.0000
  H   H1148     1.0  0.02116  0.39279  0.95435  1.0000
  H   H1149     1.0  0.10008  0.43644  0.96825  1.0000
  S   S252      1.0  0.01136  0.50298  0.93699  1.0000
  C   C971      1.0  0.35192  0.61645  0.73594  1.0000
  H   H1150     1.0  0.99923  0.48982  0.91225  1.0000
  C   C972      1.0  0.43142  0.35899  0.89563  1.0000
  C   C973      1.0  0.04133  0.42319  0.96165  1.0000
  Fe  Fe128     1.0  0.48128  0.40168  0.92805  1.0000
  Fe  Fe129     1.0  0.32366  0.63584  0.81637  1.0000
  C   C974      1.0  0.41807  0.62977  0.73442  1.0000
  H   H1151     1.0  0.14038  0.32723  0.90141  1.0000
  H   H1152     1.0  0.47768  0.43077  0.95100  1.0000
  H   H1153     1.0  0.16875  0.32030  0.90478  1.0000
  H   H1154     1.0  0.02263  0.38614  0.97289  1.0000
  H   H1155     1.0  0.31707  0.64494  0.76010  1.0000
  C   C975      1.0  0.99962  0.32997  0.88141  1.0000
  S   S253      1.0  0.28688  0.64832  0.82282  1.0000
  H   H1156     1.0  0.28011  0.63487  0.73716  1.0000
  H   H1157     1.0  0.99584  0.39628  0.96722  1.0000
  C   C976      1.0  0.99761  0.36628  0.88911  1.0000
  S   S254      1.0  0.37304  0.64838  0.76947  1.0000
  S   S255      1.0  0.09658  0.32015  0.89605  1.0000
  H   H1158     1.0  0.27399  0.32210  0.75164  1.0000
  N   N64       1.0  0.47430  0.43914  0.97212  1.0000
  H   H1159     1.0  0.25195  0.31633  0.74345  1.0000
  Fe  Fe130     1.0  0.28757  0.74120  0.18863  1.0000
  S   S256      1.0  0.30857  0.75031  0.16731  1.0000
  S   S257      1.0  0.25283  0.73100  0.19242  1.0000
  Fe  Fe131     1.0  0.32257  0.74785  0.20529  1.0000
  S   S258      1.0  0.34658  0.75733  0.18543  1.0000
  Fe  Fe132     1.0  0.31656  0.77804  0.17674  1.0000
  S   S259      1.0  0.32615  0.80940  0.16218  1.0000
  Fe  Fe133     1.0  0.33737  0.72921  0.17726  1.0000
  S   S260      1.0  0.36261  0.70741  0.16355  1.0000
  S   S261      1.0  0.29298  0.77107  0.19745  1.0000
  S   S262      1.0  0.31574  0.71761  0.19781  1.0000
  S   S263      1.0  0.46353  0.72584  0.15246  1.0000
  H   H1160     1.0  0.24962  0.92373  0.05589  1.0000
  Fe  Fe134     1.0  0.42905  0.89664  0.06546  1.0000
  S   S264      1.0  0.43312  0.92668  0.04843  1.0000
  S   S265      1.0  0.39973  0.88631  0.08194  1.0000
  Fe  Fe135     1.0  0.45406  0.90223  0.03482  1.0000
  S   S266      1.0  0.45374  0.91234  0.01103  1.0000
  Fe  Fe136     1.0  0.46553  0.92719  0.05607  1.0000
  S   S267      1.0  0.44725  0.87181  0.05120  1.0000
  S   S268      1.0  0.45941  0.89965  0.07446  1.0000
  H   H1161     1.0  0.22557  0.70696  0.12929  1.0000
  H   H1162     1.0  0.24260  0.94164  0.08886  1.0000
  H   H1163     1.0  0.17151  0.72386  0.18552  1.0000
  Fe  Fe137     1.0  0.26035  0.92763  0.13880  1.0000
  S   S269      1.0  0.26014  0.92450  0.11599  1.0000
  S   S270      1.0  0.25496  0.89826  0.15643  1.0000
  Fe  Fe138     1.0  0.28403  0.94987  0.11092  1.0000
  S   S271      1.0  0.31102  0.95664  0.09197  1.0000
  Fe  Fe139     1.0  0.23245  0.95391  0.11663  1.0000
  S   S272      1.0  0.19987  0.95773  0.10722  1.0000
  S   S273      1.0  0.28713  0.95012  0.13373  1.0000
  S   S274      1.0  0.23157  0.95630  0.13969  1.0000
  Fe  Fe140     1.0  0.12501  0.89318  0.07073  1.0000
  S   S275      1.0  0.09557  0.88507  0.08749  1.0000
  S   S276      1.0  0.16011  0.89402  0.07589  1.0000
  Fe  Fe141     1.0  0.09942  0.88942  0.04641  1.0000
  S   S277      1.0  0.06832  0.88109  0.06158  1.0000
  S   S278      1.0  0.10435  0.89313  0.02208  1.0000
  Fe  Fe142     1.0  0.07416  0.90828  0.07254  1.0000
  S   S279      1.0  0.04502  0.93247  0.08170  1.0000
  Fe  Fe143     1.0  0.09224  0.85857  0.07520  1.0000
  S   S280      1.0  0.09108  0.82269  0.08666  1.0000
  S   S281      1.0  0.10378  0.91833  0.05651  1.0000
  S   S282      1.0  0.12311  0.86501  0.05924  1.0000
  C   C977      1.0  0.06270  0.67316  0.14765  1.0000
  Fe  Fe144     1.0  0.01487  0.69578  0.13035  1.0000
  S   S283      1.0  0.02932  0.69847  0.10699  1.0000
  C   C978      1.0  0.03101  0.92408  0.02614  1.0000
  Fe  Fe145     1.0  0.47782  0.87622  0.05953  1.0000
  Fe  Fe146     1.0  0.00754  0.73236  0.10495  1.0000
  S   S284      1.0  0.01283  0.76530  0.09032  1.0000
  H   H1164     1.0  0.34288  0.84343  0.18906  1.0000
  C   C979      1.0  0.09065  0.88212  0.01086  1.0000
  C   C980      1.0  0.09762  0.88614  0.99601  1.0000
  C   C981      1.0  0.08808  0.87673  0.98674  1.0000
  C   C982      1.0  0.07182  0.86275  0.99230  1.0000
  C   C983      1.0  0.06441  0.85922  0.00711  1.0000
  C   C984      1.0  0.07340  0.86927  0.01630  1.0000
  H   H1165     1.0  0.11075  0.89632  0.99165  1.0000
  C   C985      1.0  0.22758  0.70142  0.18754  1.0000
  H   H1166     1.0  0.05175  0.84853  0.01152  1.0000
  H   H1167     1.0  0.06703  0.86705  0.02758  1.0000
  C   C986      1.0  0.06833  0.80769  0.08835  1.0000
  C   C987      1.0  0.06932  0.78621  0.09660  1.0000
  C   C988      1.0  0.05224  0.77315  0.09755  1.0000
  C   C989      1.0  0.03419  0.78138  0.09006  1.0000
  C   C990      1.0  0.03316  0.80289  0.08184  1.0000
  C   C991      1.0  0.05005  0.81609  0.08106  1.0000
  H   H1168     1.0  0.08343  0.77957  0.10224  1.0000
  H   H1169     1.0  0.05325  0.75660  0.10390  1.0000
  H   H1170     1.0  0.01927  0.80937  0.07599  1.0000
  H   H1171     1.0  0.04903  0.83262  0.07472  1.0000
  H   H1172     1.0  0.99101  0.87763  0.00556  1.0000
  C   C992      1.0  0.03298  0.95469  0.06972  1.0000
  C   C993      1.0  0.04237  0.95827  0.05530  1.0000
  H   H1173     1.0  0.28102  0.97012  0.05919  1.0000
  H   H1174     1.0  0.09395  0.87961  0.97537  1.0000
  H   H1175     1.0  0.05718  0.94725  0.05136  1.0000
  H   H1176     1.0  0.20210  0.98006  0.07002  1.0000
  C   C994      1.0  0.40571  0.80528  0.18063  1.0000
  C   C995      1.0  0.25637  0.94399  0.07967  1.0000
  H   H1177     1.0  0.44391  0.85151  0.08449  1.0000
  C   C996      1.0  0.26702  0.96375  0.05604  1.0000
  C   C997      1.0  0.23318  0.93382  0.05715  1.0000
  C   C998      1.0  0.17026  0.91150  0.08526  1.0000
  C   C999      1.0  0.19237  0.90559  0.08842  1.0000
  C   C1000     1.0  0.20152  0.91914  0.09544  1.0000
  C   C1001     1.0  0.18876  0.93907  0.09923  1.0000
  C   C1002     1.0  0.16658  0.94489  0.09618  1.0000
  C   C1003     1.0  0.15732  0.93117  0.08932  1.0000
  H   H1178     1.0  0.20253  0.89043  0.08533  1.0000
  H   H1179     1.0  0.21853  0.91422  0.09769  1.0000
  H   H1180     1.0  0.32871  0.84805  0.20636  1.0000
  H   H1181     1.0  0.14031  0.93597  0.08698  1.0000
  Fe  Fe147     1.0  0.99852  0.68432  0.10512  1.0000
  H   H1182     1.0  0.17248  0.96634  0.06227  1.0000
  C   C1004     1.0  0.18223  0.71717  0.12693  1.0000
  C   C1005     1.0  0.43961  0.89909  0.00147  1.0000
  C   C1006     1.0  0.43527  0.90974  0.98785  1.0000
  C   C1007     1.0  0.48485  0.86783  0.97675  1.0000
  H   H1183     1.0  0.42769  0.77381  0.17958  1.0000
  C   C1008     1.0  0.42664  0.86601  0.99763  1.0000
  C   C1009     1.0  0.43483  0.87735  0.00647  1.0000
  H   H1184     1.0  0.00640  0.96631  0.08587  1.0000
  H   H1185     1.0  0.12732  0.83988  0.99581  1.0000
  H   H1186     1.0  0.42356  0.84895  0.00139  1.0000
  H   H1187     1.0  0.43817  0.86900  0.01693  1.0000
  C   C1010     1.0  0.37537  0.90619  0.08484  1.0000
  C   C1011     1.0  0.35799  0.90083  0.09603  1.0000
  C   C1012     1.0  0.33823  0.91629  0.09846  1.0000
  C   C1013     1.0  0.33575  0.93708  0.08961  1.0000
  C   C1014     1.0  0.35316  0.94247  0.07849  1.0000
  C   C1015     1.0  0.37298  0.92711  0.07614  1.0000
  H   H1188     1.0  0.35975  0.88466  0.10278  1.0000
  H   H1189     1.0  0.32486  0.91201  0.10706  1.0000
  H   H1190     1.0  0.31998  0.97680  0.11621  1.0000
  H   H1191     1.0  0.38625  0.93134  0.06748  1.0000
  S   S285      1.0  0.06116  0.84841  0.98131  1.0000
  H   H1192     1.0  0.27043  0.94894  0.08363  1.0000
  C   C1016     1.0  0.37858  0.78152  0.20256  1.0000
  H   H1193     1.0  0.47950  0.83162  0.10199  1.0000
  C   C1017     1.0  0.24842  0.70929  0.18411  1.0000
  C   C1018     1.0  0.26530  0.69969  0.17420  1.0000
  C   C1019     1.0  0.26138  0.68229  0.16783  1.0000
  H   H1194     1.0  0.28142  0.70563  0.17148  1.0000
  H   H1195     1.0  0.27461  0.67484  0.16026  1.0000
  C   C1020     1.0  0.39111  0.71090  0.16133  1.0000
  C   C1021     1.0  0.39852  0.72281  0.17008  1.0000
  C   C1022     1.0  0.42089  0.72692  0.16738  1.0000
  C   C1023     1.0  0.43604  0.71907  0.15598  1.0000
  C   C1024     1.0  0.42881  0.70665  0.14745  1.0000
  C   C1025     1.0  0.40641  0.70253  0.15015  1.0000
  H   H1196     1.0  0.38715  0.72864  0.17902  1.0000
  H   H1197     1.0  0.42655  0.73605  0.17421  1.0000
  H   H1198     1.0  0.44043  0.70021  0.13879  1.0000
  H   H1199     1.0  0.40086  0.69304  0.14346  1.0000
  C   C1026     1.0  0.30600  0.83379  0.16044  1.0000
  C   C1027     1.0  0.31131  0.85234  0.15022  1.0000
  C   C1028     1.0  0.29571  0.87217  0.14875  1.0000
  C   C1029     1.0  0.27483  0.87360  0.15763  1.0000
  C   C1030     1.0  0.26952  0.85502  0.16783  1.0000
  C   C1031     1.0  0.28502  0.83512  0.16919  1.0000
  H   H1200     1.0  0.32754  0.85140  0.14343  1.0000
  H   H1201     1.0  0.29993  0.88643  0.14089  1.0000
  H   H1202     1.0  0.25340  0.85607  0.17474  1.0000
  H   H1203     1.0  0.28078  0.82092  0.17710  1.0000
  H   H1204     1.0  0.19434  0.71537  0.11693  1.0000
  N   N65       1.0  0.10282  0.81042  0.04321  1.0000
  C   C1032     1.0  0.08869  0.83150  0.04666  1.0000
  C   C1033     1.0  0.09215  0.79147  0.05210  1.0000
  C   C1034     1.0  0.12522  0.80905  0.04749  1.0000
  C   C1035     1.0  0.10510  0.81056  0.02767  1.0000
  C   C1036     1.0  0.11721  0.82610  0.01782  1.0000
  C   C1037     1.0  0.09414  0.79670  0.02183  1.0000
  C   C1038     1.0  0.11859  0.82738  0.00310  1.0000
  C   C1039     1.0  0.09544  0.79833  0.00707  1.0000
  C   C1040     1.0  0.10763  0.81363  0.99774  1.0000
  H   H1205     1.0  0.08650  0.83230  0.05821  1.0000
  H   H1206     1.0  0.09624  0.84650  0.04093  1.0000
  H   H1207     1.0  0.07160  0.83311  0.04379  1.0000
  H   H1208     1.0  0.07419  0.79279  0.05084  1.0000
  H   H1209     1.0  0.09189  0.79116  0.06370  1.0000
  H   H1210     1.0  0.10147  0.77506  0.04954  1.0000
  H   H1211     1.0  0.13329  0.82413  0.04280  1.0000
  H   H1212     1.0  0.12389  0.80795  0.05927  1.0000
  H   H1213     1.0  0.13690  0.79413  0.04424  1.0000
  H   H1214     1.0  0.12485  0.83816  0.02138  1.0000
  H   H1215     1.0  0.08402  0.78483  0.02843  1.0000
  S   S286      1.0  0.23703  0.65150  0.16373  1.0000
  H   H1216     1.0  0.08645  0.78813  0.00279  1.0000
  H   H1217     1.0  0.47479  0.87901  0.98415  1.0000
  N   N66       1.0  0.19592  0.88948  0.14026  1.0000
  C   C1041     1.0  0.21563  0.87141  0.13905  1.0000
  C   C1042     1.0  0.20444  0.91114  0.13535  1.0000
  C   C1043     1.0  0.18616  0.88815  0.15559  1.0000
  C   C1044     1.0  0.17844  0.88810  0.13182  1.0000
  C   C1045     1.0  0.15847  0.90407  0.13204  1.0000
  C   C1046     1.0  0.18073  0.87138  0.12306  1.0000
  C   C1047     1.0  0.14183  0.90331  0.12405  1.0000
  C   C1048     1.0  0.16396  0.87083  0.11511  1.0000
  C   C1049     1.0  0.14456  0.88671  0.11562  1.0000
  H   H1218     1.0  0.22464  0.87220  0.12788  1.0000
  H   H1219     1.0  0.22834  0.87288  0.14562  1.0000
  H   H1220     1.0  0.21058  0.85454  0.14288  1.0000
  H   H1221     1.0  0.21771  0.91269  0.14140  1.0000
  H   H1222     1.0  0.19110  0.92585  0.13664  1.0000
  H   H1223     1.0  0.21184  0.91289  0.12388  1.0000
  H   H1224     1.0  0.17868  0.87250  0.15960  1.0000
  H   H1225     1.0  0.19919  0.88837  0.16225  1.0000
  H   H1226     1.0  0.17280  0.90255  0.15767  1.0000
  H   H1227     1.0  0.15575  0.91757  0.13816  1.0000
  H   H1228     1.0  0.19544  0.85879  0.12193  1.0000
  H   H1229     1.0  0.12696  0.91599  0.12409  1.0000
  H   H1230     1.0  0.16623  0.85847  0.10810  1.0000
  H   H1231     1.0  0.13198  0.88657  0.10907  1.0000
  C   C1050     1.0  0.02261  0.90619  0.97797  1.0000
  C   C1051     1.0  0.47967  0.95853  0.98306  1.0000
  H   H1232     1.0  0.40344  0.75265  0.19888  1.0000
  C   C1052     1.0  0.42313  0.87634  0.98380  1.0000
  H   H1233     1.0  0.20748  0.67565  0.12922  1.0000
  C   C1053     1.0  0.38560  0.81641  0.18730  1.0000
  H   H1234     1.0  0.11120  0.67714  0.12404  1.0000
  C   C1054     1.0  0.34487  0.84030  0.20054  1.0000
  H   H1235     1.0  0.19832  0.71933  0.16409  1.0000
  H   H1236     1.0  0.47362  0.82536  0.05923  1.0000
  H   H1237     1.0  0.01973  0.86942  0.99794  1.0000
  H   H1238     1.0  0.47111  0.84782  0.11624  1.0000
  H   H1239     1.0  0.36536  0.82057  0.22329  1.0000
  H   H1240     1.0  0.15650  0.96022  0.09906  1.0000
  C   C1055     1.0  0.46718  0.84562  0.10585  1.0000
  H   H1241     1.0  0.06864  0.65325  0.10209  1.0000
  H   H1242     1.0  0.10787  0.81542  0.98632  1.0000
  H   H1243     1.0  0.33257  0.78746  0.20878  1.0000
  C   C1056     1.0  0.03269  0.97627  0.04597  1.0000
  C   C1057     1.0  0.45347  0.97709  0.00066  1.0000
  H   H1244     1.0  0.06139  0.65772  0.16970  1.0000
  H   H1245     1.0  0.03700  0.92886  0.03485  1.0000
  H   H1246     1.0  0.04961  0.91585  0.99217  1.0000
  H   H1247     1.0  0.06972  0.68732  0.12546  1.0000
  H   H1248     1.0  0.47342  0.85636  0.97545  1.0000
  N   N67       1.0  0.24814  0.96108  0.06804  1.0000
  H   H1249     1.0  0.45599  0.96571  0.09078  1.0000
  C   C1058     1.0  0.47925  0.79127  0.07017  1.0000
  H   H1250     1.0  0.17896  0.67428  0.13735  1.0000
  H   H1251     1.0  0.35130  0.95851  0.07158  1.0000
  C   C1059     1.0  0.04504  0.92312  0.01309  1.0000
  C   C1060     1.0  0.21567  0.92620  0.05288  1.0000
  H   H1252     1.0  0.35815  0.84951  0.20199  1.0000
  C   C1061     1.0  0.41212  0.78239  0.18478  1.0000
  C   C1062     1.0  0.01377  0.96912  0.07472  1.0000
  H   H1253     1.0  0.41074  0.86242  0.11014  1.0000
  S   S287      1.0  0.00147  0.65710  0.09150  1.0000
  H   H1254     1.0  0.17814  0.73530  0.12783  1.0000
  H   H1255     1.0  0.18025  0.93173  0.05167  1.0000
  H   H1256     1.0  0.22856  0.98153  0.08324  1.0000
  H   H1257     1.0  0.13270  0.71562  0.18785  1.0000
  H   H1258     1.0  0.99797  0.87428  0.98713  1.0000
  H   H1259     1.0  0.16658  0.71169  0.12543  1.0000
  S   S288      1.0  0.99511  0.73073  0.12851  1.0000
  C   C1063     1.0  0.22370  0.68393  0.18121  1.0000
  C   C1064     1.0  0.18961  0.95762  0.06053  1.0000
  H   H1260     1.0  0.38156  0.83409  0.18346  1.0000
  C   C1065     1.0  0.17545  0.70803  0.15278  1.0000
  C   C1066     1.0  0.15297  0.70378  0.15446  1.0000
  C   C1067     1.0  0.16629  0.71839  0.17677  1.0000
  C   C1068     1.0  0.13777  0.70656  0.16694  1.0000
  H   H1261     1.0  0.46799  0.78546  0.06475  1.0000
  C   C1069     1.0  0.14444  0.71378  0.17811  1.0000
  H   H1262     1.0  0.27917  0.65913  0.21514  1.0000
  C   C1070     1.0  0.01554  0.91119  0.00336  1.0000
  H   H1263     1.0  0.26267  0.65843  0.19589  1.0000
  H   H1264     1.0  0.43916  0.74693  0.10932  1.0000
  H   H1265     1.0  0.14706  0.69775  0.14623  1.0000
  H   H1266     1.0  0.12086  0.70264  0.16801  1.0000
  C   C1071     1.0  0.19472  0.67984  0.13853  1.0000
  H   H1267     1.0  0.41645  0.81446  0.17221  1.0000
  H   H1268     1.0  0.99865  0.91928  0.03826  1.0000
  N   N68       1.0  0.19144  0.70396  0.13966  1.0000
  S   S289      1.0  0.47841  0.70126  0.11579  1.0000
  C   C1072     1.0  0.39854  0.77052  0.19569  1.0000
  H   H1269     1.0  0.48020  0.94189  0.99003  1.0000
  C   C1073     1.0  0.07685  0.67860  0.13479  1.0000
  H   H1270     1.0  0.42172  0.83628  0.09354  1.0000
  N   N69       1.0  0.44348  0.84191  0.10719  1.0000
  C   C1074     1.0  0.42882  0.86313  0.11017  1.0000
  N   N70       1.0  0.35002  0.81594  0.20592  1.0000
  C   C1075     1.0  0.43968  0.83765  0.09330  1.0000
  C   C1076     1.0  0.43913  0.82233  0.11831  1.0000
  C   C1077     1.0  0.45321  0.80131  0.11772  1.0000
  C   C1078     1.0  0.42096  0.82334  0.12988  1.0000
  C   C1079     1.0  0.44988  0.78279  0.12834  1.0000
  C   C1080     1.0  0.41773  0.80464  0.14039  1.0000
  C   C1081     1.0  0.43224  0.78446  0.13967  1.0000
  N   N71       1.0  0.47583  0.97708  0.99142  1.0000
  H   H1271     1.0  0.27603  0.72799  0.22295  1.0000
  H   H1272     1.0  0.43291  0.87756  0.10178  1.0000
  C   C1082     1.0  0.37139  0.80480  0.19855  1.0000
  C   C1083     1.0  0.48241  0.81386  0.06704  1.0000
  H   H1273     1.0  0.36866  0.77150  0.21097  1.0000
  C   C1084     1.0  0.20694  0.96534  0.06495  1.0000
  C   C1085     1.0  0.09578  0.65628  0.15895  1.0000
  H   H1274     1.0  0.26278  0.92741  0.07629  1.0000
  H   H1275     1.0  0.46690  0.79896  0.10901  1.0000
  H   H1276     1.0  0.40902  0.83839  0.13107  1.0000
  H   H1277     1.0  0.46097  0.76693  0.12778  1.0000
  H   H1278     1.0  0.40389  0.80581  0.14917  1.0000
  H   H1279     1.0  0.42983  0.76998  0.14784  1.0000
  N   N72       1.0  0.36537  0.76798  0.13125  1.0000
  C   C1086     1.0  0.35911  0.74573  0.13136  1.0000
  C   C1087     1.0  0.37131  0.76846  0.14536  1.0000
  C   C1088     1.0  0.34498  0.78495  0.12946  1.0000
  C   C1089     1.0  0.38494  0.77174  0.11995  1.0000
  C   C1090     1.0  0.40538  0.75642  0.11998  1.0000
  C   C1091     1.0  0.38431  0.79009  0.10851  1.0000
  C   C1092     1.0  0.42379  0.75899  0.10913  1.0000
  C   C1093     1.0  0.40286  0.79248  0.09769  1.0000
  C   C1094     1.0  0.42253  0.77694  0.09799  1.0000
  H   H1280     1.0  0.37262  0.73172  0.13417  1.0000
  H   H1281     1.0  0.34405  0.74247  0.13949  1.0000
  H   H1282     1.0  0.35535  0.74427  0.12078  1.0000
  H   H1283     1.0  0.38631  0.75611  0.14773  1.0000
  H   H1284     1.0  0.35735  0.76441  0.15414  1.0000
  H   H1285     1.0  0.37471  0.78531  0.14609  1.0000
  H   H1286     1.0  0.33897  0.78510  0.11927  1.0000
  H   H1287     1.0  0.33070  0.78154  0.13821  1.0000
  H   H1288     1.0  0.34805  0.80207  0.12997  1.0000
  H   H1289     1.0  0.40723  0.74218  0.12838  1.0000
  H   H1290     1.0  0.36961  0.80268  0.10757  1.0000
  H   H1291     1.0  0.40186  0.80632  0.08889  1.0000
  H   H1292     1.0  0.43682  0.77866  0.08953  1.0000
  C   C1095     1.0  0.00369  0.88040  0.99582  1.0000
  H   H1293     1.0  0.33009  0.80662  0.19249  1.0000
  C   C1096     1.0  0.21400  0.71004  0.13931  1.0000
  C   C1097     1.0  0.19394  0.93810  0.05455  1.0000
  H   H1294     1.0  0.22247  0.69967  0.14814  1.0000
  S   S290      1.0  0.17119  0.65305  0.17732  1.0000
  S   S291      1.0  0.48668  0.90409  0.04182  1.0000
  H   H1295     1.0  0.17072  0.66121  0.21074  1.0000
  H   H1296     1.0  0.04015  0.97903  0.03484  1.0000
  H   H1297     1.0  0.21288  0.72805  0.14005  1.0000
  C   C1098     1.0  0.18164  0.71566  0.16431  1.0000
  C   C1099     1.0  0.10036  0.67292  0.13403  1.0000
  H   H1298     1.0  0.22130  0.65686  0.20804  1.0000
  H   H1299     1.0  0.43074  0.86739  0.12052  1.0000
  S   S292      1.0  0.03305  0.67989  0.14910  1.0000
  C   C1100     1.0  0.42684  0.89847  0.97909  1.0000
  C   C1101     1.0  0.10990  0.66171  0.14608  1.0000
  H   H1300     1.0  0.20055  0.66934  0.14824  1.0000
  C   C1102     1.0  0.24069  0.67418  0.17143  1.0000
  C   C1103     1.0  0.00178  0.91211  0.01686  1.0000
  H   H1301     1.0  0.20765  0.67789  0.18401  1.0000
  H   H1302     1.0  0.45123  0.96037  0.00700  1.0000
  H   H1303     1.0  0.45009  0.82201  0.09026  1.0000
  H   H1304     1.0  0.06206  0.92689  0.01180  1.0000
  C   C1104     1.0  0.22938  0.95369  0.06329  1.0000
  H   H1305     1.0  0.21445  0.70878  0.19520  1.0000
  H   H1306     1.0  0.47079  0.86072  0.09790  1.0000
  H   H1307     1.0  0.27468  0.94765  0.05229  1.0000
  S   S293      1.0  0.47444  0.96106  0.05674  1.0000
  H   H1308     1.0  0.43885  0.92660  0.98394  1.0000
  C   C1105     1.0  0.33102  0.80545  0.20402  1.0000
  C   C1106     1.0  0.35098  0.81331  0.22140  1.0000
  S   S294      1.0  0.13951  0.65444  0.14439  1.0000
  H   H1309     1.0  0.21876  0.91068  0.04857  1.0000
  H   H1310     1.0  0.48258  0.94527  0.01522  1.0000
  C   C1107     1.0  0.07225  0.66199  0.15971  1.0000
  N   N73       1.0  0.00706  0.90418  0.99173  1.0000
  C   C1108     1.0  0.00942  0.91860  0.02803  1.0000
  C   C1109     1.0  0.03758  0.91673  0.00184  1.0000
  H   H1311     1.0  0.31451  0.81361  0.20916  1.0000
  Fe  Fe148     1.0  0.48789  0.71336  0.13402  1.0000
  C   C1110     1.0  0.17169  0.65408  0.22178  1.0000
  S   S295      1.0  0.48758  0.74766  0.08319  1.0000
  H   H1312     1.0  0.03888  0.89482  0.97872  1.0000
  C   C1111     1.0  0.46800  0.97592  0.09201  1.0000
  H   H1313     1.0  0.46614  0.96004  0.97648  1.0000
  H   H1314     1.0  0.43742  0.65467  0.10231  1.0000
  H   H1315     1.0  0.04372  0.65650  0.12543  1.0000
  H   H1316     1.0  0.43939  0.98157  0.99431  1.0000
  H   H1317     1.0  0.26125  0.97567  0.04677  1.0000
  S   S296      1.0  0.25628  0.97911  0.10984  1.0000
  Fe  Fe149     1.0  0.25839  0.97865  0.13287  1.0000
  C   C1112     1.0  0.49070  0.96693  0.09136  1.0000
  Fe  Fe150     1.0  0.31124  0.75425  0.32216  1.0000
  S   S297      1.0  0.29077  0.78749  0.31545  1.0000
  S   S298      1.0  0.29903  0.72056  0.32898  1.0000
  Fe  Fe151     1.0  0.35516  0.77384  0.31615  1.0000
  S   S299      1.0  0.33825  0.80847  0.30816  1.0000
  S   S300      1.0  0.39282  0.76668  0.31666  1.0000
  Fe  Fe152     1.0  0.31166  0.80212  0.32728  1.0000
  S   S301      1.0  0.29833  0.82417  0.34447  1.0000
  Fe  Fe153     1.0  0.31904  0.79100  0.29690  1.0000
  S   S302      1.0  0.30964  0.80409  0.27479  1.0000
  S   S303      1.0  0.32963  0.76822  0.33574  1.0000
  S   S304      1.0  0.33847  0.75700  0.30310  1.0000
  H   H1318     1.0  0.13176  0.68092  0.28085  1.0000
  Fe  Fe154     1.0  0.20188  0.68002  0.30398  1.0000
  S   S305      1.0  0.16979  0.68322  0.29523  1.0000
  S   S306      1.0  0.20820  0.71248  0.30893  1.0000
  C   C1113     1.0  0.31081  0.77897  0.23862  1.0000
  C   C1114     1.0  0.09072  0.67049  0.28292  1.0000
  C   C1115     1.0  0.49041  0.82077  0.40765  1.0000
  N   N74       1.0  0.43470  0.94505  0.41549  1.0000
  H   H1319     1.0  0.35990  0.67815  0.37031  1.0000
  H   H1320     1.0  0.23425  0.73907  0.28310  1.0000
  H   H1321     1.0  0.11680  0.69090  0.25836  1.0000
  H   H1322     1.0  0.43652  0.79842  0.39993  1.0000
  Fe  Fe155     1.0  0.02865  0.72057  0.35359  1.0000
  S   S307      1.0  0.05290  0.72348  0.33286  1.0000
  S   S308      1.0  0.03885  0.70482  0.37477  1.0000
  S   S309      1.0  0.01962  0.90454  0.42476  1.0000
  H   H1323     1.0  0.43821  0.75213  0.32192  1.0000
  H   H1324     1.0  0.38876  0.74830  0.36885  1.0000
  C   C1116     1.0  0.03141  0.95733  0.39017  1.0000
  Fe  Fe156     1.0  0.29787  0.95129  0.35681  1.0000
  S   S310      1.0  0.30155  0.94622  0.38007  1.0000
  S   S311      1.0  0.30615  0.92733  0.34053  1.0000
  H   H1325     1.0  0.28892  0.75283  0.26246  1.0000
  C   C1117     1.0  0.43563  0.93068  0.40459  1.0000
  C   C1118     1.0  0.00286  0.94934  0.42485  1.0000
  H   H1326     1.0  0.45194  0.75157  0.42874  1.0000
  H   H1327     1.0  0.28088  0.67139  0.23719  1.0000
  C   C1119     1.0  0.26894  0.66037  0.23710  1.0000
  H   H1328     1.0  0.42670  0.77203  0.40485  1.0000
  C   C1120     1.0  0.25464  0.65380  0.24960  1.0000
  N   N75       1.0  0.26777  0.72808  0.27237  1.0000
  Fe  Fe157     1.0  0.47030  0.71791  0.37421  1.0000
  S   S312      1.0  0.43435  0.73551  0.37411  1.0000
  H   H1329     1.0  0.45331  0.92392  0.40041  1.0000
  H   H1330     1.0  0.09655  0.96907  0.40971  1.0000
  H   H1331     1.0  0.42685  0.91596  0.40910  1.0000
  C   C1121     1.0  0.05812  0.69965  0.28738  1.0000
  H   H1332     1.0  0.30365  0.72437  0.26486  1.0000
  S   S313      1.0  0.32013  0.97813  0.35051  1.0000
  H   H1333     1.0  0.37204  0.75980  0.34661  1.0000
  H   H1334     1.0  0.06188  0.66052  0.31702  1.0000
  H   H1335     1.0  0.12113  0.94861  0.41060  1.0000
  H   H1336     1.0  0.44100  0.66813  0.36984  1.0000
  H   H1337     1.0  0.04795  0.71537  0.28377  1.0000
  C   C1122     1.0  0.38617  0.97929  0.43663  1.0000
  S   S314      1.0  0.47700  0.70156  0.39623  1.0000
  H   H1338     1.0  0.29469  0.73929  0.27961  1.0000
  C   C1123     1.0  0.02153  0.93252  0.42569  1.0000
  C   C1124     1.0  0.04216  0.93807  0.42722  1.0000
  C   C1125     1.0  0.04413  0.96036  0.42775  1.0000
  C   C1126     1.0  0.09302  0.66311  0.33770  1.0000
  H   H1339     1.0  0.13098  0.65353  0.29125  1.0000
  C   C1127     1.0  0.11044  0.66569  0.32610  1.0000
  H   H1340     1.0  0.05664  0.92510  0.42793  1.0000
  H   H1341     1.0  0.38228  0.68379  0.38575  1.0000
  C   C1128     1.0  0.39197  0.94983  0.41706  1.0000
  C   C1129     1.0  0.45997  0.74931  0.41769  1.0000
  C   C1130     1.0  0.07473  0.70096  0.33041  1.0000
  C   C1131     1.0  0.09206  0.70348  0.31875  1.0000
  C   C1132     1.0  0.10998  0.68598  0.31666  1.0000
  H   H1342     1.0  0.00447  0.89877  0.46476  1.0000
  H   H1343     1.0  0.44600  0.65694  0.40017  1.0000
  C   C1133     1.0  0.07530  0.68079  0.33995  1.0000
  H   H1344     1.0  0.09159  0.71904  0.31131  1.0000
  H   H1345     1.0  0.12313  0.68809  0.30762  1.0000
  H   H1346     1.0  0.35306  0.79547  0.22657  1.0000
  H   H1347     1.0  0.06197  0.67874  0.34896  1.0000
  Fe  Fe158     1.0  0.27112  0.97339  0.38199  1.0000
  S   S315      1.0  0.26588  0.97618  0.35926  1.0000
  C   C1134     1.0  0.27344  0.71817  0.32387  1.0000
  C   C1135     1.0  0.25806  0.73720  0.32012  1.0000
  C   C1136     1.0  0.23780  0.73508  0.31602  1.0000
  C   C1137     1.0  0.23302  0.71396  0.31525  1.0000
  C   C1138     1.0  0.24825  0.69479  0.31910  1.0000
  C   C1139     1.0  0.26834  0.69691  0.32353  1.0000
  H   H1348     1.0  0.26161  0.75360  0.32058  1.0000
  H   H1349     1.0  0.22601  0.74996  0.31318  1.0000
  H   H1350     1.0  0.24465  0.67842  0.31857  1.0000
  H   H1351     1.0  0.28015  0.68211  0.32648  1.0000
  C   C1140     1.0  0.31690  0.78711  0.26132  1.0000
  C   C1141     1.0  0.30571  0.79255  0.24936  1.0000
  C   C1142     1.0  0.32760  0.76020  0.23962  1.0000
  C   C1143     1.0  0.33894  0.75498  0.25146  1.0000
  C   C1144     1.0  0.33354  0.76828  0.26230  1.0000
  H   H1352     1.0  0.35194  0.74048  0.25231  1.0000
  H   H1353     1.0  0.34243  0.76407  0.27135  1.0000
  C   C1145     1.0  0.30315  0.89880  0.34189  1.0000
  C   C1146     1.0  0.29356  0.88646  0.35453  1.0000
  C   C1147     1.0  0.29214  0.86366  0.35511  1.0000
  C   C1148     1.0  0.30019  0.85300  0.34308  1.0000
  C   C1149     1.0  0.30975  0.86535  0.33045  1.0000
  C   C1150     1.0  0.31123  0.88810  0.32989  1.0000
  H   H1354     1.0  0.28728  0.89448  0.36383  1.0000
  H   H1355     1.0  0.28465  0.85426  0.36491  1.0000
  H   H1356     1.0  0.31584  0.85746  0.32109  1.0000
  H   H1357     1.0  0.31868  0.89751  0.32007  1.0000
  C   C1151     1.0  0.42303  0.74325  0.35804  1.0000
  C   C1152     1.0  0.43688  0.74404  0.34476  1.0000
  C   C1153     1.0  0.42737  0.75115  0.33217  1.0000
  C   C1154     1.0  0.40396  0.75710  0.33273  1.0000
  C   C1155     1.0  0.39008  0.75565  0.34602  1.0000
  C   C1156     1.0  0.39961  0.74903  0.35862  1.0000
  H   H1358     1.0  0.45496  0.73960  0.34418  1.0000
  C   C1157     1.0  0.08466  0.65977  0.29714  1.0000
  H   H1359     1.0  0.43928  0.97496  0.40028  1.0000
  H   H1360     1.0  0.43623  0.66923  0.35202  1.0000
  H   H1361     1.0  0.13276  0.95838  0.38397  1.0000
  C   C1158     1.0  0.27363  0.72808  0.24552  1.0000
  C   C1159     1.0  0.06640  0.93188  0.39194  1.0000
  H   H1362     1.0  0.33526  0.82162  0.22734  1.0000
  H   H1363     1.0  0.43655  0.91728  0.43273  1.0000
  H   H1364     1.0  0.47960  0.97028  0.47315  1.0000
  H   H1365     1.0  0.07448  0.91467  0.39267  1.0000
  N   N76       1.0  0.36957  0.82556  0.34640  1.0000
  C   C1160     1.0  0.39366  0.81650  0.34696  1.0000
  C   C1161     1.0  0.35591  0.81329  0.35875  1.0000
  C   C1162     1.0  0.36355  0.82060  0.33329  1.0000
  C   C1163     1.0  0.36593  0.85010  0.34616  1.0000
  C   C1164     1.0  0.35143  0.86070  0.35708  1.0000
  C   C1165     1.0  0.37726  0.86419  0.33477  1.0000
  C   C1166     1.0  0.34862  0.88391  0.35652  1.0000
  C   C1167     1.0  0.37404  0.88742  0.33423  1.0000
  C   C1168     1.0  0.35973  0.89725  0.34509  1.0000
  H   H1366     1.0  0.39912  0.82063  0.35638  1.0000
  H   H1367     1.0  0.39695  0.79797  0.34762  1.0000
  H   H1368     1.0  0.40487  0.82318  0.33726  1.0000
  H   H1369     1.0  0.36015  0.81537  0.36907  1.0000
  H   H1370     1.0  0.35870  0.79496  0.35846  1.0000
  H   H1371     1.0  0.33752  0.81901  0.35868  1.0000
  H   H1372     1.0  0.36513  0.80225  0.33338  1.0000
  H   H1373     1.0  0.34582  0.82806  0.33221  1.0000
  H   H1374     1.0  0.37446  0.82711  0.32341  1.0000
  H   H1375     1.0  0.34149  0.85161  0.36593  1.0000
  H   H1376     1.0  0.38841  0.85738  0.32605  1.0000
  H   H1377     1.0  0.33685  0.89185  0.36464  1.0000
  H   H1378     1.0  0.38228  0.89796  0.32523  1.0000
  H   H1379     1.0  0.35659  0.91533  0.34445  1.0000
  C   C1169     1.0  0.00869  0.93972  0.46617  1.0000
  H   H1380     1.0  0.25545  0.65968  0.25934  1.0000
  C   C1170     1.0  0.04211  0.97513  0.39090  1.0000
  H   H1381     1.0  0.29270  0.80705  0.24860  1.0000
  H   H1382     1.0  0.42180  0.97386  0.43513  1.0000
  C   C1171     1.0  0.38407  0.70878  0.33341  1.0000
  Fe  Fe159     1.0  0.32170  0.97478  0.37383  1.0000
  C   C1172     1.0  0.36726  0.68650  0.36010  1.0000
  S   S316      1.0  0.46716  0.97583  0.44164  1.0000
  S   S317      1.0  0.18669  0.67388  0.25614  1.0000
  H   H1383     1.0  0.12978  0.66540  0.25239  1.0000
  C   C1173     1.0  0.39084  0.68690  0.35669  1.0000
  H   H1384     1.0  0.11278  0.91795  0.38334  1.0000
  C   C1174     1.0  0.00953  0.77377  0.40545  1.0000
  C   C1175     1.0  0.28974  0.73643  0.26964  1.0000
  H   H1385     1.0  0.30157  0.78285  0.22973  1.0000
  S   S318      1.0  0.35613  0.97299  0.38011  1.0000
  C   C1176     1.0  0.24009  0.71584  0.26028  1.0000
  H   H1386     1.0  0.46128  0.75471  0.39011  1.0000
  H   H1387     1.0  0.00489  0.81957  0.42171  1.0000
  H   H1388     1.0  0.01321  0.94426  0.45441  1.0000
  H   H1389     1.0  0.39283  0.93916  0.40924  1.0000
  C   C1177     1.0  0.25066  0.74515  0.27892  1.0000
  C   C1178     1.0  0.07680  0.69076  0.27826  1.0000
  H   H1390     1.0  0.47047  0.81251  0.39418  1.0000
  C   C1179     1.0  0.48466  0.77967  0.42489  1.0000
  H   H1391     1.0  0.08016  0.70029  0.26772  1.0000
  S   S319      1.0  0.00175  0.65377  0.38569  1.0000
  C   C1180     1.0  0.44591  0.93122  0.42727  1.0000
  C   C1181     1.0  0.11443  0.67320  0.25896  1.0000
  H   H1392     1.0  0.00812  0.95496  0.47092  1.0000
  H   H1393     1.0  0.43330  0.69472  0.35946  1.0000
  H   H1394     1.0  0.46516  0.95691  0.40373  1.0000
  H   H1395     1.0  0.10881  0.97931  0.38420  1.0000
  H   H1396     1.0  0.42791  0.94030  0.39524  1.0000
  H   H1397     1.0  0.35578  0.95658  0.41862  1.0000
  C   C1182     1.0  0.44781  0.96340  0.40868  1.0000
  H   H1398     1.0  0.45012  0.97357  0.41648  1.0000
  H   H1399     1.0  0.24753  0.76070  0.27107  1.0000
  C   C1183     1.0  0.47754  0.80682  0.40391  1.0000
  C   C1184     1.0  0.43743  0.78273  0.40783  1.0000
  H   H1400     1.0  0.03865  0.69602  0.30846  1.0000
  H   H1401     1.0  0.17543  0.97378  0.38253  1.0000
  C   C1185     1.0  0.20576  0.97507  0.39053  1.0000
  Fe  Fe160     1.0  0.00665  0.69017  0.37884  1.0000
  H   H1402     1.0  0.02663  0.66271  0.40655  1.0000
  S   S320      1.0  0.48564  0.68761  0.36394  1.0000
  S   S321      1.0  0.02973  0.75685  0.39490  1.0000
  C   C1186     1.0  0.99996  0.80560  0.41835  1.0000
  C   C1187     1.0  0.39883  0.69855  0.34303  1.0000
  H   H1403     1.0  0.47715  0.73943  0.41800  1.0000
  H   H1404     1.0  0.13160  0.92109  0.39474  1.0000
  C   C1188     1.0  0.01576  0.79194  0.40987  1.0000
  S   S322      1.0  0.99801  0.70393  0.35690  1.0000
  N   N77       1.0  0.46089  0.77114  0.40805  1.0000
  C   C1189     1.0  0.43012  0.67703  0.36180  1.0000
  N   N78       1.0  0.11146  0.66131  0.27393  1.0000
  H   H1405     1.0  0.21689  0.96804  0.38185  1.0000
  C   C1190     1.0  0.37036  0.95968  0.42246  1.0000
  C   C1191     1.0  0.26982  0.70706  0.28280  1.0000
  H   H1406     1.0  0.28172  0.69349  0.27802  1.0000
  H   H1407     1.0  0.44706  0.94113  0.43554  1.0000
  C   C1192     1.0  0.04352  0.93578  0.39069  1.0000
  Fe  Fe161     1.0  0.01696  0.73513  0.38269  1.0000
  C   C1193     1.0  0.26073  0.72394  0.25936  1.0000
  C   C1194     1.0  0.35266  0.69696  0.35042  1.0000
  Fe  Fe162     1.0  0.18985  0.66190  0.27942  1.0000
  C   C1195     1.0  0.40785  0.96944  0.43137  1.0000
  C   C1196     1.0  0.17857  0.66625  0.23072  1.0000
  C   C1197     1.0  0.07786  0.94970  0.39267  1.0000
  H   H1408     1.0  0.40036  0.70424  0.37777  1.0000
  C   C1198     1.0  0.26774  0.65312  0.22443  1.0000
  N   N79       1.0  0.14545  0.71860  0.34175  1.0000
  C   C1199     1.0  0.14345  0.69458  0.34322  1.0000
  C   C1200     1.0  0.14408  0.72931  0.32675  1.0000
  C   C1201     1.0  0.16825  0.71988  0.34454  1.0000
  C   C1202     1.0  0.12686  0.72948  0.35156  1.0000
  C   C1203     1.0  0.13047  0.73812  0.36348  1.0000
  C   C1204     1.0  0.10415  0.73101  0.34960  1.0000
  C   C1205     1.0  0.11234  0.74751  0.37279  1.0000
  C   C1206     1.0  0.08621  0.74047  0.35892  1.0000
  C   C1207     1.0  0.09027  0.74862  0.37054  1.0000
  H   H1409     1.0  0.12697  0.69223  0.34092  1.0000
  H   H1410     1.0  0.15671  0.68581  0.33572  1.0000
  H   H1411     1.0  0.14482  0.68575  0.35426  1.0000
  H   H1412     1.0  0.12882  0.72651  0.32304  1.0000
  H   H1413     1.0  0.15869  0.72248  0.31919  1.0000
  H   H1414     1.0  0.14389  0.74772  0.32542  1.0000
  H   H1415     1.0  0.17117  0.71094  0.35533  1.0000
  H   H1416     1.0  0.18179  0.71185  0.33685  1.0000
  H   H1417     1.0  0.17102  0.73758  0.34340  1.0000
  H   H1418     1.0  0.14708  0.73778  0.36589  1.0000
  H   H1419     1.0  0.10000  0.72472  0.34089  1.0000
  H   H1420     1.0  0.11535  0.75391  0.38187  1.0000
  H   H1421     1.0  0.06901  0.74135  0.35716  1.0000
  H   H1422     1.0  0.07622  0.75573  0.37783  1.0000
  C   C1208     1.0  0.10335  0.95130  0.40866  1.0000
  S   S323      1.0  0.00922  0.75196  0.36112  1.0000
  C   C1209     1.0  0.36748  0.97449  0.43214  1.0000
  H   H1423     1.0  0.06000  0.96459  0.42896  1.0000
  H   H1424     1.0  0.09380  0.94058  0.41741  1.0000
  C   C1210     1.0  0.39959  0.68593  0.38027  1.0000
  H   H1425     1.0  0.21691  0.70619  0.24907  1.0000
  H   H1426     1.0  0.41113  0.67847  0.38816  1.0000
  C   C1211     1.0  0.41148  0.95461  0.42127  1.0000
  H   H1427     1.0  0.46357  0.92394  0.42338  1.0000
  H   H1428     1.0  0.25340  0.70095  0.28675  1.0000
  H   H1429     1.0  0.03286  0.79544  0.40673  1.0000
  H   H1430     1.0  0.47037  0.78135  0.38526  1.0000
  C   C1212     1.0  0.00479  0.97153  0.42545  1.0000
  C   C1213     1.0  0.13120  0.66314  0.28025  1.0000
  H   H1431     1.0  0.22931  0.71245  0.27042  1.0000
  H   H1432     1.0  0.27616  0.70942  0.29242  1.0000
  C   C1214     1.0  0.47064  0.76617  0.39356  1.0000
  N   N80       1.0  0.40592  0.67559  0.36713  1.0000
  C   C1215     1.0  0.02545  0.97717  0.42673  1.0000
  C   C1216     1.0  0.40367  0.65146  0.37087  1.0000
  C   C1217     1.0  0.11442  0.96134  0.38326  1.0000
  C   C1218     1.0  0.23279  0.71227  0.24812  1.0000
  C   C1219     1.0  0.36107  0.70803  0.33710  1.0000
  H   H1433     1.0  0.25618  0.75002  0.28811  1.0000
  C   C1220     1.0  0.26609  0.72450  0.23343  1.0000
  H   H1434     1.0  0.34967  0.71618  0.32964  1.0000
  H   H1435     1.0  0.41633  0.70035  0.33953  1.0000
  H   H1436     1.0  0.11252  0.95907  0.37242  1.0000
  C   C1221     1.0  0.06496  0.97142  0.39214  1.0000
  H   H1437     1.0  0.44997  0.73864  0.41404  1.0000
  H   H1438     1.0  0.28954  0.73425  0.24367  1.0000
  S   S324      1.0  0.22256  0.66137  0.28701  1.0000
  C   C1222     1.0  0.11345  0.92293  0.39373  1.0000
  S   S325      1.0  0.33491  0.74253  0.22655  1.0000
  H   H1439     1.0  0.48379  0.76378  0.43181  1.0000
  N   N81       1.0  0.10184  0.94620  0.39451  1.0000
  C   C1223     1.0  0.05271  0.68870  0.30127  1.0000
  C   C1224     1.0  0.06581  0.66869  0.30608  1.0000
  H   H1440     1.0  0.03488  0.92185  0.39069  1.0000
  H   H1441     1.0  0.39044  0.71778  0.32308  1.0000
  H   H1442     1.0  0.01354  0.96012  0.38965  1.0000
  H   H1443     1.0  0.33466  0.69662  0.35319  1.0000
  H   H1444     1.0  0.48845  0.75798  0.39328  1.0000
  H   H1445     1.0  0.10600  0.91071  0.40258  1.0000
  H   H1446     1.0  0.09989  0.67281  0.25363  1.0000
  C   C1225     1.0  0.47438  0.78573  0.41236  1.0000
  H   H1447     1.0  0.42962  0.78723  0.41847  1.0000
  H   H1448     1.0  0.14728  0.65672  0.27380  1.0000
  C   C1226     1.0  0.24571  0.71666  0.23472  1.0000
  S   S326      1.0  0.24416  0.97677  0.40147  1.0000
  C   C1227     1.0  0.17951  0.65733  0.24512  1.0000
  Fe  Fe163     1.0  0.16494  0.65086  0.30962  1.0000
  C   C1228     1.0  0.18225  0.97830  0.39096  1.0000
  H   H1449     1.0  0.18293  0.68276  0.22649  1.0000
  H   H1450     1.0  0.23993  0.71406  0.22528  1.0000
  C   C1229     1.0  0.21476  0.98055  0.40147  1.0000
  H   H1451     1.0  0.02272  0.92708  0.46994  1.0000
  H   H1452     1.0  0.39687  0.98237  0.38668  1.0000
  H   H1453     1.0  0.18910  0.87721  0.68603  1.0000
  H   H1454     1.0  0.02593  0.83777  0.62022  1.0000
  C   C1230     1.0  0.16660  0.89240  0.70896  1.0000
  H   H1455     1.0  0.04670  0.80231  0.62408  1.0000
  C   C1231     1.0  0.23719  0.78539  0.70195  1.0000
  H   H1456     1.0  0.20927  0.73608  0.66048  1.0000
  Fe  Fe164     1.0  0.22060  0.96156  0.62636  1.0000
  S   S327      1.0  0.22777  0.92476  0.63593  1.0000
  H   H1457     1.0  0.46107  0.85321  0.55885  1.0000
  H   H1458     1.0  0.48562  0.87291  0.54291  1.0000
  H   H1459     1.0  0.26580  0.77770  0.68605  1.0000
  S   S328      1.0  0.31138  0.66536  0.67128  1.0000
  H   H1460     1.0  0.44785  0.67907  0.69924  1.0000
  H   H1461     1.0  0.99615  0.69667  0.58366  1.0000
  H   H1462     1.0  0.45788  0.65446  0.63336  1.0000
  C   C1232     1.0  0.03960  0.69755  0.56391  1.0000
  Fe  Fe165     1.0  0.15863  0.82607  0.66611  1.0000
  S   S329      1.0  0.17548  0.80172  0.65138  1.0000
  S   S330      1.0  0.15094  0.86374  0.65933  1.0000
  Fe  Fe166     1.0  0.15178  0.78931  0.69154  1.0000
  S   S331      1.0  0.16799  0.76191  0.67892  1.0000
  C   C1233     1.0  0.11089  0.83614  0.72394  1.0000
  Fe  Fe167     1.0  0.19359  0.78450  0.66956  1.0000
  S   S332      1.0  0.23057  0.77160  0.66522  1.0000
  Fe  Fe168     1.0  0.14835  0.78088  0.66183  1.0000
  S   S333      1.0  0.13698  0.76070  0.64774  1.0000
  S   S334      1.0  0.17914  0.81051  0.68349  1.0000
  S   S335      1.0  0.12975  0.80670  0.67522  1.0000
  N   N82       1.0  0.03995  0.67786  0.57544  1.0000
  S   S336      1.0  0.02281  0.67896  0.65050  1.0000
  C   C1234     1.0  0.00353  0.81545  0.61708  1.0000
  C   C1235     1.0  0.21559  0.69355  0.65395  1.0000
  Fe  Fe169     1.0  0.02560  0.71527  0.64257  1.0000
  S   S337      1.0  0.03748  0.73786  0.65477  1.0000
  N   N83       1.0  0.15710  0.88032  0.70009  1.0000
  S   S338      1.0  0.03853  0.71017  0.61999  1.0000
  H   H1463     1.0  0.03864  0.67169  0.59816  1.0000
  S   S339      1.0  0.99367  0.73791  0.59661  1.0000
  Fe  Fe170     1.0  0.03290  0.67443  0.62753  1.0000
  H   H1464     1.0  0.02767  0.69983  0.59124  1.0000
  C   C1236     1.0  0.10930  0.75426  0.65000  1.0000
  C   C1237     1.0  0.09219  0.76222  0.66041  1.0000
  C   C1238     1.0  0.07036  0.75686  0.66179  1.0000
  C   C1239     1.0  0.06544  0.74339  0.65288  1.0000
  C   C1240     1.0  0.08254  0.73541  0.64246  1.0000
  C   C1241     1.0  0.10437  0.74086  0.64103  1.0000
  H   H1465     1.0  0.09575  0.77254  0.66738  1.0000
  H   H1466     1.0  0.05722  0.76313  0.66987  1.0000
  H   H1467     1.0  0.07896  0.72511  0.63550  1.0000
  H   H1468     1.0  0.11748  0.73468  0.63292  1.0000
  C   C1242     1.0  0.25481  0.70692  0.69378  1.0000
  C   C1243     1.0  0.26891  0.71538  0.68160  1.0000
  C   C1244     1.0  0.26132  0.73528  0.67294  1.0000
  C   C1245     1.0  0.23964  0.74687  0.67642  1.0000
  C   C1246     1.0  0.22563  0.73865  0.68876  1.0000
  C   C1247     1.0  0.23324  0.71870  0.69744  1.0000
  H   H1469     1.0  0.28571  0.70667  0.67885  1.0000
  H   H1470     1.0  0.27229  0.74170  0.66349  1.0000
  H   H1471     1.0  0.20911  0.74782  0.69173  1.0000
  H   H1472     1.0  0.22235  0.71233  0.70693  1.0000
  C   C1248     1.0  0.44327  0.66727  0.66116  1.0000
  S   S340      1.0  0.26362  0.68129  0.70424  1.0000
  N   N84       1.0  0.02521  0.97669  0.51378  1.0000
  C   C1249     1.0  0.47543  0.94275  0.56344  1.0000
  H   H1473     1.0  0.00619  0.96992  0.57314  1.0000
  H   H1474     1.0  0.17624  0.88049  0.71670  1.0000
  H   H1475     1.0  0.17853  0.90339  0.70232  1.0000
  C   C1250     1.0  0.04087  0.68541  0.58899  1.0000
  C   C1251     1.0  0.17262  0.88044  0.65363  1.0000
  C   C1252     1.0  0.16678  0.90379  0.65051  1.0000
  C   C1253     1.0  0.18350  0.91760  0.64537  1.0000
  C   C1254     1.0  0.20624  0.90813  0.64317  1.0000
  C   C1255     1.0  0.21209  0.88480  0.64665  1.0000
  C   C1256     1.0  0.19537  0.87099  0.65191  1.0000
  H   H1476     1.0  0.14922  0.91123  0.65195  1.0000
  H   H1477     1.0  0.17877  0.93554  0.64301  1.0000
  H   H1478     1.0  0.22963  0.87733  0.64504  1.0000
  H   H1479     1.0  0.20008  0.85302  0.65428  1.0000
  H   H1480     1.0  0.03829  0.69272  0.55359  1.0000
  S   S341      1.0  0.36691  0.68824  0.66691  1.0000
  H   H1481     1.0  0.00726  0.77199  0.61256  1.0000
  C   C1257     1.0  0.41269  0.65037  0.63398  1.0000
  H   H1482     1.0  0.44482  0.69988  0.64846  1.0000
  H   H1483     1.0  0.23401  0.86081  0.60393  1.0000
  H   H1484     1.0  0.40623  0.69423  0.70365  1.0000
  C   C1258     1.0  0.40372  0.67644  0.70725  1.0000
  C   C1259     1.0  0.03241  0.79728  0.63232  1.0000
  H   H1485     1.0  0.48385  0.66127  0.59114  1.0000
  H   H1486     1.0  0.45369  0.65335  0.61545  1.0000
  H   H1487     1.0  0.22275  0.70264  0.67324  1.0000
  H   H1488     1.0  0.38735  0.67621  0.71456  1.0000
  C   C1260     1.0  0.43394  0.68824  0.65458  1.0000
  H   H1489     1.0  0.00274  0.89264  0.48788  1.0000
  C   C1261     1.0  0.33253  0.96515  0.58419  1.0000
  H   H1490     1.0  0.46174  0.93301  0.56596  1.0000
  H   H1491     1.0  0.17305  0.69233  0.66693  1.0000
  C   C1262     1.0  0.42904  0.65228  0.66906  1.0000
  H   H1492     1.0  0.18435  0.71115  0.67487  1.0000
  H   H1493     1.0  0.99821  0.95730  0.51644  1.0000
  H   H1494     1.0  0.45806  0.65203  0.70866  1.0000
  C   C1263     1.0  0.22643  0.77942  0.71589  1.0000
  C   C1264     1.0  0.31355  0.97465  0.57789  1.0000
  C   C1265     1.0  0.20349  0.73373  0.65071  1.0000
  H   H1495     1.0  0.40323  0.71092  0.65150  1.0000
  H   H1496     1.0  0.19751  0.71458  0.62950  1.0000
  H   H1497     1.0  0.13420  0.85351  0.69003  1.0000
  H   H1498     1.0  0.02737  0.80967  0.63979  1.0000
  N   N85       1.0  0.01311  0.79458  0.62576  1.0000
  H   H1499     1.0  0.17088  0.85896  0.68422  1.0000
  S   S342      1.0  0.32827  0.66382  0.70174  1.0000
  H   H1500     1.0  0.44216  0.65426  0.69457  1.0000
  C   C1266     1.0  0.40556  0.65838  0.67063  1.0000
  C   C1267     1.0  0.02116  0.77679  0.61675  1.0000
  C   C1268     1.0  0.46640  0.83482  0.55946  1.0000
  N   N86       1.0  0.42253  0.66300  0.71436  1.0000
  Fe  Fe171     1.0  0.00215  0.71646  0.61713  1.0000
  H   H1501     1.0  0.38057  0.67151  0.63774  1.0000
  C   C1269     1.0  0.25697  0.74889  0.71983  1.0000
  C   C1270     1.0  0.26763  0.75511  0.70588  1.0000
  C   C1271     1.0  0.99234  0.96502  0.56954  1.0000
  H   H1502     1.0  0.02508  0.71085  0.56629  1.0000
  H   H1503     1.0  0.22934  0.79914  0.69481  1.0000
  C   C1272     1.0  0.17628  0.86682  0.69218  1.0000
  C   C1273     1.0  0.14561  0.89740  0.68969  1.0000
  H   H1504     1.0  0.03925  0.78134  0.63873  1.0000
  C   C1274     1.0  0.13069  0.85273  0.70149  1.0000
  C   C1275     1.0  0.22757  0.69133  0.66552  1.0000
  H   H1505     1.0  0.18475  0.85308  0.69956  1.0000
  H   H1506     1.0  0.21543  0.67821  0.63519  1.0000
  H   H1507     1.0  0.33092  0.95354  0.59413  1.0000
  H   H1508     1.0  0.10882  0.82803  0.70364  1.0000
  S   S343      1.0  0.18553  0.98023  0.62615  1.0000
  H   H1509     1.0  0.24807  0.64982  0.63858  1.0000
  H   H1510     1.0  0.18956  0.74782  0.64868  1.0000
  H   H1511     1.0  0.13083  0.90768  0.69518  1.0000
  C   C1276     1.0  0.13544  0.86309  0.72360  1.0000
  H   H1512     1.0  0.36798  0.96478  0.58331  1.0000
  C   C1277     1.0  0.00205  0.85556  0.60731  1.0000
  H   H1513     1.0  0.21771  0.73590  0.64178  1.0000
  S   S344      1.0  0.47258  0.65942  0.66011  1.0000
  Fe  Fe172     1.0  0.34425  0.66349  0.67888  1.0000
  S   S345      1.0  0.13832  0.77882  0.71475  1.0000
  C   C1278     1.0  0.14104  0.86553  0.70847  1.0000
  S   S346      1.0  0.23222  0.97221  0.60291  1.0000
  H   H1514     1.0  0.17866  0.69593  0.64027  1.0000
  H   H1515     1.0  0.07634  0.66984  0.57167  1.0000
  C   C1279     1.0  0.99546  0.78686  0.63749  1.0000
  H   H1516     1.0  0.45754  0.82897  0.55210  1.0000
  C   C1280     1.0  0.47097  0.96574  0.56431  1.0000
  H   H1517     1.0  0.04225  0.94878  0.52698  1.0000
  H   H1518     1.0  0.03370  0.78229  0.60741  1.0000
  H   H1519     1.0  0.15313  0.90343  0.71494  1.0000
  H   H1520     1.0  0.15716  0.90887  0.68316  1.0000
  C   C1281     1.0  0.35339  0.97141  0.57805  1.0000
  C   C1282     1.0  0.38934  0.65441  0.63821  1.0000
  N   N87       1.0  0.17374  0.91974  0.60386  1.0000
  C   C1283     1.0  0.17151  0.92267  0.58858  1.0000
  C   C1284     1.0  0.15105  0.92629  0.61194  1.0000
  C   C1285     1.0  0.18844  0.93552  0.60554  1.0000
  C   C1286     1.0  0.18379  0.89633  0.60864  1.0000
  C   C1287     1.0  0.20651  0.88830  0.60332  1.0000
  C   C1288     1.0  0.17149  0.88080  0.61840  1.0000
  C   C1289     1.0  0.21647  0.86638  0.60785  1.0000
  C   C1290     1.0  0.18155  0.85885  0.62271  1.0000
  C   C1291     1.0  0.20403  0.85171  0.61757  1.0000
  H   H1521     1.0  0.18808  0.91920  0.58173  1.0000
  H   H1522     1.0  0.16054  0.91119  0.58680  1.0000
  H   H1523     1.0  0.16403  0.94018  0.58460  1.0000
  H   H1524     1.0  0.13853  0.91636  0.61029  1.0000
  H   H1525     1.0  0.14417  0.94407  0.60842  1.0000
  H   H1526     1.0  0.15162  0.92437  0.62356  1.0000
  H   H1527     1.0  0.20444  0.93471  0.59790  1.0000
  H   H1528     1.0  0.18019  0.95324  0.60361  1.0000
  H   H1529     1.0  0.19291  0.93209  0.61645  1.0000
  H   H1530     1.0  0.21683  0.89901  0.59573  1.0000
  H   H1531     1.0  0.15421  0.88521  0.62319  1.0000
  C   C1292     1.0  0.01189  0.83611  0.61539  1.0000
  H   H1532     1.0  0.46009  0.82719  0.57056  1.0000
  H   H1533     1.0  0.21184  0.83484  0.62127  1.0000
  H   H1534     1.0  0.00230  0.77175  0.64468  1.0000
  H   H1535     1.0  0.16324  0.72195  0.66388  1.0000
  C   C1293     1.0  0.25366  0.65992  0.65752  1.0000
  C   C1294     1.0  0.17851  0.70907  0.66503  1.0000
  H   H1536     1.0  0.17092  0.72553  0.63866  1.0000
  H   H1537     1.0  0.42091  0.66501  0.63029  1.0000
  H   H1538     1.0  0.99260  0.93410  0.58441  1.0000
  H   H1539     1.0  0.00430  0.96266  0.53277  1.0000
  H   H1540     1.0  0.13932  0.88976  0.68194  1.0000
  H   H1541     1.0  0.17196  0.84752  0.63046  1.0000
  C   C1295     1.0  0.44351  0.66206  0.70378  1.0000
  C   C1296     1.0  0.06104  0.66216  0.57207  1.0000
  C   C1297     1.0  0.39622  0.67965  0.66448  1.0000
  H   H1542     1.0  0.05723  0.69096  0.58897  1.0000
  C   C1298     1.0  0.22338  0.67791  0.64431  1.0000
  H   H1543     1.0  0.25528  0.67358  0.67609  1.0000
  C   C1299     1.0  0.18548  0.71174  0.63959  1.0000
  H   H1544     1.0  0.48834  0.79550  0.55292  1.0000
  C   C1300     1.0  0.41043  0.69448  0.65634  1.0000
  N   N88       1.0  0.19611  0.71160  0.65225  1.0000
  H   H1545     1.0  0.04050  0.94375  0.50948  1.0000
  C   C1301     1.0  0.25779  0.77333  0.69699  1.0000
  S   S347      1.0  0.99748  0.68023  0.62279  1.0000
  H   H1546     1.0  0.16623  0.81301  0.71346  1.0000
  H   H1547     1.0  0.05511  0.70540  0.56236  1.0000
  Fe  Fe173     1.0  0.29611  0.66228  0.69436  1.0000
  C   C1302     1.0  0.24626  0.67475  0.66725  1.0000
  C   C1303     1.0  0.11591  0.83824  0.70915  1.0000
  H   H1548     1.0  0.40194  0.67027  0.69751  1.0000
  H   H1549     1.0  0.45393  0.97358  0.56753  1.0000
  H   H1550     1.0  0.48179  0.96380  0.49846  1.0000
  S   S348      1.0  0.48852  0.68793  0.61998  1.0000
  C   C1304     1.0  0.99781  0.67991  0.58125  1.0000
  H   H1551     1.0  0.02929  0.76115  0.62288  1.0000
  C   C1305     1.0  0.01926  0.66778  0.57678  1.0000
  C   C1306     1.0  0.47848  0.98100  0.49338  1.0000
  C   C1307     1.0  0.00337  0.97007  0.52139  1.0000
  H   H1552     1.0  0.46775  0.96323  0.52242  1.0000
  H   H1553     1.0  0.00854  0.87120  0.60615  1.0000
  H   H1554     1.0  0.28336  0.74540  0.70178  1.0000
  C   C1308     1.0  0.48130  0.97268  0.52309  1.0000
  H   H1555     1.0  0.42866  0.69258  0.72118  1.0000
  H   H1556     1.0  0.06238  0.65692  0.56150  1.0000
  H   H1557     1.0  0.06013  0.96070  0.51201  1.0000
  C   C1309     1.0  0.24217  0.66140  0.64613  1.0000
  C   C1310     1.0  0.04275  0.95663  0.51556  1.0000
  H   H1558     1.0  0.21045  0.78928  0.71923  1.0000
  H   H1559     1.0  0.29716  0.97044  0.58304  1.0000
  H   H1560     1.0  0.48214  0.97111  0.53462  1.0000
  C   C1311     1.0  0.48858  0.97844  0.56107  1.0000
  H   H1561     1.0  0.99389  0.88393  0.51371  1.0000
  C   C1312     1.0  0.99165  0.90517  0.49335  1.0000
  Fe  Fe174     1.0  0.41802  0.87103  0.94855  1.0000
  S   S349      1.0  0.45102  0.86149  0.93501  1.0000
  Fe  Fe175     1.0  0.39447  0.88878  0.92244  1.0000
  S   S350      1.0  0.42607  0.88074  0.90686  1.0000
  S   S351      1.0  0.35977  0.90586  0.91757  1.0000
  Fe  Fe176     1.0  0.43145  0.84819  0.92189  1.0000
  S   S352      1.0  0.44653  0.81305  0.91779  1.0000
  Fe  Fe177     1.0  0.44328  0.89467  0.92126  1.0000
  C   C1313     1.0  0.27702  0.96773  0.88578  1.0000
  S   S353      1.0  0.39872  0.85518  0.93651  1.0000
  S   S354      1.0  0.41141  0.90534  0.93573  1.0000
  H   H1562     1.0  0.35141  0.72161  0.84618  1.0000
  C   C1314     1.0  0.99645  0.65125  0.89335  1.0000
  H   H1563     1.0  0.36834  0.66442  0.74032  1.0000
  Fe  Fe178     1.0  0.21038  0.75186  0.79301  1.0000
  S   S355      1.0  0.20867  0.78888  0.79138  1.0000
  S   S356      1.0  0.24361  0.73347  0.78361  1.0000
  Fe  Fe179     1.0  0.16067  0.75350  0.80632  1.0000
  S   S357      1.0  0.15495  0.79087  0.80538  1.0000
  S   S358      1.0  0.13680  0.72951  0.81771  1.0000
  Fe  Fe180     1.0  0.17591  0.79088  0.78347  1.0000
  S   S359      1.0  0.17214  0.81496  0.76298  1.0000
  Fe  Fe181     1.0  0.18826  0.78536  0.81327  1.0000
  S   S360      1.0  0.19494  0.79620  0.83306  1.0000
  S   S361      1.0  0.17892  0.75390  0.78380  1.0000
  S   S362      1.0  0.19267  0.74794  0.81552  1.0000
  H   H1564     1.0  0.44473  0.68178  0.85293  1.0000
  S   S363      1.0  0.03135  0.76086  0.83002  1.0000
  H   H1565     1.0  0.36469  0.70224  0.82527  1.0000
  Fe  Fe182     1.0  0.07419  0.88335  0.92737  1.0000
  S   S364      1.0  0.08238  0.84773  0.93800  1.0000
  S   S365      1.0  0.09775  0.90501  0.91255  1.0000
  Fe  Fe183     1.0  0.02458  0.88656  0.94005  1.0000
  S   S366      1.0  0.02906  0.85075  0.95102  1.0000
  Fe  Fe184     1.0  0.05975  0.85906  0.95744  1.0000
  Fe  Fe185     1.0  0.05088  0.84266  0.93062  1.0000
  S   S367      1.0  0.05463  0.81160  0.91989  1.0000
  S   S368      1.0  0.05425  0.89511  0.94728  1.0000
  S   S369      1.0  0.04386  0.87795  0.91906  1.0000
  Fe  Fe186     1.0  0.23351  0.94001  0.86527  1.0000
  S   S370      1.0  0.24659  0.91871  0.88459  1.0000
  H   H1566     1.0  0.44043  0.66682  0.73082  1.0000
  Fe  Fe187     1.0  0.23387  0.89956  0.85130  1.0000
  S   S371      1.0  0.24750  0.87524  0.86913  1.0000
  S   S372      1.0  0.22450  0.89023  0.83184  1.0000
  Fe  Fe188     1.0  0.22241  0.89596  0.88338  1.0000
  S   S373      1.0  0.20374  0.87643  0.90271  1.0000
  Fe  Fe189     1.0  0.27067  0.89985  0.86898  1.0000
  S   S374      1.0  0.30766  0.88747  0.87066  1.0000
  S   S375      1.0  0.20706  0.91879  0.86556  1.0000
  S   S376      1.0  0.25936  0.92262  0.84961  1.0000
  N   N89       1.0  0.28572  0.65546  0.75171  1.0000
  C   C1315     1.0  0.41210  0.72352  0.82571  1.0000
  H   H1567     1.0  0.00144  0.77294  0.93465  1.0000
  H   H1568     1.0  0.32641  0.68196  0.83350  1.0000
  C   C1316     1.0  0.12719  0.89704  0.91069  1.0000
  C   C1317     1.0  0.14101  0.91190  0.90216  1.0000
  C   C1318     1.0  0.16451  0.90579  0.89981  1.0000
  C   C1319     1.0  0.17436  0.88479  0.90605  1.0000
  C   C1320     1.0  0.16059  0.87000  0.91474  1.0000
  C   C1321     1.0  0.13702  0.87607  0.91702  1.0000
  H   H1569     1.0  0.13348  0.92820  0.89731  1.0000
  H   H1570     1.0  0.17498  0.91744  0.89326  1.0000
  H   H1571     1.0  0.16810  0.85370  0.91958  1.0000
  H   H1572     1.0  0.12649  0.86447  0.92355  1.0000
  H   H1573     1.0  0.40313  0.70360  0.81212  1.0000
  C   C1322     1.0  0.01236  0.81400  0.91227  1.0000
  C   C1323     1.0  0.03428  0.80242  0.91228  1.0000
  H   H1574     1.0  0.40914  0.77811  0.83139  1.0000
  C   C1324     1.0  0.47388  0.89287  0.95610  1.0000
  C   C1325     1.0  0.10762  0.73887  0.82131  1.0000
  C   C1326     1.0  0.09385  0.72487  0.83080  1.0000
  C   C1327     1.0  0.07046  0.73163  0.83375  1.0000
  C   C1328     1.0  0.06070  0.75230  0.82701  1.0000
  C   C1329     1.0  0.07446  0.76641  0.81761  1.0000
  C   C1330     1.0  0.09791  0.75981  0.81486  1.0000
  H   H1575     1.0  0.10130  0.70866  0.83582  1.0000
  H   H1576     1.0  0.05998  0.72063  0.84100  1.0000
  H   H1577     1.0  0.06699  0.78242  0.81236  1.0000
  H   H1578     1.0  0.10842  0.77069  0.80754  1.0000
  C   C1331     1.0  0.20448  0.82186  0.83214  1.0000
  C   C1332     1.0  0.21234  0.82598  0.84400  1.0000
  C   C1333     1.0  0.21925  0.84662  0.84387  1.0000
  C   C1334     1.0  0.21793  0.86342  0.83195  1.0000
  C   C1335     1.0  0.21029  0.85918  0.82003  1.0000
  C   C1336     1.0  0.20367  0.83842  0.82008  1.0000
  H   H1579     1.0  0.21303  0.81321  0.85336  1.0000
  H   H1580     1.0  0.22538  0.84960  0.85302  1.0000
  H   H1581     1.0  0.20927  0.87210  0.81077  1.0000
  H   H1582     1.0  0.19760  0.83541  0.81089  1.0000
  C   C1337     1.0  0.46193  0.94105  0.93301  1.0000
  C   C1338     1.0  0.15013  0.78714  0.75312  1.0000
  C   C1339     1.0  0.16313  0.80445  0.74964  1.0000
  C   C1340     1.0  0.16899  0.81369  0.73528  1.0000
  H   H1583     1.0  0.46055  0.88221  0.95729  1.0000
  H   H1584     1.0  0.14533  0.78008  0.76418  1.0000
  H   H1585     1.0  0.05719  0.77350  0.90624  1.0000
  C   C1341     1.0  0.27498  0.67168  0.81166  1.0000
  C   C1342     1.0  0.28737  0.68066  0.79884  1.0000
  C   C1343     1.0  0.27759  0.69967  0.79027  1.0000
  C   C1344     1.0  0.25538  0.70959  0.79443  1.0000
  C   C1345     1.0  0.24291  0.70040  0.80712  1.0000
  C   C1346     1.0  0.25272  0.68151  0.81572  1.0000
  H   H1586     1.0  0.30452  0.67306  0.79562  1.0000
  H   H1587     1.0  0.28730  0.70675  0.78046  1.0000
  H   H1588     1.0  0.22564  0.70768  0.81026  1.0000
  H   H1589     1.0  0.24304  0.67445  0.82557  1.0000
  N   N90       1.0  0.22394  0.75475  0.73990  1.0000
  H   H1590     1.0  0.19784  0.68887  0.76582  1.0000
  H   H1591     1.0  0.23818  0.71976  0.74281  1.0000
  C   C1347     1.0  0.45380  0.67534  0.83135  1.0000
  H   H1592     1.0  0.47508  0.75576  0.88731  1.0000
  S   S377      1.0  0.46705  0.77656  0.85876  1.0000
  H   H1593     1.0  0.01602  0.93565  0.92400  1.0000
  H   H1594     1.0  0.25219  0.66474  0.73509  1.0000
  H   H1595     1.0  0.00739  0.82911  0.91700  1.0000
  H   H1596     1.0  0.31779  0.70329  0.81028  1.0000
  H   H1597     1.0  0.27335  0.95984  0.86038  1.0000
  H   H1598     1.0  0.16360  0.90725  0.85646  1.0000
  C   C1348     1.0  0.13986  0.83765  0.87276  1.0000
  H   H1599     1.0  0.19055  0.76474  0.73420  1.0000
  C   C1349     1.0  0.40525  0.73449  0.83787  1.0000
  C   C1350     1.0  0.14260  0.77944  0.74231  1.0000
  C   C1351     1.0  0.41127  0.77020  0.84251  1.0000
  C   C1352     1.0  0.26172  0.66468  0.75580  1.0000
  H   H1600     1.0  0.15360  0.82870  0.86625  1.0000
  C   C1353     1.0  0.34544  0.89974  0.90477  1.0000
  C   C1354     1.0  0.32266  0.90904  0.90468  1.0000
  C   C1355     1.0  0.31081  0.90511  0.89445  1.0000
  C   C1356     1.0  0.32170  0.89208  0.88408  1.0000
  C   C1357     1.0  0.34443  0.88265  0.88421  1.0000
  C   C1358     1.0  0.35625  0.88638  0.89454  1.0000
  H   H1601     1.0  0.31422  0.91940  0.91256  1.0000
  H   H1602     1.0  0.29338  0.91232  0.89446  1.0000
  H   H1603     1.0  0.35298  0.87249  0.87624  1.0000
  H   H1604     1.0  0.37377  0.87914  0.89449  1.0000
  C   C1359     1.0  0.45144  0.80333  0.90128  1.0000
  C   C1360     1.0  0.44551  0.81707  0.88885  1.0000
  C   C1361     1.0  0.45029  0.80867  0.87585  1.0000
  C   C1362     1.0  0.46107  0.78656  0.87522  1.0000
  C   C1363     1.0  0.15060  0.89815  0.86373  1.0000
  C   C1364     1.0  0.39734  0.71250  0.82112  1.0000
  H   H1605     1.0  0.43712  0.83404  0.88927  1.0000
  H   H1606     1.0  0.44570  0.81933  0.86625  1.0000
  H   H1607     1.0  0.12536  0.80747  0.88130  1.0000
  H   H1608     1.0  0.15011  0.90258  0.87442  1.0000
  H   H1609     1.0  0.37636  0.74187  0.85423  1.0000
  C   C1365     1.0  0.25270  0.67025  0.76957  1.0000
  H   H1610     1.0  0.45456  0.75323  0.83920  1.0000
  C   C1366     1.0  0.99641  0.72865  0.81126  1.0000
  N   N91       1.0  0.42047  0.74604  0.84322  1.0000
  H   H1611     1.0  0.46666  0.77050  0.91023  1.0000
  H   H1612     1.0  0.99511  0.67433  0.93781  1.0000
  H   H1613     1.0  0.44669  0.93364  0.93644  1.0000
  C   C1367     1.0  0.15939  0.86977  0.84887  1.0000
  H   H1614     1.0  0.14321  0.87397  0.84456  1.0000
  H   H1615     1.0  0.42267  0.77944  0.84619  1.0000
  S   S378      1.0  0.47974  0.68584  0.82781  1.0000
  C   C1368     1.0  0.23379  0.73691  0.83873  1.0000
  H   H1616     1.0  0.02420  0.69058  0.94366  1.0000
  H   H1617     1.0  0.45190  0.72656  0.83548  1.0000
  C   C1369     1.0  0.14843  0.78866  0.72795  1.0000
  H   H1618     1.0  0.21813  0.74943  0.83858  1.0000
  H   H1619     1.0  0.25233  0.73753  0.75006  1.0000
  H   H1620     1.0  0.23423  0.72954  0.85010  1.0000
  H   H1621     1.0  0.34486  0.84584  0.91431  1.0000
  C   C1370     1.0  0.02477  0.77475  0.90000  1.0000
  C   C1371     1.0  0.41864  0.66805  0.84657  1.0000
  C   C1372     1.0  0.31231  0.69552  0.83313  1.0000
  C   C1373     1.0  0.42243  0.73626  0.85828  1.0000
  H   H1622     1.0  0.19177  0.74506  0.75009  1.0000
  C   C1374     1.0  0.22142  0.77362  0.74792  1.0000
  H   H1623     1.0  0.23809  0.77806  0.74839  1.0000
  C   C1375     1.0  0.43959  0.67567  0.84446  1.0000
  H   H1624     1.0  0.42363  0.90673  0.96858  1.0000
  H   H1625     1.0  0.46601  0.90813  0.96084  1.0000
  H   H1626     1.0  0.21295  0.76949  0.75912  1.0000
  H   H1627     1.0  0.44367  0.75203  0.82358  1.0000
  H   H1628     1.0  0.23152  0.97454  0.83534  1.0000
  H   H1629     1.0  0.11713  0.84631  0.74271  1.0000
  C   C1376     1.0  0.36827  0.72250  0.84037  1.0000
  H   H1630     1.0  0.13214  0.76635  0.74509  1.0000
  H   H1631     1.0  0.30245  0.69087  0.85582  1.0000
  C   C1377     1.0  0.47734  0.93457  0.92135  1.0000
  C   C1378     1.0  0.23571  0.73465  0.74820  1.0000
  H   H1632     1.0  0.33103  0.93696  0.86444  1.0000
  C   C1379     1.0  0.04036  0.78274  0.90612  1.0000
  H   H1633     1.0  0.29215  0.93726  0.86843  1.0000
  H   H1634     1.0  0.45807  0.66642  0.81038  1.0000
  C   C1380     1.0  0.29056  0.95515  0.86329  1.0000
  H   H1635     1.0  0.25664  0.75823  0.85152  1.0000
  C   C1381     1.0  0.25609  0.76482  0.84006  1.0000
  H   H1636     1.0  0.24143  0.77859  0.83970  1.0000
  C   C1382     1.0  0.25038  0.75857  0.81738  1.0000
  H   H1637     1.0  0.03231  0.78077  0.86798  1.0000
  C   C1383     1.0  0.29873  0.70055  0.84570  1.0000
  H   H1638     1.0  0.23513  0.77164  0.81766  1.0000
  H   H1639     1.0  0.42124  0.65270  0.81424  1.0000
  H   H1640     1.0  0.03278  0.81437  0.84998  1.0000
  C   C1384     1.0  0.46209  0.78122  0.90063  1.0000
  H   H1641     1.0  0.21252  0.67947  0.74160  1.0000
  H   H1642     1.0  0.27159  0.77247  0.83558  1.0000
  H   H1643     1.0  0.31443  0.66483  0.73654  1.0000
  H   H1644     1.0  0.99608  0.67022  0.91986  1.0000
  H   H1645     1.0  0.03927  0.81170  0.87576  1.0000
  H   H1646     1.0  0.37523  0.94671  0.89112  1.0000
  H   H1647     1.0  0.30971  0.86838  0.95282  1.0000
  C   C1385     1.0  0.99888  0.94412  0.92606  1.0000
  C   C1386     1.0  0.21549  0.68225  0.76301  1.0000
  C   C1387     1.0  0.12055  0.84858  0.73114  1.0000
  H   H1648     1.0  0.24764  0.74653  0.81084  1.0000
  C   C1388     1.0  0.00744  0.71027  0.90726  1.0000
  C   C1389     1.0  0.41183  0.65980  0.83568  1.0000
  H   H1649     1.0  0.02614  0.70716  0.90632  1.0000
  H   H1650     1.0  0.21107  0.78898  0.74312  1.0000
  C   C1390     1.0  0.42627  0.65902  0.82269  1.0000
  S   S379      1.0  0.02069  0.73170  0.87058  1.0000
  C   C1391     1.0  0.38277  0.73388  0.84495  1.0000
  C   C1392     1.0  0.22996  0.67903  0.77302  1.0000
  S   S380      1.0  0.34912  0.65885  0.80761  1.0000
  Fe  Fe190     1.0  0.01072  0.74208  0.84882  1.0000
  C   C1393     1.0  0.30741  0.70755  0.82006  1.0000
  H   H1651     1.0  0.02957  0.75935  0.89561  1.0000
  H   H1652     1.0  0.28551  0.73245  0.80893  1.0000
  H   H1653     1.0  0.29959  0.66805  0.76712  1.0000
  C   C1394     1.0  0.20125  0.74996  0.73926  1.0000
  C   C1395     1.0  0.44360  0.74432  0.83496  1.0000
  H   H1654     1.0  0.40624  0.73899  0.86560  1.0000
  S   S381      1.0  0.41535  0.86060  0.97252  1.0000
  C   C1396     1.0  0.28866  0.72439  0.81946  1.0000
  C   C1397     1.0  0.48937  0.85315  0.90171  1.0000
  H   H1655     1.0  0.29477  0.68792  0.74259  1.0000
  N   N92       1.0  0.06193  0.79636  0.85899  1.0000
  C   C1398     1.0  0.05057  0.77625  0.86387  1.0000
  C   C1399     1.0  0.05748  0.80922  0.87106  1.0000
  C   C1400     1.0  0.05136  0.81008  0.84693  1.0000
  C   C1401     1.0  0.08650  0.79091  0.85422  1.0000
  C   C1402     1.0  0.09720  0.76902  0.85196  1.0000
  C   C1403     1.0  0.10037  0.80798  0.85102  1.0000
  C   C1404     1.0  0.12035  0.76456  0.84714  1.0000
  C   C1405     1.0  0.12353  0.80330  0.84620  1.0000
  C   C1406     1.0  0.13348  0.78162  0.84430  1.0000
  H   H1656     1.0  0.05828  0.76475  0.87262  1.0000
  S   S382      1.0  0.01522  0.66781  0.88184  1.0000
  H   H1657     1.0  0.05114  0.76688  0.85499  1.0000
  H   H1658     1.0  0.06695  0.80033  0.87980  1.0000
  H   H1659     1.0  0.36676  0.92732  0.87304  1.0000
  H   H1660     1.0  0.06208  0.82630  0.86786  1.0000
  C   C1407     1.0  0.31720  0.96394  0.87716  1.0000
  H   H1661     1.0  0.30240  0.95658  0.85304  1.0000
  H   H1662     1.0  0.05822  0.82607  0.84308  1.0000
  H   H1663     1.0  0.08807  0.75506  0.85358  1.0000
  H   H1664     1.0  0.09336  0.82516  0.85198  1.0000
  H   H1665     1.0  0.12809  0.74781  0.84527  1.0000
  H   H1666     1.0  0.13385  0.81654  0.84368  1.0000
  H   H1667     1.0  0.15136  0.77805  0.84037  1.0000
  N   N93       1.0  0.26590  0.86374  0.91895  1.0000
  C   C1408     1.0  0.26805  0.85962  0.90407  1.0000
  C   C1409     1.0  0.25166  0.84791  0.92824  1.0000
  C   C1410     1.0  0.25398  0.88694  0.91951  1.0000
  C   C1411     1.0  0.28783  0.86087  0.92404  1.0000
  C   C1412     1.0  0.30869  0.85323  0.91581  1.0000
  C   C1413     1.0  0.28875  0.86578  0.93769  1.0000
  C   C1414     1.0  0.32908  0.85114  0.92089  1.0000
  C   C1415     1.0  0.30929  0.86396  0.94254  1.0000
  C   C1416     1.0  0.32942  0.85679  0.93411  1.0000
  H   H1668     1.0  0.27577  0.84210  0.90292  1.0000
  H   H1669     1.0  0.25135  0.86216  0.90050  1.0000
  H   H1670     1.0  0.27827  0.87127  0.89645  1.0000
  H   H1671     1.0  0.26011  0.83027  0.92828  1.0000
  H   H1672     1.0  0.23509  0.84945  0.92455  1.0000
  H   H1673     1.0  0.24785  0.85096  0.93947  1.0000
  H   H1674     1.0  0.26477  0.89942  0.91348  1.0000
  H   H1675     1.0  0.23809  0.89010  0.91487  1.0000
  H   H1676     1.0  0.24891  0.89061  0.93056  1.0000
  H   H1677     1.0  0.30988  0.84929  0.90524  1.0000
  H   H1678     1.0  0.27361  0.87133  0.94465  1.0000
  C   C1417     1.0  0.02639  0.72185  0.94898  1.0000
  Fe  Fe191     1.0  0.00136  0.70307  0.87238  1.0000
  H   H1679     1.0  0.34538  0.85594  0.93773  1.0000
  N   N94       1.0  0.15606  0.87355  0.86391  1.0000
  C   C1418     1.0  0.17755  0.86565  0.86955  1.0000
  C   C1419     1.0  0.13852  0.86096  0.87281  1.0000
  C   C1420     1.0  0.12045  0.87092  0.88229  1.0000
  C   C1421     1.0  0.10471  0.85834  0.89100  1.0000
  C   C1422     1.0  0.12388  0.82527  0.88142  1.0000
  C   C1423     1.0  0.10636  0.83560  0.89056  1.0000
  H   H1680     1.0  0.16668  0.85224  0.84758  1.0000
  H   H1681     1.0  0.18357  0.84758  0.86915  1.0000
  H   H1682     1.0  0.19119  0.87500  0.86339  1.0000
  H   H1683     1.0  0.17568  0.86792  0.88090  1.0000
  H   H1684     1.0  0.11826  0.88834  0.88347  1.0000
  H   H1685     1.0  0.09137  0.86627  0.89836  1.0000
  H   H1686     1.0  0.09424  0.82594  0.89754  1.0000
  H   H1687     1.0  0.13412  0.90506  0.86009  1.0000
  H   H1688     1.0  0.42826  0.71788  0.85938  1.0000
  H   H1689     1.0  0.39465  0.77310  0.84938  1.0000
  H   H1690     1.0  0.45425  0.96188  0.94940  1.0000
  H   H1691     1.0  0.43466  0.74385  0.86241  1.0000
  H   H1692     1.0  0.17148  0.88023  0.84181  1.0000
  C   C1424     1.0  0.37561  0.71173  0.82853  1.0000
  H   H1693     1.0  0.26993  0.72058  0.85530  1.0000
  C   C1425     1.0  0.29621  0.67100  0.73968  1.0000
  C   C1426     1.0  0.46688  0.77284  0.88766  1.0000
  H   H1694     1.0  0.05429  0.80083  0.83771  1.0000
  H   H1695     1.0  0.22588  0.73016  0.75898  1.0000
  C   C1427     1.0  0.46627  0.95706  0.94036  1.0000
  S   S383      1.0  0.22682  0.97740  0.86567  1.0000
  H   H1696     1.0  0.26277  0.66791  0.77796  1.0000
  N   N95       1.0  0.29453  0.96976  0.87290  1.0000
  H   H1697     1.0  0.03756  0.71432  0.95666  1.0000
  H   H1698     1.0  0.23197  0.72327  0.83310  1.0000
  H   H1699     1.0  0.26476  0.76720  0.81169  1.0000
  H   H1700     1.0  0.48376  0.86784  0.90738  1.0000
  S   S384      1.0  0.47875  0.70953  0.86444  1.0000
  H   H1701     1.0  0.00241  0.72819  0.90289  1.0000
  C   C1428     1.0  0.33385  0.94678  0.87192  1.0000
  H   H1702     1.0  0.00529  0.97418  0.91135  1.0000
  C   C1429     1.0  0.44712  0.66684  0.82053  1.0000
  H   H1703     1.0  0.47486  0.84376  0.90385  1.0000
  H   H1704     1.0  0.47848  0.89823  0.94445  1.0000
  H   H1705     1.0  0.17898  0.82715  0.73256  1.0000
  C   C1430     1.0  0.28008  0.71751  0.84526  1.0000
  H   H1706     1.0  0.00588  0.77052  0.80209  1.0000
  H   H1707     1.0  0.26546  0.73447  0.72603  1.0000
  N   N96       1.0  0.25408  0.74725  0.83195  1.0000
  C   C1431     1.0  0.99794  0.74154  0.92912  1.0000
  C   C1432     1.0  0.01852  0.70837  0.94141  1.0000
  C   C1433     1.0  0.24654  0.66844  0.74580  1.0000
  H   H1708     1.0  0.41036  0.67627  0.73398  1.0000
  C   C1434     1.0  0.00279  0.78626  0.90009  1.0000
  H   H1709     1.0  0.42898  0.72252  0.81977  1.0000
  C   C1435     1.0  0.00251  0.67983  0.92654  1.0000
  C   C1436     1.0  0.00597  0.75485  0.93669  1.0000
  S   S385      1.0  0.47306  0.91332  0.91251  1.0000
  H   H1710     1.0  0.22354  0.68331  0.78359  1.0000
  C   C1437     1.0  0.22377  0.67696  0.74942  1.0000
  C   C1438     1.0  0.27434  0.72985  0.83211  1.0000
  C   C1439     1.0  0.00405  0.71790  0.93115  1.0000
  C   C1440     1.0  0.35948  0.95197  0.88693  1.0000
  H   H1711     1.0  0.46969  0.88851  0.88648  1.0000
  H   H1712     1.0  0.28835  0.67299  0.72992  1.0000
  C   C1441     1.0  0.48588  0.96702  0.93603  1.0000
  C   C1442     1.0  0.99275  0.96591  0.91888  1.0000
  H   H1713     1.0  0.40757  0.66865  0.85667  1.0000
  H   H1714     1.0  0.00280  0.70015  0.90018  1.0000
  S   S386      1.0  0.99495  0.71142  0.84963  1.0000
  H   H1715     1.0  0.10007  0.82425  0.72986  1.0000
  H   H1716     1.0  0.46265  0.86426  0.88139  1.0000
  C   C1443     1.0  0.02024  0.74505  0.94655  1.0000
  C   C1444     1.0  0.35465  0.94102  0.87676  1.0000
  H   H1717     1.0  0.02668  0.75552  0.95222  1.0000
  H   H1718     1.0  0.00958  0.73191  0.81687  1.0000
  H   H1719     1.0  0.14266  0.87173  0.72995  1.0000
  C   C1445     1.0  0.99231  0.76575  0.79748  1.0000
  H   H1720     1.0  0.00063  0.75916  0.78755  1.0000
  H   H1721     1.0  0.02107  0.67441  0.92508  1.0000
  Fe  Fe192     1.0  0.48979  0.74337  0.85698  1.0000
  C   C1446     1.0  0.32304  0.97533  0.88712  1.0000
  N   N97       1.0  0.99659  0.70443  0.92222  1.0000
  C   C1447     1.0  0.99669  0.80585  0.90630  1.0000
  H   H1722     1.0  0.27974  0.95087  0.89236  1.0000
  C   C1448     1.0  0.34380  0.96922  0.89201  1.0000
  H   H1723     1.0  0.25978  0.97033  0.88297  1.0000
  H   H1724     1.0  0.34763  0.97756  0.90000  1.0000
  S   S387      1.0  0.38476  0.65171  0.83856  1.0000
  C   C1449     1.0  0.47648  0.87423  0.88052  1.0000
  C   C1450     1.0  0.29919  0.65202  0.76348  1.0000
  H   H1725     1.0  0.20241  0.73628  0.73297  1.0000
  H   H1726     1.0  0.48056  0.88170  0.86913  1.0000
  H   H1727     1.0  0.01551  0.90125  0.96940  1.0000
  H   H1728     1.0  0.27666  0.98034  0.89269  1.0000
  H   H1729     1.0  0.00561  0.72171  0.80164  1.0000
  C   C1451     1.0  0.23591  0.76090  0.72526  1.0000
  C   C1452     1.0  0.42560  0.67512  0.72561  1.0000
  H   H1730     1.0  0.02607  0.92365  0.97419  1.0000
  H   H1731     1.0  0.00267  0.98171  0.95878  1.0000
  C   C1453     1.0  0.16189  0.80563  0.72445  1.0000
  S   S388      1.0  0.53069  0.03997  0.98172  1.0000
  Fe  Fe193     1.0  0.58140  0.04698  0.07325  1.0000
  S   S389      1.0  0.61060  0.05905  0.05765  1.0000
  S   S390      1.0  0.56215  0.06146  0.09276  1.0000
  Fe  Fe194     1.0  0.59571  0.04666  0.04138  1.0000
  S   S391      1.0  0.59627  0.06380  0.01841  1.0000
  Fe  Fe195     1.0  0.62810  0.02358  0.06227  1.0000
  S   S392      1.0  0.56486  0.03776  0.05661  1.0000
  S   S393      1.0  0.59997  0.01216  0.07887  1.0000
  Fe  Fe196     1.0  0.68019  0.27043  0.16560  1.0000
  S   S394      1.0  0.65729  0.26170  0.18622  1.0000
  S   S395      1.0  0.70951  0.24748  0.15558  1.0000
  N   N98       1.0  0.74605  0.31500  0.14774  1.0000
  H   H1732     1.0  0.49660  0.99960  0.05288  1.0000
  Fe  Fe197     1.0  0.66155  0.29517  0.19086  1.0000
  H   H1733     1.0  0.70999  0.00027  0.07077  1.0000
  Fe  Fe198     1.0  0.62977  0.28136  0.17409  1.0000
  S   S396      1.0  0.59498  0.27164  0.17563  1.0000
  H   H1734     1.0  0.76454  0.23596  0.21640  1.0000
  S   S397      1.0  0.65258  0.28769  0.15317  1.0000
  S   S398      1.0  0.96499  0.21133  0.14782  1.0000
  Fe  Fe199     1.0  0.96499  0.08969  0.04947  1.0000
  S   S399      1.0  0.96263  0.05706  0.06423  1.0000
  S   S400      1.0  0.50888  0.26817  0.09978  1.0000
  Fe  Fe200     1.0  0.94308  0.07467  0.02684  1.0000
  S   S401      1.0  0.93853  0.04124  0.04024  1.0000
  S   S402      1.0  0.93878  0.08550  0.00356  1.0000
  Fe  Fe201     1.0  0.92776  0.06083  0.05856  1.0000
  S   S403      1.0  0.89887  0.05923  0.07699  1.0000
  H   H1735     1.0  0.72508  0.31237  0.20477  1.0000
  S   S404      1.0  0.92960  0.09454  0.04476  1.0000
  Fe  Fe202     1.0  0.80975  0.17667  0.18962  1.0000
  S   S405      1.0  0.81244  0.14514  0.20562  1.0000
  S   S406      1.0  0.77993  0.20188  0.19668  1.0000
  Fe  Fe203     1.0  0.85421  0.16108  0.17133  1.0000
  S   S407      1.0  0.86010  0.12853  0.18619  1.0000
  S   S408      1.0  0.87913  0.16514  0.15082  1.0000
  Fe  Fe204     1.0  0.82343  0.12758  0.18656  1.0000
  S   S409      1.0  0.81053  0.09533  0.18653  1.0000
  Fe  Fe205     1.0  0.84854  0.14926  0.20371  1.0000
  S   S410      1.0  0.81799  0.15883  0.17057  1.0000
  S   S411      1.0  0.84535  0.18205  0.18881  1.0000
  Fe  Fe206     1.0  0.77804  0.03957  0.12793  1.0000
  S   S412      1.0  0.80683  0.01160  0.12498  1.0000
  S   S413      1.0  0.78219  0.07395  0.13122  1.0000
  Fe  Fe207     1.0  0.74470  0.01455  0.11949  1.0000
  S   S414      1.0  0.70730  0.01703  0.11901  1.0000
  Fe  Fe208     1.0  0.79371  0.00990  0.10513  1.0000
  S   S415      1.0  0.81752  0.00491  0.08479  1.0000
  S   S416      1.0  0.75410  0.01680  0.14059  1.0000
  S   S417      1.0  0.76659  0.03947  0.10712  1.0000
  Fe  Fe209     1.0  0.51996  0.18461  0.11204  1.0000
  S   S418      1.0  0.51720  0.17432  0.13587  1.0000
  S   S419      1.0  0.53436  0.16604  0.09336  1.0000
  Fe  Fe210     1.0  0.53502  0.20372  0.13549  1.0000
  S   S420      1.0  0.56895  0.20145  0.14275  1.0000
  S   S421      1.0  0.53954  0.21206  0.11174  1.0000
  C   C1454     1.0  0.80211  0.08970  0.17124  1.0000
  C   C1455     1.0  0.79670  0.06846  0.17127  1.0000
  C   C1456     1.0  0.79057  0.06330  0.15907  1.0000
  C   C1457     1.0  0.78967  0.07947  0.14681  1.0000
  C   C1458     1.0  0.79482  0.10078  0.14686  1.0000
  C   C1459     1.0  0.80106  0.10587  0.15900  1.0000
  H   H1736     1.0  0.79747  0.05587  0.18072  1.0000
  H   H1737     1.0  0.78654  0.04686  0.15915  1.0000
  H   H1738     1.0  0.79422  0.11330  0.13736  1.0000
  H   H1739     1.0  0.80533  0.12221  0.15881  1.0000
  C   C1460     1.0  0.87601  0.04491  0.07794  1.0000
  C   C1461     1.0  0.85671  0.04963  0.08793  1.0000
  C   C1462     1.0  0.83872  0.03753  0.08994  1.0000
  C   C1463     1.0  0.83977  0.02070  0.08186  1.0000
  C   C1464     1.0  0.85876  0.01631  0.07154  1.0000
  C   C1465     1.0  0.87692  0.02838  0.06960  1.0000
  H   H1740     1.0  0.85561  0.06284  0.09410  1.0000
  H   H1741     1.0  0.82396  0.04144  0.09768  1.0000
  C   C1466     1.0  0.69957  0.00663  0.07991  1.0000
  H   H1742     1.0  0.89174  0.02468  0.06184  1.0000
  C   C1467     1.0  0.89868  0.04723  0.99290  1.0000
  C   C1468     1.0  0.90965  0.05731  0.00104  1.0000
  C   C1469     1.0  0.92698  0.06951  0.99431  1.0000
  C   C1470     1.0  0.70922  0.00731  0.09194  1.0000
  H   H1743     1.0  0.88497  0.03821  0.99811  1.0000
  H   H1744     1.0  0.90421  0.05630  0.01242  1.0000
  C   C1471     1.0  0.94183  0.19725  0.14906  1.0000
  C   C1472     1.0  0.94133  0.18331  0.13928  1.0000
  C   C1473     1.0  0.92214  0.17320  0.14010  1.0000
  C   C1474     1.0  0.90349  0.17675  0.15078  1.0000
  C   C1475     1.0  0.90428  0.19012  0.16082  1.0000
  C   C1476     1.0  0.92335  0.20044  0.15990  1.0000
  H   H1745     1.0  0.95561  0.18055  0.13100  1.0000
  H   H1746     1.0  0.92170  0.16264  0.13244  1.0000
  H   H1747     1.0  0.89002  0.19294  0.16911  1.0000
  H   H1748     1.0  0.92366  0.21111  0.16755  1.0000
  H   H1749     1.0  0.60714  0.11862  0.07327  1.0000
  H   H1750     1.0  0.66825  0.20115  0.19810  1.0000
  C   C1477     1.0  0.72926  0.23515  0.16692  1.0000
  C   C1478     1.0  0.74960  0.22270  0.16153  1.0000
  C   C1479     1.0  0.76538  0.21242  0.17056  1.0000
  C   C1480     1.0  0.76079  0.21459  0.18499  1.0000
  C   C1481     1.0  0.74052  0.22716  0.19034  1.0000
  C   C1482     1.0  0.72478  0.23743  0.18133  1.0000
  H   H1751     1.0  0.75313  0.22102  0.15036  1.0000
  H   H1752     1.0  0.78113  0.20297  0.16635  1.0000
  H   H1753     1.0  0.73685  0.22881  0.20150  1.0000
  H   H1754     1.0  0.70912  0.24701  0.18555  1.0000
  C   C1483     1.0  0.53084  0.98733  0.05646  1.0000
  S   S422      1.0  0.66545  0.01426  0.06390  1.0000
  H   H1755     1.0  0.85962  0.00338  0.06519  1.0000
  H   H1756     1.0  0.61304  0.07996  0.08633  1.0000
  C   C1484     1.0  0.58827  0.25216  0.16624  1.0000
  C   C1485     1.0  0.60467  0.23996  0.15733  1.0000
  C   C1486     1.0  0.59853  0.22447  0.15023  1.0000
  C   C1487     1.0  0.57592  0.22135  0.15172  1.0000
  C   C1488     1.0  0.55951  0.23373  0.16049  1.0000
  C   C1489     1.0  0.56570  0.24890  0.16779  1.0000
  H   H1757     1.0  0.62209  0.24228  0.15605  1.0000
  H   H1758     1.0  0.61138  0.21492  0.14352  1.0000
  H   H1759     1.0  0.54211  0.23125  0.16191  1.0000
  H   H1760     1.0  0.55294  0.25810  0.17475  1.0000
  C   C1490     1.0  0.67654  0.01436  0.07954  1.0000
  C   C1491     1.0  0.69589  0.01580  0.10369  1.0000
  C   C1492     1.0  0.67278  0.02314  0.10345  1.0000
  C   C1493     1.0  0.66313  0.02251  0.09141  1.0000
  H   H1761     1.0  0.66232  0.02958  0.11255  1.0000
  H   H1762     1.0  0.64539  0.02847  0.09125  1.0000
  C   C1494     1.0  0.55391  0.09052  0.09271  1.0000
  C   C1495     1.0  0.54392  0.09824  0.10555  1.0000
  C   C1496     1.0  0.53744  0.12131  0.10594  1.0000
  C   C1497     1.0  0.54108  0.13682  0.09347  1.0000
  C   C1498     1.0  0.55078  0.12904  0.08060  1.0000
  C   C1499     1.0  0.55715  0.10599  0.08020  1.0000
  H   H1763     1.0  0.54123  0.08633  0.11525  1.0000
  H   H1764     1.0  0.52959  0.12706  0.11586  1.0000
  H   H1765     1.0  0.55353  0.14095  0.07090  1.0000
  H   H1766     1.0  0.56473  0.10022  0.07024  1.0000
  C   C1500     1.0  0.55011  0.04521  0.99161  1.0000
  C   C1501     1.0  0.54501  0.04164  0.00655  1.0000
  C   C1502     1.0  0.55945  0.04662  0.01485  1.0000
  C   C1503     1.0  0.57877  0.05587  0.00825  1.0000
  C   C1504     1.0  0.58387  0.05950  0.99329  1.0000
  C   C1505     1.0  0.56976  0.05387  0.98497  1.0000
  H   H1767     1.0  0.52972  0.03514  0.01175  1.0000
  H   H1768     1.0  0.55527  0.04392  0.02635  1.0000
  H   H1769     1.0  0.59868  0.06690  0.98813  1.0000
  C   C1506     1.0  0.73044  0.31271  0.19340  1.0000
  H   H1770     1.0  0.73384  0.27705  0.19488  1.0000
  H   H1771     1.0  0.79084  0.02367  0.04387  1.0000
  H   H1772     1.0  0.54526  0.00072  0.08176  1.0000
  S   S423      1.0  0.63225  0.31442  0.18038  1.0000
  C   C1507     1.0  0.94476  0.24688  0.10367  1.0000
  C   C1508     1.0  0.74041  0.04621  0.06227  1.0000
  H   H1773     1.0  0.53531  0.25905  0.12240  1.0000
  H   H1774     1.0  0.71870  0.14363  0.20399  1.0000
  H   H1775     1.0  0.56465  0.11671  0.99991  1.0000
  H   H1776     1.0  0.78380  0.00418  0.06823  1.0000
  C   C1509     1.0  0.51157  0.98716  0.99694  1.0000
  S   S424      1.0  0.68659  0.30216  0.17098  1.0000
  H   H1777     1.0  0.51283  0.00009  0.98775  1.0000
  C   C1510     1.0  0.55764  0.11682  0.99036  1.0000
  H   H1778     1.0  0.52380  0.03791  0.10809  1.0000
  H   H1779     1.0  0.72689  0.00125  0.09215  1.0000
  C   C1511     1.0  0.52796  0.98440  0.00575  1.0000
  H   H1780     1.0  0.75764  0.17368  0.16075  1.0000
  C   C1512     1.0  0.87126  0.09997  0.97516  1.0000
  H   H1781     1.0  0.53546  0.00383  0.05499  1.0000
  C   C1513     1.0  0.77256  0.03068  0.04536  1.0000
  H   H1782     1.0  0.94625  0.26131  0.10817  1.0000
  H   H1783     1.0  0.77703  0.06661  0.05684  1.0000
  C   C1514     1.0  0.94261  0.20804  0.09237  1.0000
  H   H1784     1.0  0.97391  0.01641  0.01417  1.0000
  H   H1785     1.0  0.96591  0.25667  0.08392  1.0000
  N   N99       1.0  0.76424  0.03530  0.06014  1.0000
  C   C1515     1.0  0.95141  0.00805  0.98623  1.0000
  H   H1786     1.0  0.57753  0.99469  0.02694  1.0000
  C   C1516     1.0  0.51139  0.02696  0.10752  1.0000
  C   C1517     1.0  0.74159  0.31378  0.16345  1.0000
  C   C1518     1.0  0.91896  0.18348  0.08751  1.0000
  H   H1787     1.0  0.51209  0.01305  0.11673  1.0000
  C   C1519     1.0  0.72573  0.04755  0.05221  1.0000
  H   H1788     1.0  0.54077  0.99524  0.00322  1.0000
  N   N100      1.0  0.51628  0.01818  0.09382  1.0000
  C   C1520     1.0  0.95578  0.24424  0.08999  1.0000
  H   H1789     1.0  0.51627  0.30014  0.11624  1.0000
  S   S425      1.0  0.50317  0.22847  0.13817  1.0000
  C   C1521     1.0  0.93238  0.23064  0.11171  1.0000
  C   C1522     1.0  0.52947  0.28664  0.14062  1.0000
  H   H1790     1.0  0.53552  0.09328  0.00087  1.0000
  C   C1523     1.0  0.90491  0.04931  0.97801  1.0000
  N   N101      1.0  0.54533  0.28847  0.12694  1.0000
  H   H1791     1.0  0.97093  0.17015  0.09733  1.0000
  H   H1792     1.0  0.55189  0.01856  0.09242  1.0000
  H   H1793     1.0  0.90932  0.18122  0.09849  1.0000
  H   H1794     1.0  0.91837  0.16821  0.08303  1.0000
  H   H1795     1.0  0.79741  0.04216  0.06109  1.0000
  H   H1796     1.0  0.76278  0.01601  0.08132  1.0000
  S   S426      1.0  0.97859  0.07284  0.03032  1.0000
  H   H1797     1.0  0.67621  0.07061  0.07007  1.0000
  H   H1798     1.0  0.96440  0.22396  0.07388  1.0000
  H   H1799     1.0  0.56132  0.29602  0.15106  1.0000
  H   H1800     1.0  0.63945  0.00246  0.98492  1.0000
  H   H1801     1.0  0.93742  0.01339  0.00774  1.0000
  H   H1802     1.0  0.54299  0.99267  0.10091  1.0000
  H   H1803     1.0  0.93485  0.00716  0.98414  1.0000
  H   H1804     1.0  0.56082  0.25392  0.12993  1.0000
  H   H1805     1.0  0.77645  0.05151  0.07471  1.0000
  H   H1806     1.0  0.90971  0.19807  0.08114  1.0000
  S   S427      1.0  0.86741  0.14805  0.22188  1.0000
  H   H1807     1.0  0.75458  0.00285  0.06842  1.0000
  H   H1808     1.0  0.70081  0.06869  0.08804  1.0000
  H   H1809     1.0  0.73119  0.04121  0.04226  1.0000
  H   H1810     1.0  0.95479  0.15155  0.09294  1.0000
  H   H1811     1.0  0.74872  0.29473  0.13126  1.0000
  C   C1524     1.0  0.53272  0.10290  0.97855  1.0000
  C   C1525     1.0  0.53329  0.30429  0.11620  1.0000
  H   H1812     1.0  0.61502  0.31033  0.10638  1.0000
  C   C1526     1.0  0.74634  0.29324  0.14308  1.0000
  C   C1527     1.0  0.95261  0.01157  0.99994  1.0000
  C   C1528     1.0  0.59235  0.30649  0.14136  1.0000
  N   N102      1.0  0.87848  0.09446  0.14821  1.0000
  C   C1529     1.0  0.88570  0.08198  0.16172  1.0000
  C   C1530     1.0  0.89689  0.10690  0.14030  1.0000
  C   C1531     1.0  0.85842  0.11126  0.15169  1.0000
  C   C1532     1.0  0.87260  0.07866  0.14017  1.0000
  C   C1533     1.0  0.88462  0.07460  0.12658  1.0000
  C   C1534     1.0  0.85417  0.06686  0.14590  1.0000
  C   C1535     1.0  0.87821  0.05990  0.11919  1.0000
  C   C1536     1.0  0.84776  0.05243  0.13834  1.0000
  C   C1537     1.0  0.85974  0.04897  0.12502  1.0000
  H   H1813     1.0  0.90034  0.06870  0.15961  1.0000
  H   H1814     1.0  0.89068  0.09331  0.16794  1.0000
  H   H1815     1.0  0.87201  0.07376  0.16885  1.0000
  H   H1816     1.0  0.89223  0.11709  0.13017  1.0000
  H   H1817     1.0  0.91295  0.09544  0.13796  1.0000
  H   H1818     1.0  0.90057  0.11892  0.14658  1.0000
  H   H1819     1.0  0.84540  0.10390  0.15989  1.0000
  H   H1820     1.0  0.86268  0.12492  0.15624  1.0000
  H   H1821     1.0  0.85065  0.11913  0.14205  1.0000
  H   H1822     1.0  0.89888  0.08270  0.12131  1.0000
  H   H1823     1.0  0.84434  0.06896  0.15621  1.0000
  H   H1824     1.0  0.88743  0.05725  0.10874  1.0000
  H   H1825     1.0  0.83316  0.04417  0.14274  1.0000
  H   H1826     1.0  0.85455  0.03798  0.11911  1.0000
  N   N103      1.0  0.74352  0.14877  0.17712  1.0000
  C   C1538     1.0  0.76133  0.14767  0.18588  1.0000
  C   C1539     1.0  0.73858  0.12577  0.17791  1.0000
  C   C1540     1.0  0.75285  0.15672  0.16205  1.0000
  C   C1541     1.0  0.72287  0.16332  0.18263  1.0000
  C   C1542     1.0  0.71209  0.15814  0.19693  1.0000
  C   C1543     1.0  0.71278  0.18273  0.17416  1.0000
  C   C1544     1.0  0.69262  0.17164  0.20242  1.0000
  C   C1545     1.0  0.69328  0.19604  0.17975  1.0000
  C   C1546     1.0  0.68327  0.19059  0.19385  1.0000
  S   S428      1.0  0.77088  0.98463  0.11564  1.0000
  H   H1827     1.0  0.77723  0.13716  0.18187  1.0000
  H   H1828     1.0  0.76517  0.16469  0.18589  1.0000
  H   H1829     1.0  0.73363  0.11762  0.18906  1.0000
  H   H1830     1.0  0.75358  0.11455  0.17335  1.0000
  H   H1831     1.0  0.72469  0.12592  0.17188  1.0000
  H   H1832     1.0  0.81161  0.18843  0.21892  1.0000
  H   H1833     1.0  0.94698  0.19978  0.06470  1.0000
  H   H1834     1.0  0.85784  0.09187  0.98191  1.0000
  H   H1835     1.0  0.98283  0.09401  0.08108  1.0000
  H   H1836     1.0  0.71970  0.18829  0.16320  1.0000
  C   C1547     1.0  0.54117  0.10364  0.99090  1.0000
  C   C1548     1.0  0.56651  0.29621  0.12786  1.0000
  C   C1549     1.0  0.73529  0.29282  0.18779  1.0000
  C   C1550     1.0  0.95351  0.16781  0.09675  1.0000
  C   C1551     1.0  0.62459  0.00765  0.97925  1.0000
  C   C1552     1.0  0.74105  0.29319  0.17306  1.0000
  H   H1837     1.0  0.52074  0.09156  0.97945  1.0000
  C   C1553     1.0  0.70293  0.05656  0.05499  1.0000
  C   C1554     1.0  0.56543  0.12966  0.97750  1.0000
  C   C1555     1.0  0.97312  0.01336  0.00358  1.0000
  C   C1556     1.0  0.60770  0.31057  0.12894  1.0000
  H   H1838     1.0  0.92425  0.23245  0.12251  1.0000
  H   H1839     1.0  0.75661  0.14006  0.19717  1.0000
  H   H1840     1.0  0.51673  0.03141  0.07153  1.0000
  N   N104      1.0  0.94248  0.18683  0.08725  1.0000
  C   C1557     1.0  0.69406  0.06445  0.06777  1.0000
  H   H1841     1.0  0.68604  0.21093  0.17313  1.0000
  C   C1558     1.0  0.93375  0.07085  0.97953  1.0000
  H   H1842     1.0  0.74042  0.05291  0.08368  1.0000
  C   C1559     1.0  0.51438  0.03735  0.08198  1.0000
  C   C1560     1.0  0.73073  0.05430  0.07522  1.0000
  C   C1561     1.0  0.77929  0.04958  0.06330  1.0000
  C   C1562     1.0  0.54007  0.00693  0.09215  1.0000
  H   H1843     1.0  0.95405  0.16998  0.06888  1.0000
  H   H1844     1.0  0.76382  0.01799  0.04271  1.0000
  C   C1563     1.0  0.55079  0.26604  0.12253  1.0000
  Fe  Fe211     1.0  0.58561  0.00394  0.06105  1.0000
  H   H1845     1.0  0.56059  0.26639  0.11161  1.0000
  N   N105      1.0  0.59317  0.14965  0.11557  1.0000
  C   C1564     1.0  0.57139  0.14777  0.12509  1.0000
  C   C1565     1.0  0.61075  0.14889  0.12445  1.0000
  C   C1566     1.0  0.59089  0.17211  0.10653  1.0000
  C   C1567     1.0  0.59904  0.13085  0.10729  1.0000
  C   C1568     1.0  0.60262  0.10837  0.11442  1.0000
  C   C1569     1.0  0.60093  0.13406  0.09217  1.0000
  C   C1570     1.0  0.60779  0.09031  0.10689  1.0000
  C   C1571     1.0  0.60638  0.11586  0.08475  1.0000
  C   C1572     1.0  0.60969  0.09404  0.09209  1.0000
  H   H1846     1.0  0.57167  0.13175  0.13265  1.0000
  H   H1847     1.0  0.56664  0.16143  0.13167  1.0000
  H   H1848     1.0  0.55765  0.14890  0.11877  1.0000
  H   H1849     1.0  0.61185  0.13367  0.13271  1.0000
  H   H1850     1.0  0.60715  0.16341  0.13036  1.0000
  H   H1851     1.0  0.62763  0.14925  0.11775  1.0000
  H   H1852     1.0  0.58677  0.18581  0.11311  1.0000
  H   H1853     1.0  0.60675  0.17483  0.09912  1.0000
  H   H1854     1.0  0.57689  0.17446  0.10020  1.0000
  H   H1855     1.0  0.60097  0.10456  0.12590  1.0000
  H   H1856     1.0  0.59765  0.15040  0.08583  1.0000
  H   H1857     1.0  0.60985  0.07325  0.11254  1.0000
  H   H1858     1.0  0.74066  0.15713  0.15473  1.0000
  H   H1859     1.0  0.76837  0.14554  0.15823  1.0000
  H   H1860     1.0  0.52722  0.04840  0.08130  1.0000
  H   H1861     1.0  0.88261  0.10934  0.99263  1.0000
  C   C1573     1.0  0.70795  0.06336  0.07786  1.0000
  H   H1862     1.0  0.73009  0.28676  0.14725  1.0000
  H   H1863     1.0  0.53675  0.27390  0.14898  1.0000
  H   H1864     1.0  0.76028  0.28030  0.14668  1.0000
  S   S429      1.0  0.61545  0.01218  0.04480  1.0000
  C   C1574     1.0  0.76643  0.01365  0.06995  1.0000
  Fe  Fe212     1.0  0.78192  0.98852  0.13579  1.0000
  H   H1865     1.0  0.94437  0.16592  0.10787  1.0000
  H   H1866     1.0  0.97272  0.18724  0.07168  1.0000
  H   H1867     1.0  0.51357  0.28115  0.13949  1.0000
  H   H1868     1.0  0.69177  0.05658  0.04746  1.0000
  C   C1575     1.0  0.97096  0.00637  0.97565  1.0000
  H   H1869     1.0  0.92164  0.19934  0.11290  1.0000
  C   C1576     1.0  0.95481  0.22515  0.08435  1.0000
  H   H1870     1.0  0.77039  0.04627  0.03741  1.0000
  C   C1577     1.0  0.95456  0.18606  0.07248  1.0000
  H   H1871     1.0  0.52474  0.30298  0.14457  1.0000
  C   C1578     1.0  0.93112  0.21161  0.10613  1.0000
  H   H1872     1.0  0.68472  0.16743  0.21339  1.0000
  Fe  Fe213     1.0  0.97358  0.04043  0.04468  1.0000
  H   H1873     1.0  0.74414  0.27717  0.16948  1.0000
  S   S430      1.0  0.67432  0.30343  0.20965  1.0000
  H   H1874     1.0  0.98073  0.21306  0.17812  1.0000
  S   S431      1.0  0.98118  0.11909  0.05210  1.0000
  C   C1579     1.0  0.57208  0.29934  0.14093  1.0000
  C   C1580     1.0  0.88520  0.10986  0.98116  1.0000
  Fe  Fe214     1.0  0.50672  0.23484  0.11427  1.0000
  H   H1875     1.0  0.91379  0.12590  0.97813  1.0000
  H   H1876     1.0  0.98904  0.99796  0.06926  1.0000
  H   H1877     1.0  0.78188  0.31062  0.14710  1.0000
  H   H1878     1.0  0.72230  0.98438  0.14185  1.0000
  H   H1879     1.0  0.58020  0.00986  0.97896  1.0000
  H   H1880     1.0  0.57838  0.13977  0.97714  1.0000
  H   H1881     1.0  0.58795  0.01012  0.00188  1.0000
  C   C1581     1.0  0.50888  0.98489  0.05519  1.0000
  H   H1882     1.0  0.61387  0.02187  0.98397  1.0000
  C   C1582     1.0  0.98955  0.10941  0.08017  1.0000
  H   H1883     1.0  0.50352  0.31135  0.08272  1.0000
  H   H1884     1.0  0.54217  0.30385  0.10511  1.0000
  C   C1583     1.0  0.49995  0.00320  0.09363  1.0000
  N   N106      1.0  0.61234  0.98854  0.98019  1.0000
  C   C1584     1.0  0.59313  0.99247  0.00519  1.0000
  C   C1585     1.0  0.58692  0.98376  0.01954  1.0000
  H   H1885     1.0  0.59636  0.30848  0.15149  1.0000
  C   C1586     1.0  0.60289  0.30744  0.11599  1.0000
  C   C1587     1.0  0.58265  0.30030  0.11542  1.0000
  H   H1886     1.0  0.57980  0.29773  0.10518  1.0000
  H   H1887     1.0  0.49781  0.04832  0.08324  1.0000
  H   H1888     1.0  0.49452  0.03737  0.10907  1.0000
  C   C1588     1.0  0.99046  0.12439  0.06731  1.0000
  H   H1889     1.0  0.62345  0.31593  0.12944  1.0000
  C   C1589     1.0  0.58006  0.31327  0.34519  1.0000
  H   H1890     1.0  0.51845  0.24999  0.40453  1.0000
  Fe  Fe215     1.0  0.65675  0.25591  0.32518  1.0000
  C   C1590     1.0  0.97564  0.15026  0.38894  1.0000
  S   S432      1.0  0.63778  0.23694  0.34461  1.0000
  Fe  Fe216     1.0  0.70158  0.26143  0.30596  1.0000
  S   S433      1.0  0.68730  0.29453  0.29385  1.0000
  S   S434      1.0  0.73754  0.24614  0.29832  1.0000
  C   C1591     1.0  0.73948  0.23962  0.23512  1.0000
  Fe  Fe217     1.0  0.65793  0.27720  0.29380  1.0000
  S   S435      1.0  0.63974  0.27521  0.27568  1.0000
  S   S436      1.0  0.68664  0.27061  0.32757  1.0000
  S   S437      1.0  0.67318  0.24375  0.30471  1.0000
  S   S438      1.0  0.54240  0.21834  0.33715  1.0000
  H   H1891     1.0  0.80168  0.99077  0.41615  1.0000
  Fe  Fe218     1.0  0.84540  0.09472  0.33355  1.0000
  S   S439      1.0  0.86922  0.10221  0.31312  1.0000
  S   S440      1.0  0.85231  0.05926  0.34554  1.0000
  Fe  Fe219     1.0  0.81711  0.14125  0.32868  1.0000
  S   S441      1.0  0.83847  0.15165  0.30787  1.0000
  S   S442      1.0  0.78595  0.16350  0.33752  1.0000
  Fe  Fe220     1.0  0.83805  0.11715  0.30361  1.0000
  S   S443      1.0  0.82768  0.10716  0.28475  1.0000
  Fe  Fe221     1.0  0.86766  0.13597  0.31952  1.0000
  S   S444      1.0  0.89732  0.15533  0.31525  1.0000
  S   S445      1.0  0.81433  0.10784  0.32365  1.0000
  S   S446      1.0  0.84620  0.12743  0.34076  1.0000
  H   H1892     1.0  0.56968  0.12977  0.34826  1.0000
  H   H1893     1.0  0.85203  0.05921  0.28569  1.0000
  S   S447      1.0  0.96391  0.28630  0.37126  1.0000
  Fe  Fe222     1.0  0.96890  0.20755  0.36077  1.0000
  S   S448      1.0  0.94004  0.18800  0.36171  1.0000
  S   S449      1.0  0.96688  0.21843  0.38205  1.0000
  C   C1592     1.0  0.90953  0.16365  0.32831  1.0000
  C   C1593     1.0  0.92703  0.17666  0.32389  1.0000
  C   C1594     1.0  0.93671  0.18422  0.33393  1.0000
  C   C1595     1.0  0.92886  0.17890  0.34850  1.0000
  C   C1596     1.0  0.91133  0.16591  0.35292  1.0000
  C   C1597     1.0  0.90176  0.15825  0.34291  1.0000
  H   H1894     1.0  0.93314  0.18095  0.31262  1.0000
  H   H1895     1.0  0.95015  0.19422  0.33037  1.0000
  H   H1896     1.0  0.90514  0.16170  0.36418  1.0000
  H   H1897     1.0  0.88841  0.14816  0.34647  1.0000
  C   C1598     1.0  0.85627  0.13646  0.23928  1.0000
  C   C1599     1.0  0.83831  0.12432  0.24178  1.0000
  C   C1600     1.0  0.82986  0.11520  0.25579  1.0000
  C   C1601     1.0  0.83906  0.11848  0.26735  1.0000
  C   C1602     1.0  0.85681  0.13087  0.26489  1.0000
  C   C1603     1.0  0.86551  0.13968  0.25086  1.0000
  H   H1898     1.0  0.58842  0.30541  0.33611  1.0000
  H   H1899     1.0  0.81614  0.10559  0.25763  1.0000
  H   H1900     1.0  0.86405  0.13342  0.27376  1.0000
  H   H1901     1.0  0.87943  0.14906  0.24896  1.0000
  C   C1604     1.0  0.75070  0.22312  0.30930  1.0000
  C   C1605     1.0  0.77347  0.21475  0.30518  1.0000
  C   C1606     1.0  0.78435  0.19623  0.31362  1.0000
  C   C1607     1.0  0.77254  0.18600  0.32626  1.0000
  C   C1608     1.0  0.74983  0.19451  0.33042  1.0000
  C   C1609     1.0  0.73888  0.21293  0.32193  1.0000
  H   H1902     1.0  0.78283  0.22286  0.29558  1.0000
  H   H1903     1.0  0.80204  0.19036  0.31058  1.0000
  H   H1904     1.0  0.74065  0.18685  0.34026  1.0000
  H   H1905     1.0  0.72134  0.21931  0.32522  1.0000
  C   C1610     1.0  0.61131  0.23205  0.34239  1.0000
  C   C1611     1.0  0.60556  0.23419  0.32880  1.0000
  C   C1612     1.0  0.58452  0.22954  0.32731  1.0000
  C   C1613     1.0  0.56901  0.22310  0.33938  1.0000
  C   C1614     1.0  0.57486  0.22089  0.35294  1.0000
  C   C1615     1.0  0.59593  0.22538  0.35445  1.0000
  H   H1906     1.0  0.61739  0.23925  0.31943  1.0000
  H   H1907     1.0  0.58015  0.23123  0.31676  1.0000
  H   H1908     1.0  0.56340  0.21539  0.36230  1.0000
  H   H1909     1.0  0.60044  0.22341  0.36497  1.0000
  C   C1616     1.0  0.63883  0.27725  0.24720  1.0000
  C   C1617     1.0  0.64771  0.28525  0.25735  1.0000
  H   H1910     1.0  0.58151  0.27543  0.38724  1.0000
  C   C1618     1.0  0.52993  0.27187  0.41586  1.0000
  H   H1911     1.0  0.62639  0.26609  0.25074  1.0000
  C   C1619     1.0  0.54796  0.27118  0.36215  1.0000
  C   C1620     1.0  0.52962  0.29407  0.41771  1.0000
  C   C1621     1.0  0.61926  0.17023  0.36593  1.0000
  H   H1912     1.0  0.97927  0.15193  0.36132  1.0000
  H   H1913     1.0  0.61842  0.17940  0.33032  1.0000
  H   H1914     1.0  0.72129  0.22538  0.27813  1.0000
  H   H1915     1.0  0.53902  0.25823  0.42237  1.0000
  H   H1916     1.0  0.91197  0.27818  0.38073  1.0000
  C   C1622     1.0  0.95494  0.29677  0.38750  1.0000
  C   C1623     1.0  0.95507  0.28275  0.40069  1.0000
  C   C1624     1.0  0.94751  0.29177  0.41338  1.0000
  H   H1917     1.0  0.98821  0.12295  0.36042  1.0000
  H   H1918     1.0  0.55522  0.15909  0.38638  1.0000
  H   H1919     1.0  0.53557  0.31451  0.37249  1.0000
  N   N107      1.0  0.56447  0.14845  0.36573  1.0000
  C   C1625     1.0  0.79890  0.01245  0.35583  1.0000
  C   C1626     1.0  0.79240  0.03578  0.35401  1.0000
  C   C1627     1.0  0.80862  0.05027  0.35066  1.0000
  C   C1628     1.0  0.83153  0.04153  0.34921  1.0000
  C   C1629     1.0  0.83808  0.01818  0.35084  1.0000
  C   C1630     1.0  0.82183  0.00366  0.35402  1.0000
  H   H1920     1.0  0.77469  0.04271  0.35535  1.0000
  H   H1921     1.0  0.80337  0.06822  0.34948  1.0000
  H   H1922     1.0  0.85581  0.01132  0.34957  1.0000
  H   H1923     1.0  0.55741  0.24336  0.46887  1.0000
  H   H1924     1.0  0.52873  0.30086  0.46147  1.0000
  C   C1631     1.0  0.51829  0.26714  0.40575  1.0000
  C   C1632     1.0  0.66360  0.29984  0.25267  1.0000
  C   C1633     1.0  0.75406  0.24079  0.25659  1.0000
  N   N108      1.0  0.78271  0.16842  0.27552  1.0000
  C   C1634     1.0  0.77530  0.14612  0.27820  1.0000
  C   C1635     1.0  0.80013  0.16715  0.28461  1.0000
  C   C1636     1.0  0.76340  0.18516  0.28028  1.0000
  C   C1637     1.0  0.79079  0.17467  0.26008  1.0000
  C   C1638     1.0  0.81318  0.17883  0.25459  1.0000
  C   C1639     1.0  0.77619  0.17622  0.24998  1.0000
  C   C1640     1.0  0.82039  0.18389  0.23991  1.0000
  C   C1641     1.0  0.78367  0.18113  0.23531  1.0000
  C   C1642     1.0  0.71003  0.22539  0.27032  1.0000
  H   H1925     1.0  0.77084  0.13993  0.28981  1.0000
  H   H1926     1.0  0.76031  0.14621  0.27323  1.0000
  H   H1927     1.0  0.78895  0.13346  0.27382  1.0000
  H   H1928     1.0  0.81503  0.15451  0.28183  1.0000
  H   H1929     1.0  0.79371  0.16191  0.29611  1.0000
  H   H1930     1.0  0.80585  0.18361  0.28365  1.0000
  H   H1931     1.0  0.75741  0.18133  0.29198  1.0000
  H   H1932     1.0  0.76820  0.20223  0.27810  1.0000
  H   H1933     1.0  0.74874  0.18581  0.27490  1.0000
  H   H1934     1.0  0.82573  0.17767  0.26132  1.0000
  H   H1935     1.0  0.75898  0.17328  0.25332  1.0000
  C   C1643     1.0  0.61288  0.28123  0.37378  1.0000
  H   H1936     1.0  0.96732  0.14736  0.40025  1.0000
  H   H1937     1.0  0.86521  0.99317  0.39506  1.0000
  C   C1644     1.0  0.77965  0.23694  0.23456  1.0000
  H   H1938     1.0  0.90619  0.26925  0.40701  1.0000
  C   C1645     1.0  0.49333  0.11972  0.40870  1.0000
  H   H1939     1.0  0.55138  0.11910  0.36371  1.0000
  H   H1940     1.0  0.69617  0.22858  0.24515  1.0000
  H   H1941     1.0  0.67017  0.30652  0.26036  1.0000
  S   S450      1.0  0.52009  0.21859  0.37797  1.0000
  H   H1942     1.0  0.82698  0.01428  0.39674  1.0000
  C   C1646     1.0  0.55951  0.30748  0.35350  1.0000
  H   H1943     1.0  0.81840  0.05159  0.32105  1.0000
  C   C1647     1.0  0.90203  0.29042  0.38705  1.0000
  H   H1944     1.0  0.54202  0.13648  0.38463  1.0000
  C   C1648     1.0  0.89875  0.28543  0.40188  1.0000
  H   H1945     1.0  0.72622  0.24017  0.22901  1.0000
  C   C1649     1.0  0.88694  0.30150  0.41012  1.0000
  C   C1650     1.0  0.66278  0.29712  0.22785  1.0000
  H   H1946     1.0  0.55845  0.29540  0.32753  1.0000
  H   H1947     1.0  0.79596  0.04879  0.30351  1.0000
  C   C1651     1.0  0.81257  0.00871  0.31876  1.0000
  C   C1652     1.0  0.49358  0.13809  0.39761  1.0000
  Fe  Fe223     1.0  0.51402  0.21911  0.35577  1.0000
  Fe  Fe224     1.0  0.66987  0.30218  0.31552  1.0000
  N   N109      1.0  0.84428  0.20946  0.33605  1.0000
  C   C1653     1.0  0.86643  0.21718  0.33057  1.0000
  C   C1654     1.0  0.84252  0.20344  0.35179  1.0000
  C   C1655     1.0  0.84435  0.18901  0.33004  1.0000
  C   C1656     1.0  0.82478  0.22628  0.33226  1.0000
  C   C1657     1.0  0.80246  0.22181  0.33742  1.0000
  C   C1658     1.0  0.82718  0.24704  0.32312  1.0000
  C   C1659     1.0  0.78377  0.23713  0.33372  1.0000
  C   C1660     1.0  0.80831  0.26221  0.31944  1.0000
  C   C1661     1.0  0.78667  0.25723  0.32469  1.0000
  H   H1948     1.0  0.86757  0.23260  0.33467  1.0000
  H   H1949     1.0  0.88066  0.20434  0.33392  1.0000
  H   H1950     1.0  0.86983  0.22027  0.31869  1.0000
  H   H1951     1.0  0.82784  0.19472  0.35665  1.0000
  H   H1952     1.0  0.84087  0.21863  0.35683  1.0000
  H   H1953     1.0  0.85764  0.19176  0.35496  1.0000
  H   H1954     1.0  0.84592  0.19272  0.31820  1.0000
  H   H1955     1.0  0.85868  0.17584  0.33270  1.0000
  H   H1956     1.0  0.82875  0.18143  0.33417  1.0000
  H   H1957     1.0  0.79923  0.20614  0.34409  1.0000
  H   H1958     1.0  0.84341  0.25192  0.31857  1.0000
  H   H1959     1.0  0.76690  0.23315  0.33762  1.0000
  H   H1960     1.0  0.81044  0.27792  0.31241  1.0000
  H   H1961     1.0  0.77208  0.26885  0.32165  1.0000
  C   C1662     1.0  0.89338  0.31148  0.38036  1.0000
  H   H1962     1.0  0.89649  0.31543  0.36881  1.0000
  H   H1963     1.0  0.88587  0.29674  0.42153  1.0000
  N   N110      1.0  0.71209  0.24404  0.25816  1.0000
  C   C1663     1.0  0.61330  0.17376  0.34160  1.0000
  C   C1664     1.0  0.73511  0.24137  0.24989  1.0000
  H   H1964     1.0  0.67709  0.24596  0.25626  1.0000
  H   H1965     1.0  0.81217  0.06564  0.28992  1.0000
  S   S451      1.0  0.54356  0.29908  0.43105  1.0000
  H   H1966     1.0  0.54749  0.16715  0.34828  1.0000
  C   C1665     1.0  0.64636  0.28310  0.23250  1.0000
  C   C1666     1.0  0.52391  0.30002  0.34904  1.0000
  H   H1967     1.0  0.54402  0.18082  0.36343  1.0000
  H   H1968     1.0  0.82704  0.98574  0.35504  1.0000
  H   H1969     1.0  0.98419  0.08849  0.37448  1.0000
  H   H1970     1.0  0.57986  0.30676  0.40026  1.0000
  H   H1971     1.0  0.62923  0.17287  0.37347  1.0000
  S   S452      1.0  0.50191  0.16283  0.40021  1.0000
  H   H1972     1.0  0.83775  0.18628  0.23589  1.0000
  C   C1667     1.0  0.80576  0.18487  0.23030  1.0000
  H   H1973     1.0  0.71393  0.20894  0.26654  1.0000
  H   H1974     1.0  0.54847  0.26934  0.33464  1.0000
  Fe  Fe225     1.0  0.97840  0.25004  0.36953  1.0000
  C   C1668     1.0  0.59403  0.30324  0.39194  1.0000
  N   N111      1.0  0.54770  0.29043  0.35034  1.0000
  C   C1669     1.0  0.63023  0.29429  0.37039  1.0000
  C   C1670     1.0  0.54422  0.25840  0.46794  1.0000
  H   H1975     1.0  0.85114  0.03271  0.28102  1.0000
  N   N112      1.0  0.97699  0.13054  0.38183  1.0000
  S   S453      1.0  0.97834  0.24026  0.34819  1.0000
  H   H1976     1.0  0.58373  0.16329  0.33827  1.0000
  H   H1977     1.0  0.53888  0.27598  0.37246  1.0000
  C   C1671     1.0  0.59491  0.28560  0.38460  1.0000
  C   C1672     1.0  0.83375  0.05066  0.31286  1.0000
  H   H1978     1.0  0.71904  0.26592  0.27146  1.0000
  C   C1673     1.0  0.55804  0.28173  0.33690  1.0000
  H   H1979     1.0  0.51396  0.30453  0.35923  1.0000
  H   H1980     1.0  0.66122  0.31218  0.39396  1.0000
  H   H1981     1.0  0.69368  0.25882  0.24077  1.0000
  S   S454      1.0  0.77764  0.99521  0.36060  1.0000
  C   C1674     1.0  0.84661  0.99614  0.30325  1.0000
  C   C1675     1.0  0.59333  0.16469  0.34631  1.0000
  H   H1982     1.0  0.83949  0.00277  0.38067  1.0000
  N   N113      1.0  0.83202  0.03802  0.30159  1.0000
  H   H1983     1.0  0.78666  0.99100  0.40173  1.0000
  H   H1984     1.0  0.69263  0.22673  0.27648  1.0000
  C   C1676     1.0  0.50600  0.28461  0.39753  1.0000
  S   S455      1.0  0.63910  0.28778  0.31435  1.0000
  H   H1985     1.0  0.95276  0.11455  0.37515  1.0000
  H   H1986     1.0  0.79016  0.23831  0.25434  1.0000
  H   H1987     1.0  0.75201  0.24245  0.26772  1.0000
  H   H1988     1.0  0.64349  0.29002  0.36181  1.0000
  H   H1989     1.0  0.57103  0.13100  0.38653  1.0000
  H   H1990     1.0  0.61348  0.26763  0.36794  1.0000
  C   C1677     1.0  0.77597  0.23856  0.24901  1.0000
  H   H1991     1.0  0.94755  0.28083  0.42356  1.0000
  H   H1992     1.0  0.64140  0.18416  0.34770  1.0000
  H   H1993     1.0  0.49471  0.98977  0.41449  1.0000
  C   C1678     1.0  0.67121  0.30560  0.23798  1.0000
  C   C1679     1.0  0.81135  0.04807  0.29532  1.0000
  C   C1680     1.0  0.56684  0.12717  0.36012  1.0000
  H   H1994     1.0  0.86103  0.99866  0.29513  1.0000
  C   C1681     1.0  0.51785  0.31156  0.40920  1.0000
  C   C1682     1.0  0.76148  0.23738  0.22765  1.0000
  C   C1683     1.0  0.83063  0.01429  0.30785  1.0000
  C   C1684     1.0  0.95355  0.12721  0.38178  1.0000
  C   C1685     1.0  0.69413  0.24432  0.24964  1.0000
  H   H1995     1.0  0.57051  0.28754  0.45525  1.0000
  C   C1686     1.0  0.59925  0.16121  0.37078  1.0000
  H   H1996     1.0  0.59472  0.15705  0.38219  1.0000
  C   C1687     1.0  0.58563  0.15816  0.36106  1.0000
  C   C1688     1.0  0.55811  0.14356  0.38149  1.0000
  H   H1997     1.0  0.69020  0.26815  0.26996  1.0000
  C   C1689     1.0  0.70757  0.26541  0.26390  1.0000
  H   H1998     1.0  0.57549  0.27281  0.33746  1.0000
  C   C1690     1.0  0.85166  0.04112  0.29016  1.0000
  H   H1999     1.0  0.58130  0.11505  0.36378  1.0000
  H   H2000     1.0  0.57447  0.29827  0.47021  1.0000
  C   C1691     1.0  0.54555  0.16419  0.36012  1.0000
  C   C1692     1.0  0.98809  0.13612  0.36688  1.0000
  H   H2001     1.0  0.86787  0.03481  0.29429  1.0000
  H   H2002     1.0  0.54381  0.26405  0.45630  1.0000
  H   H2003     1.0  0.83116  0.12173  0.23291  1.0000
  H   H2004     1.0  0.77241  0.18198  0.22771  1.0000
  H   H2005     1.0  0.80885  0.03837  0.28727  1.0000
  H   H2006     1.0  0.83610  0.06831  0.30842  1.0000
  C   C1693     1.0  0.62627  0.17647  0.35138  1.0000
  C   C1694     1.0  0.50598  0.30681  0.39923  1.0000
  C   C1695     1.0  0.93984  0.31481  0.41298  1.0000
  H   H2007     1.0  0.67562  0.30037  0.36935  1.0000
  H   H2008     1.0  0.79999  0.02156  0.32303  1.0000
  H   H2009     1.0  0.96087  0.26498  0.40109  1.0000
  H   H2010     1.0  0.52922  0.15782  0.36405  1.0000
  H   H2011     1.0  0.99029  0.98448  0.42461  1.0000
  H   H2012     1.0  0.96571  0.16551  0.38360  1.0000
  H   H2013     1.0  0.56552  0.26375  0.36369  1.0000
  H   H2014     1.0  0.84832  0.04285  0.31846  1.0000
  H   H2015     1.0  0.80995  0.01075  0.38433  1.0000
  H   H2016     1.0  0.51488  0.28782  0.34606  1.0000
  H   H2017     1.0  0.94326  0.14292  0.37724  1.0000
  H   H2018     1.0  0.70939  0.27994  0.25516  1.0000
  C   C1696     1.0  0.82497  0.00293  0.38952  1.0000
  H   H2019     1.0  0.53958  0.25779  0.36002  1.0000
  S   S456      1.0  0.49142  0.19273  0.36180  1.0000
  H   H2020     1.0  0.94503  0.12178  0.39279  1.0000
  C   C1697     1.0  0.63010  0.31219  0.37786  1.0000
  H   H2021     1.0  0.79664  0.23523  0.22868  1.0000
  Fe  Fe226     1.0  0.49525  0.19425  0.38418  1.0000
  C   C1698     1.0  0.98964  0.10978  0.38884  1.0000
  H   H2022     1.0  0.52741  0.25349  0.47256  1.0000
  H   H2023     1.0  0.58505  0.26950  0.46873  1.0000
  C   C1699     1.0  0.57069  0.28315  0.46697  1.0000
  C   C1700     1.0  0.81034  0.98643  0.32447  1.0000
  C   C1701     1.0  0.53084  0.29566  0.47289  1.0000
  H   H2024     1.0  0.99047  0.00325  0.47291  1.0000
  H   H2025     1.0  0.49885  0.12067  0.41855  1.0000
  H   H2026     1.0  0.63969  0.27655  0.22479  1.0000
  H   H2027     1.0  0.52290  0.31534  0.34080  1.0000
  Fe  Fe227     1.0  0.83096  0.23646  0.71255  1.0000
  S   S457      1.0  0.79397  0.24241  0.71168  1.0000
  Fe  Fe228     1.0  0.84288  0.23568  0.68047  1.0000
  S   S458      1.0  0.80647  0.24163  0.67735  1.0000
  S   S459      1.0  0.86699  0.23045  0.66013  1.0000
  Fe  Fe229     1.0  0.80224  0.26702  0.69186  1.0000
  H   H2028     1.0  0.64494  0.09380  0.64454  1.0000
  Fe  Fe230     1.0  0.80145  0.21663  0.69725  1.0000
  S   S460      1.0  0.78006  0.18900  0.70242  1.0000
  S   S461      1.0  0.83901  0.26315  0.69365  1.0000
  S   S462      1.0  0.83800  0.20860  0.69942  1.0000
  H   H2029     1.0  0.62413  0.07537  0.68261  1.0000
  H   H2030     1.0  0.64206  0.23870  0.59691  1.0000
  Fe  Fe231     1.0  0.70218  0.14098  0.66822  1.0000
  S   S463      1.0  0.71039  0.10913  0.68331  1.0000
  S   S464      1.0  0.72767  0.16418  0.65825  1.0000
  Fe  Fe232     1.0  0.65282  0.13628  0.67135  1.0000
  S   S465      1.0  0.65726  0.10431  0.68692  1.0000
  S   S466      1.0  0.61699  0.15152  0.66824  1.0000
  Fe  Fe233     1.0  0.67825  0.12145  0.69695  1.0000
  Fe  Fe234     1.0  0.68879  0.09457  0.67188  1.0000
  S   S467      1.0  0.69865  0.05788  0.66886  1.0000
  S   S468      1.0  0.67140  0.15417  0.68258  1.0000
  S   S469      1.0  0.68312  0.12564  0.65554  1.0000
  C   C1702     1.0  0.70485  0.22438  0.70887  1.0000
  Fe  Fe235     1.0  0.54088  0.18417  0.60783  1.0000
  S   S470      1.0  0.53667  0.19185  0.58475  1.0000
  S   S471      1.0  0.57651  0.16776  0.61066  1.0000
  H   H2031     1.0  0.73416  0.27496  0.64564  1.0000
  C   C1703     1.0  0.82159  0.15159  0.67788  1.0000
  Fe  Fe236     1.0  0.50515  0.17603  0.59138  1.0000
  C   C1704     1.0  0.69199  0.20290  0.69372  1.0000
  Fe  Fe237     1.0  0.51557  0.22382  0.59019  1.0000
  S   S472      1.0  0.51950  0.25670  0.57525  1.0000
  S   S473      1.0  0.51079  0.16647  0.61415  1.0000
  S   S474      1.0  0.52162  0.21733  0.61297  1.0000
  S   S475      1.0  0.50160  0.14708  0.58068  1.0000
  H   H2032     1.0  0.51439  0.29154  0.47898  1.0000
  H   H2033     1.0  0.50251  0.27268  0.61421  1.0000
  H   H2034     1.0  0.98127  0.28635  0.62197  1.0000
  C   C1705     1.0  0.56631  0.28132  0.59033  1.0000
  C   C1706     1.0  0.55071  0.26795  0.58898  1.0000
  C   C1707     1.0  0.53948  0.27301  0.57716  1.0000
  C   C1708     1.0  0.54412  0.29151  0.56667  1.0000
  C   C1709     1.0  0.55031  0.26953  0.49021  1.0000
  H   H2035     1.0  0.57477  0.27746  0.59956  1.0000
  H   H2036     1.0  0.54728  0.25381  0.59711  1.0000
  H   H2037     1.0  0.53552  0.29549  0.55748  1.0000
  H   H2038     1.0  0.76094  0.29851  0.64915  1.0000
  H   H2039     1.0  0.67633  0.04983  0.62363  1.0000
  C   C1710     1.0  0.69441  0.04303  0.65573  1.0000
  C   C1711     1.0  0.68606  0.05388  0.64326  1.0000
  C   C1712     1.0  0.68292  0.04131  0.63320  1.0000
  C   C1713     1.0  0.68826  0.01780  0.63541  1.0000
  C   C1714     1.0  0.69680  0.00697  0.64779  1.0000
  C   C1715     1.0  0.69993  0.01954  0.65785  1.0000
  H   H2040     1.0  0.68242  0.07194  0.64126  1.0000
  H   H2041     1.0  0.73066  0.06310  0.62814  1.0000
  H   H2042     1.0  0.70648  0.01099  0.66743  1.0000
  C   C1716     1.0  0.60652  0.15709  0.65191  1.0000
  C   C1717     1.0  0.61978  0.15109  0.63938  1.0000
  C   C1718     1.0  0.61024  0.15432  0.62685  1.0000
  C   C1719     1.0  0.58757  0.16389  0.62669  1.0000
  C   C1720     1.0  0.57445  0.17027  0.63913  1.0000
  C   C1721     1.0  0.58389  0.16675  0.65172  1.0000
  H   H2043     1.0  0.63725  0.14376  0.63939  1.0000
  H   H2044     1.0  0.62047  0.14933  0.61723  1.0000
  H   H2045     1.0  0.55697  0.17765  0.63911  1.0000
  H   H2046     1.0  0.57355  0.17136  0.66141  1.0000
  H   H2047     1.0  0.61773  0.02813  0.63266  1.0000
  C   C1722     1.0  0.85936  0.17397  0.66558  1.0000
  H   H2048     1.0  0.62275  0.26156  0.57996  1.0000
  H   H2049     1.0  0.74897  0.25502  0.70125  1.0000
  C   C1723     1.0  0.76488  0.18350  0.68999  1.0000
  C   C1724     1.0  0.76774  0.19386  0.67572  1.0000
  C   C1725     1.0  0.75598  0.18817  0.66603  1.0000
  C   C1726     1.0  0.74126  0.17225  0.67061  1.0000
  C   C1727     1.0  0.73804  0.16240  0.68494  1.0000
  C   C1728     1.0  0.74988  0.16793  0.69458  1.0000
  H   H2050     1.0  0.77934  0.20583  0.67209  1.0000
  H   H2051     1.0  0.75855  0.19580  0.65493  1.0000
  H   H2052     1.0  0.72671  0.15018  0.68855  1.0000
  H   H2053     1.0  0.74763  0.15984  0.70559  1.0000
  H   H2054     1.0  0.80808  0.29335  0.66265  1.0000
  H   H2055     1.0  0.90374  0.29526  0.63700  1.0000
  H   H2056     1.0  0.70053  0.98890  0.64976  1.0000
  H   H2057     1.0  0.63646  0.11017  0.65869  1.0000
  H   H2058     1.0  0.87197  0.17122  0.63880  1.0000
  C   C1729     1.0  0.89621  0.22189  0.65977  1.0000
  C   C1730     1.0  0.90943  0.21614  0.64710  1.0000
  C   C1731     1.0  0.93290  0.20999  0.64619  1.0000
  C   C1732     1.0  0.94334  0.20976  0.65793  1.0000
  C   C1733     1.0  0.93005  0.21519  0.67068  1.0000
  C   C1734     1.0  0.90652  0.22115  0.67163  1.0000
  H   H2059     1.0  0.90154  0.21668  0.63788  1.0000
  H   H2060     1.0  0.94289  0.20578  0.63635  1.0000
  H   H2061     1.0  0.93802  0.21510  0.67980  1.0000
  H   H2062     1.0  0.89647  0.22556  0.68144  1.0000
  C   C1735     1.0  0.62588  0.23821  0.60440  1.0000
  H   H2063     1.0  0.69445  0.19614  0.68385  1.0000
  H   H2064     1.0  0.96584  0.25908  0.61235  1.0000
  C   C1736     1.0  0.74545  0.02849  0.62814  1.0000
  H   H2065     1.0  0.86707  0.15711  0.67044  1.0000
  C   C1737     1.0  0.56014  0.30461  0.56787  1.0000
  H   H2066     1.0  0.81180  0.15994  0.64344  1.0000
  H   H2067     1.0  0.83119  0.15568  0.68509  1.0000
  H   H2068     1.0  0.84766  0.16315  0.63490  1.0000
  C   C1738     1.0  0.79044  0.13375  0.67574  1.0000
  C   C1739     1.0  0.54533  0.24846  0.49798  1.0000
  N   N114      1.0  0.84362  0.17241  0.65591  1.0000
  H   H2069     1.0  0.78181  0.13814  0.65477  1.0000
  S   S476      1.0  0.67193  0.11857  0.72107  1.0000
  C   C1740     1.0  0.61642  0.05387  0.64533  1.0000
  H   H2070     1.0  0.56020  0.29087  0.51849  1.0000
  H   H2071     1.0  0.53431  0.31060  0.47657  1.0000
  H   H2072     1.0  0.63035  0.23167  0.61524  1.0000
  C   C1741     1.0  0.55097  0.25830  0.52006  1.0000
  H   H2073     1.0  0.57984  0.21240  0.60964  1.0000
  C   C1742     1.0  0.62227  0.03210  0.64211  1.0000
  H   H2074     1.0  0.80123  0.13399  0.69559  1.0000
  C   C1743     1.0  0.79345  0.14133  0.66111  1.0000
  C   C1744     1.0  0.80437  0.13899  0.68411  1.0000
  H   H2075     1.0  0.59577  0.21633  0.62229  1.0000
  H   H2076     1.0  0.69952  0.29273  0.63564  1.0000
  H   H2077     1.0  0.72118  0.21836  0.68735  1.0000
  N   N115      1.0  0.72101  0.23763  0.71173  1.0000
  H   H2078     1.0  0.58455  0.25418  0.54906  1.0000
  H   H2079     1.0  0.75420  0.99807  0.60891  1.0000
  H   H2080     1.0  0.58127  0.24014  0.61187  1.0000
  H   H2081     1.0  0.73152  0.98996  0.62281  1.0000
  C   C1745     1.0  0.61060  0.08296  0.67615  1.0000
  C   C1746     1.0  0.62456  0.20115  0.60055  1.0000
  C   C1747     1.0  0.93557  0.29348  0.62192  1.0000
  H   H2082     1.0  0.73670  0.02770  0.61957  1.0000
  C   C1748     1.0  0.59054  0.22098  0.58092  1.0000
  H   H2083     1.0  0.60557  0.10037  0.67860  1.0000
  C   C1749     1.0  0.93711  0.26774  0.64495  1.0000
  H   H2084     1.0  0.49720  0.10430  0.57493  1.0000
  C   C1750     1.0  0.83327  0.19548  0.65057  1.0000
  C   C1751     1.0  0.85735  0.16232  0.64367  1.0000
  H   H2085     1.0  0.60726  0.06598  0.63803  1.0000
  H   H2086     1.0  0.82181  0.19582  0.64284  1.0000
  H   H2087     1.0  0.63982  0.99889  0.64792  1.0000
  C   C1752     1.0  0.76533  0.03344  0.65093  1.0000
  C   C1753     1.0  0.81065  0.15388  0.65475  1.0000
  H   H2088     1.0  0.72066  0.26960  0.71805  1.0000
  H   H2089     1.0  0.66243  0.18762  0.70276  1.0000
  C   C1754     1.0  0.73342  0.22424  0.72307  1.0000
  S   S477      1.0  0.68356  0.00270  0.62256  1.0000
  N   N116      1.0  0.61812  0.08281  0.66061  1.0000
  H   H2090     1.0  0.69800  0.26844  0.70883  1.0000
  H   H2091     1.0  0.79258  0.99487  0.61479  1.0000
  C   C1755     1.0  0.74179  0.04909  0.63297  1.0000
  H   H2092     1.0  0.77261  0.03536  0.65995  1.0000
  C   C1756     1.0  0.60505  0.25908  0.56370  1.0000
  C   C1757     1.0  0.61216  0.25154  0.57697  1.0000
  H   H2093     1.0  0.63977  0.20096  0.59219  1.0000
  C   C1758     1.0  0.62295  0.05965  0.65739  1.0000
  C   C1759     1.0  0.71108  0.30310  0.63729  1.0000
  H   H2094     1.0  0.53085  0.28480  0.62509  1.0000
  H   H2095     1.0  0.49680  0.00543  0.52997  1.0000
  C   C1760     1.0  0.60484  0.23233  0.58610  1.0000
  H   H2096     1.0  0.61016  0.27425  0.55717  1.0000
  S   S478      1.0  0.97298  0.20463  0.65674  1.0000
  C   C1761     1.0  0.55575  0.28458  0.49807  1.0000
  H   H2097     1.0  0.74759  0.06719  0.64859  1.0000
  H   H2098     1.0  0.49158  0.02634  0.51504  1.0000
  C   C1762     1.0  0.60030  0.09738  0.65307  1.0000
  H   H2099     1.0  0.65295  0.08303  0.66176  1.0000
  C   C1763     1.0  0.63614  0.04247  0.66569  1.0000
  H   H2100     1.0  0.54165  0.22698  0.51845  1.0000
  C   C1764     1.0  0.64154  0.02071  0.66250  1.0000
  C   C1765     1.0  0.68648  0.21878  0.71954  1.0000
  H   H2101     1.0  0.58466  0.08967  0.65508  1.0000
  H   H2102     1.0  0.96503  0.24107  0.62921  1.0000
  H   H2103     1.0  0.60596  0.10116  0.64136  1.0000
  H   H2104     1.0  0.59598  0.07382  0.68018  1.0000
  H   H2105     1.0  0.64328  0.04585  0.67434  1.0000
  C   C1766     1.0  0.55610  0.27898  0.51275  1.0000
  C   C1767     1.0  0.79981  0.31056  0.66163  1.0000
  H   H2106     1.0  0.98023  0.26927  0.63903  1.0000
  C   C1768     1.0  0.70731  0.21582  0.69589  1.0000
  H   H2107     1.0  0.57184  0.22026  0.56424  1.0000
  S   S479      1.0  0.98362  0.19191  0.61688  1.0000
  C   C1769     1.0  0.75931  0.00961  0.63465  1.0000
  C   C1770     1.0  0.54569  0.24305  0.51268  1.0000
  C   C1771     1.0  0.63902  0.09290  0.65621  1.0000
  H   H2108     1.0  0.82324  0.20380  0.65951  1.0000
  H   H2109     1.0  0.93192  0.28177  0.65121  1.0000
  H   H2110     1.0  0.58447  0.20611  0.58716  1.0000
  H   H2111     1.0  0.72942  0.25359  0.68994  1.0000
  N   N117      1.0  0.94909  0.27513  0.63044  1.0000
  N   N118      1.0  0.61160  0.22404  0.60035  1.0000
  C   C1772     1.0  0.76950  0.01288  0.64601  1.0000
  H   H2112     1.0  0.84628  0.20612  0.64511  1.0000
  C   C1773     1.0  0.97006  0.28250  0.63226  1.0000
  C   C1774     1.0  0.50708  0.28930  0.61065  1.0000
  C   C1775     1.0  0.58341  0.22879  0.56770  1.0000
  C   C1776     1.0  0.67120  0.20601  0.71720  1.0000
  C   C1777     1.0  0.52310  0.29615  0.61672  1.0000
  H   H2113     1.0  0.70758  0.14628  0.71306  1.0000
  H   H2114     1.0  0.94799  0.25448  0.65124  1.0000
  H   H2115     1.0  0.61700  0.25569  0.60461  1.0000
  H   H2116     1.0  0.54093  0.23592  0.49299  1.0000
  S   S480      1.0  0.77847  0.29970  0.68915  1.0000
  H   H2117     1.0  0.86412  0.14442  0.64711  1.0000
  C   C1778     1.0  0.73778  0.24408  0.69903  1.0000
  H   H2118     1.0  0.55095  0.25412  0.53149  1.0000
  H   H2119     1.0  0.63009  0.19428  0.61108  1.0000
  H   H2120     1.0  0.61445  0.18908  0.59858  1.0000
  H   H2121     1.0  0.85087  0.18372  0.67421  1.0000
  C   C1779     1.0  0.75139  0.05147  0.64447  1.0000
  C   C1780     1.0  0.59130  0.22323  0.61149  1.0000
  H   H2122     1.0  0.59558  0.11402  0.65665  1.0000
  H   H2123     1.0  0.78052  0.99944  0.65133  1.0000
  H   H2124     1.0  0.87351  0.18297  0.65985  1.0000
  C   C1781     1.0  0.73058  0.29303  0.64290  1.0000
  C   C1782     1.0  0.82555  0.15906  0.66291  1.0000
  H   H2125     1.0  0.96614  0.29785  0.63734  1.0000
  C   C1783     1.0  0.59058  0.24785  0.55913  1.0000
  H   H2126     1.0  0.92194  0.26037  0.64454  1.0000
  H   H2127     1.0  0.93997  0.24959  0.62114  1.0000
  C   C1784     1.0  0.95526  0.25543  0.62294  1.0000
  C   C1785     1.0  0.49490  0.00791  0.51849  1.0000
  C   C1786     1.0  0.94518  0.30339  0.60816  1.0000
  H   H2128     1.0  0.51138  0.00144  0.51244  1.0000
  C   C1787     1.0  0.63469  0.01554  0.65072  1.0000
  C   C1788     1.0  0.57129  0.29952  0.57976  1.0000
  H   H2129     1.0  0.65203  0.00801  0.66882  1.0000
  H   H2130     1.0  0.74917  0.22919  0.69551  1.0000
  C   C1789     1.0  0.70881  0.25867  0.71665  1.0000
  H   H2131     1.0  0.74171  0.20774  0.72011  1.0000
  H   H2132     1.0  0.55952  0.30098  0.49294  1.0000
  C   C1790     1.0  0.67396  0.19808  0.70433  1.0000
  S   S481      1.0  0.59221  0.31466  0.58174  1.0000
  H   H2133     1.0  0.77666  0.12459  0.68067  1.0000
  C   C1791     1.0  0.69834  0.14935  0.72335  1.0000
  C   C1792     1.0  0.49739  0.30359  0.59970  1.0000
  N   N119      1.0  0.76339  0.98742  0.62999  1.0000
  H   H2134     1.0  0.55999  0.98518  0.57418  1.0000
  C   C1793     1.0  0.74563  0.30624  0.64487  1.0000
  H   H2135     1.0  0.96221  0.29751  0.60353  1.0000
  C   C1794     1.0  0.91274  0.30197  0.62683  1.0000
  H   H2136     1.0  0.98458  0.27871  0.56687  1.0000
  C   C1795     1.0  0.74992  0.98631  0.61891  1.0000
  S   S482      1.0  0.99056  0.00507  0.55099  1.0000
  H   H2137     1.0  0.98977  0.98482  0.52185  1.0000
  H   H2138     1.0  0.95524  0.98366  0.54615  1.0000
  H   H2139     1.0  0.98902  0.98760  0.49809  1.0000
  N   N120      1.0  0.54905  0.27634  0.47479  1.0000
  Fe  Fe238     1.0  0.85465  0.26506  0.82514  1.0000
  S   S483      1.0  0.88026  0.23789  0.83501  1.0000
  Fe  Fe239     1.0  0.80443  0.27645  0.82459  1.0000
  S   S484      1.0  0.76967  0.26618  0.83040  1.0000
  S   S485      1.0  0.83231  0.25730  0.81111  1.0000
  C   C1796     1.0  0.78090  0.24745  0.75057  1.0000
  Fe  Fe240     1.0  0.52048  0.00550  0.94142  1.0000
  S   S486      1.0  0.51410  0.04150  0.94490  1.0000
  Fe  Fe241     1.0  0.57139  0.00282  0.93903  1.0000
  S   S487      1.0  0.56905  0.03817  0.94265  1.0000
  H   H2140     1.0  0.79320  0.27407  0.75608  1.0000
  Fe  Fe242     1.0  0.53987  0.03076  0.95960  1.0000
  Fe  Fe243     1.0  0.54366  0.04615  0.92755  1.0000
  S   S488      1.0  0.54860  0.07607  0.91022  1.0000
  H   H2141     1.0  0.94874  0.12441  0.96436  1.0000
  S   S489      1.0  0.54811  0.01094  0.92269  1.0000
  C   C1797     1.0  0.63774  0.09756  0.86673  1.0000
  Fe  Fe244     1.0  0.68867  0.14380  0.80469  1.0000
  S   S490      1.0  0.66450  0.16834  0.79232  1.0000
  S   S491      1.0  0.67864  0.10962  0.81309  1.0000
  Fe  Fe245     1.0  0.72025  0.17786  0.80278  1.0000
  S   S492      1.0  0.69853  0.20498  0.79041  1.0000
  S   S493      1.0  0.75482  0.18194  0.80622  1.0000
  Fe  Fe246     1.0  0.66953  0.19227  0.80595  1.0000
  S   S494      1.0  0.64253  0.21576  0.81745  1.0000
  Fe  Fe247     1.0  0.69558  0.17851  0.77796  1.0000
  S   S495      1.0  0.70325  0.18481  0.75377  1.0000
  S   S496      1.0  0.69164  0.16699  0.81934  1.0000
  S   S497      1.0  0.71942  0.15205  0.78930  1.0000
  S   S498      1.0  0.52573  0.20542  0.88043  1.0000
  Fe  Fe248     1.0  0.52158  0.20525  0.85781  1.0000
  S   S499      1.0  0.54604  0.18759  0.84128  1.0000
  Fe  Fe249     1.0  0.74455  0.00622  0.85128  1.0000
  S   S500      1.0  0.75462  0.03042  0.83143  1.0000
  S   S501      1.0  0.74072  0.01738  0.87250  1.0000
  Fe  Fe250     1.0  0.88005  0.03972  0.91618  1.0000
  S   S502      1.0  0.91209  0.04939  0.90259  1.0000
  S   S503      1.0  0.84985  0.04294  0.90450  1.0000
  Fe  Fe251     1.0  0.89790  0.04206  0.94382  1.0000
  S   S504      1.0  0.93045  0.05245  0.93199  1.0000
  H   H2142     1.0  0.52110  0.30407  0.92905  1.0000
  Fe  Fe252     1.0  0.90967  0.07500  0.91667  1.0000
  S   S505      1.0  0.91020  0.11183  0.90809  1.0000
  Fe  Fe253     1.0  0.93009  0.02570  0.91912  1.0000
  C   C1798     1.0  0.77801  0.17312  0.76659  1.0000
  S   S506      1.0  0.87686  0.06682  0.92952  1.0000
  S   S507      1.0  0.89843  0.01383  0.93177  1.0000
  H   H2143     1.0  0.65341  0.13437  0.74742  1.0000
  H   H2144     1.0  0.74668  0.23294  0.72507  1.0000
  S   S508      1.0  0.95736  0.26413  0.86193  1.0000
  C   C1799     1.0  0.61920  0.01054  0.91433  1.0000
  H   H2145     1.0  0.73257  0.06399  0.78889  1.0000
  H   H2146     1.0  0.72212  0.22065  0.73340  1.0000
  S   S509      1.0  0.89005  0.03738  0.96802  1.0000
  C   C1800     1.0  0.65716  0.00705  0.90075  1.0000
  H   H2147     1.0  0.76640  0.21976  0.74753  1.0000
  C   C1801     1.0  0.93543  0.12338  0.90358  1.0000
  C   C1802     1.0  0.95612  0.11036  0.90573  1.0000
  H   H2148     1.0  0.69576  0.11660  0.78478  1.0000
  H   H2149     1.0  0.89221  0.28822  0.86981  1.0000
  C   C1803     1.0  0.95410  0.15647  0.89560  1.0000
  C   C1804     1.0  0.93450  0.14641  0.89840  1.0000
  H   H2150     1.0  0.95705  0.09257  0.90960  1.0000
  H   H2151     1.0  0.95323  0.17425  0.89171  1.0000
  H   H2152     1.0  0.91851  0.15658  0.89670  1.0000
  S   S510      1.0  0.96411  0.00517  0.91326  1.0000
  C   C1805     1.0  0.80233  0.01738  0.89044  1.0000
  C   C1806     1.0  0.81584  0.03185  0.89329  1.0000
  C   C1807     1.0  0.83350  0.02363  0.90131  1.0000
  C   C1808     1.0  0.65804  0.01485  0.84808  1.0000
  H   H2153     1.0  0.65026  0.00355  0.87028  1.0000
  H   H2154     1.0  0.78883  0.02402  0.88428  1.0000
  H   H2155     1.0  0.81250  0.04955  0.88927  1.0000
  C   C1809     1.0  0.50667  0.11816  0.95455  1.0000
  C   C1810     1.0  0.83746  0.00064  0.90647  1.0000
  H   H2156     1.0  0.73852  0.12199  0.75544  1.0000
  H   H2157     1.0  0.77007  0.17260  0.77758  1.0000
  C   C1811     1.0  0.69987  0.08815  0.81866  1.0000
  C   C1812     1.0  0.69392  0.06779  0.82631  1.0000
  C   C1813     1.0  0.71060  0.05022  0.83066  1.0000
  C   C1814     1.0  0.73334  0.05276  0.82705  1.0000
  C   C1815     1.0  0.73925  0.07315  0.81940  1.0000
  C   C1816     1.0  0.72254  0.09091  0.81532  1.0000
  H   H2158     1.0  0.67637  0.06567  0.82901  1.0000
  H   H2159     1.0  0.70591  0.03456  0.83656  1.0000
  H   H2160     1.0  0.75681  0.07524  0.81672  1.0000
  H   H2161     1.0  0.72726  0.10659  0.80945  1.0000
  C   C1817     1.0  0.61562  0.20805  0.82387  1.0000
  C   C1818     1.0  0.60098  0.21919  0.83421  1.0000
  C   C1819     1.0  0.57954  0.21313  0.83966  1.0000
  C   C1820     1.0  0.57257  0.19605  0.83465  1.0000
  C   C1821     1.0  0.58707  0.18513  0.82418  1.0000
  C   C1822     1.0  0.60858  0.19102  0.81885  1.0000
  H   H2162     1.0  0.60630  0.23247  0.83808  1.0000
  H   H2163     1.0  0.56843  0.22171  0.84769  1.0000
  H   H2164     1.0  0.58165  0.17204  0.82017  1.0000
  H   H2165     1.0  0.61961  0.18256  0.81075  1.0000
  H   H2166     1.0  0.84223  0.19226  0.75828  1.0000
  H   H2167     1.0  0.85092  0.99403  0.91266  1.0000
  C   C1823     1.0  0.67464  0.15720  0.75013  1.0000
  H   H2168     1.0  0.97184  0.10433  0.87419  1.0000
  C   C1824     1.0  0.49954  0.28648  0.89549  1.0000
  C   C1825     1.0  0.49331  0.12392  0.91534  1.0000
  H   H2169     1.0  0.66524  0.16036  0.76038  1.0000
  H   H2170     1.0  0.79543  0.16235  0.79178  1.0000
  C   C1826     1.0  0.85253  0.30555  0.86285  1.0000
  C   C1827     1.0  0.52916  0.10109  0.90835  1.0000
  C   C1828     1.0  0.50784  0.10330  0.91675  1.0000
  Fe  Fe254     1.0  0.83677  0.29087  0.79803  1.0000
  C   C1829     1.0  0.74517  0.10865  0.76328  1.0000
  C   C1830     1.0  0.52104  0.13999  0.89691  1.0000
  C   C1831     1.0  0.53562  0.11947  0.89839  1.0000
  H   H2171     1.0  0.51343  0.21865  0.80010  1.0000
  C   C1832     1.0  0.78602  0.26838  0.79061  1.0000
  C   C1833     1.0  0.76621  0.23175  0.75446  1.0000
  C   C1834     1.0  0.91953  0.14604  0.93702  1.0000
  C   C1835     1.0  0.82389  0.98617  0.90366  1.0000
  H   H2172     1.0  0.82589  0.18199  0.74284  1.0000
  H   H2173     1.0  0.58006  0.29469  0.88696  1.0000
  S   S511      1.0  0.84195  0.22799  0.73443  1.0000
  C   C1836     1.0  0.70539  0.16362  0.73088  1.0000
  H   H2174     1.0  0.73150  0.28805  0.78706  1.0000
  C   C1837     1.0  0.62985  0.13370  0.83415  1.0000
  C   C1838     1.0  0.76544  0.24126  0.82535  1.0000
  C   C1839     1.0  0.74352  0.23814  0.82459  1.0000
  C   C1840     1.0  0.73994  0.21989  0.81887  1.0000
  C   C1841     1.0  0.75826  0.20433  0.81423  1.0000
  C   C1842     1.0  0.78005  0.20684  0.81566  1.0000
  C   C1843     1.0  0.78363  0.22518  0.82123  1.0000
  H   H2175     1.0  0.72931  0.25028  0.82800  1.0000
  H   H2176     1.0  0.72303  0.21793  0.81799  1.0000
  H   H2177     1.0  0.79425  0.19462  0.81238  1.0000
  H   H2178     1.0  0.80048  0.22697  0.82222  1.0000
  C   C1844     1.0  0.83964  0.28054  0.76293  1.0000
  C   C1845     1.0  0.84530  0.25773  0.76793  1.0000
  C   C1846     1.0  0.84650  0.24192  0.75894  1.0000
  C   C1847     1.0  0.63534  0.01897  0.90328  1.0000
  Fe  Fe255     1.0  0.76055  0.98379  0.87932  1.0000
  H   H2179     1.0  0.81659  0.14418  0.78207  1.0000
  H   H2180     1.0  0.84896  0.25229  0.77868  1.0000
  H   H2181     1.0  0.85136  0.22443  0.76288  1.0000
  H   H2182     1.0  0.62044  0.09739  0.87176  1.0000
  H   H2183     1.0  0.62937  0.11664  0.83200  1.0000
  C   C1848     1.0  0.90201  0.24534  0.84211  1.0000
  C   C1849     1.0  0.90506  0.26770  0.84067  1.0000
  C   C1850     1.0  0.92232  0.27318  0.84659  1.0000
  C   C1851     1.0  0.93666  0.25639  0.85401  1.0000
  C   C1852     1.0  0.93378  0.23401  0.85533  1.0000
  C   C1853     1.0  0.91650  0.22853  0.84941  1.0000
  H   H2184     1.0  0.89428  0.28066  0.83479  1.0000
  H   H2185     1.0  0.92477  0.29045  0.84531  1.0000
  H   H2186     1.0  0.94473  0.22093  0.86101  1.0000
  H   H2187     1.0  0.91433  0.21119  0.85050  1.0000
  H   H2188     1.0  0.64806  0.06619  0.87998  1.0000
  H   H2189     1.0  0.96902  0.03847  0.95293  1.0000
  H   H2190     1.0  0.89739  0.31090  0.87728  1.0000
  S   S512      1.0  0.71275  0.99104  0.85604  1.0000
  H   H2191     1.0  0.59584  0.00411  0.96216  1.0000
  H   H2192     1.0  0.67871  0.07757  0.77629  1.0000
  C   C1854     1.0  0.70670  0.09423  0.75429  1.0000
  H   H2193     1.0  0.71235  0.10916  0.74705  1.0000
  C   C1855     1.0  0.53959  0.12982  0.93943  1.0000
  H   H2194     1.0  0.71725  0.07907  0.75054  1.0000
  H   H2195     1.0  0.93381  0.15331  0.92983  1.0000
  H   H2196     1.0  0.70521  0.05938  0.77588  1.0000
  N   N121      1.0  0.62836  0.13384  0.84964  1.0000
  C   C1856     1.0  0.63407  0.15540  0.85159  1.0000
  C   C1857     1.0  0.60451  0.13295  0.85635  1.0000
  C   C1858     1.0  0.64450  0.11495  0.85563  1.0000
  C   C1859     1.0  0.66780  0.11318  0.84999  1.0000
  C   C1860     1.0  0.68330  0.09499  0.85492  1.0000
  C   C1861     1.0  0.67612  0.07811  0.86565  1.0000
  H   H2197     1.0  0.65098  0.15848  0.84575  1.0000
  H   H2198     1.0  0.62191  0.16996  0.84749  1.0000
  H   H2199     1.0  0.63394  0.15588  0.86305  1.0000
  H   H2200     1.0  0.60202  0.13366  0.86797  1.0000
  H   H2201     1.0  0.59285  0.14748  0.85164  1.0000
  H   H2202     1.0  0.59874  0.11757  0.85477  1.0000
  H   H2203     1.0  0.67416  0.12557  0.84141  1.0000
  H   H2204     1.0  0.70094  0.09373  0.85017  1.0000
  H   H2205     1.0  0.87107  0.19059  0.85389  1.0000
  C   C1862     1.0  0.53937  0.09091  0.94891  1.0000
  C   C1863     1.0  0.55611  0.27941  0.90327  1.0000
  N   N122      1.0  0.70787  0.09447  0.76947  1.0000
  H   H2206     1.0  0.79278  0.24748  0.74073  1.0000
  H   H2207     1.0  0.56388  0.13940  0.95548  1.0000
  C   C1864     1.0  0.89309  0.10922  0.95185  1.0000
  S   S513      1.0  0.98588  0.22337  0.89254  1.0000
  C   C1865     1.0  0.55692  0.12924  0.96508  1.0000
  H   H2208     1.0  0.94822  0.09566  0.94948  1.0000
  S   S514      1.0  0.54421  0.99459  0.95739  1.0000
  H   H2209     1.0  0.68424  0.22349  0.72999  1.0000
  H   H2210     1.0  0.92767  0.06261  0.96000  1.0000
  H   H2211     1.0  0.68913  0.09441  0.75253  1.0000
  H   H2212     1.0  0.84585  0.16216  0.76271  1.0000
  H   H2213     1.0  0.83961  0.17378  0.84971  1.0000
  H   H2214     1.0  0.89556  0.10829  0.94059  1.0000
  H   H2215     1.0  0.89595  0.16985  0.87106  1.0000
  H   H2216     1.0  0.55202  0.11786  0.89181  1.0000
  H   H2217     1.0  0.65635  0.03219  0.84952  1.0000
  H   H2218     1.0  0.76321  0.17059  0.73472  1.0000
  H   H2219     1.0  0.98895  0.29316  0.89849  1.0000
  C   C1866     1.0  0.77226  0.30080  0.77458  1.0000
  H   H2220     1.0  0.52765  0.19681  0.81164  1.0000
  H   H2221     1.0  0.74339  0.26718  0.80056  1.0000
  H   H2222     1.0  0.95606  0.14394  0.94868  1.0000
  H   H2223     1.0  0.80794  0.21501  0.76846  1.0000
  H   H2224     1.0  0.81621  0.20376  0.78558  1.0000
  H   H2225     1.0  0.93571  0.01801  0.96002  1.0000
  H   H2226     1.0  0.51259  0.18994  0.79909  1.0000
  H   H2227     1.0  0.76037  0.30785  0.76686  1.0000
  H   H2228     1.0  0.79400  0.09077  0.77695  1.0000
  C   C1867     1.0  0.78099  0.26279  0.75950  1.0000
  C   C1868     1.0  0.56755  0.29700  0.89632  1.0000
  H   H2229     1.0  0.83272  0.27697  0.72911  1.0000
  N   N123      1.0  0.76751  0.27847  0.78243  1.0000
  C   C1869     1.0  0.75191  0.24625  0.77656  1.0000
  C   C1870     1.0  0.80642  0.20102  0.77760  1.0000
  H   H2230     1.0  0.53059  0.26868  0.92034  1.0000
  Fe  Fe256     1.0  0.83217  0.31350  0.82451  1.0000
  H   H2231     1.0  0.53376  0.08872  0.93902  1.0000
  H   H2232     1.0  0.53459  0.14750  0.94125  1.0000
  C   C1871     1.0  0.53984  0.28228  0.91521  1.0000
  H   H2233     1.0  0.94011  0.98790  0.96501  1.0000
  H   H2234     1.0  0.83120  0.30506  0.74484  1.0000
  C   C1872     1.0  0.97564  0.12048  0.90316  1.0000
  H   H2235     1.0  0.86455  0.09153  0.95598  1.0000
  H   H2236     1.0  0.55941  0.26369  0.89918  1.0000
  S   S515      1.0  0.86191  0.29690  0.81067  1.0000
  H   H2237     1.0  0.77742  0.12013  0.75886  1.0000
  C   C1873     1.0  0.90792  0.11907  0.95764  1.0000
  H   H2238     1.0  0.95740  0.11582  0.93446  1.0000
  Fe  Fe257     1.0  0.98554  0.23738  0.86933  1.0000
  C   C1874     1.0  0.79570  0.17611  0.73766  1.0000
  N   N124      1.0  0.92749  0.12798  0.94830  1.0000
  H   H2239     1.0  0.93355  0.10293  0.93448  1.0000
  N   N125      1.0  0.53169  0.11389  0.95221  1.0000
  H   H2240     1.0  0.66778  0.02201  0.82535  1.0000
  C   C1875     1.0  0.75181  0.23106  0.76747  1.0000
  H   H2241     1.0  0.67703  0.11780  0.77233  1.0000
  C   C1876     1.0  0.66458  0.00912  0.83449  1.0000
  C   C1877     1.0  0.97890  0.02213  0.95058  1.0000
  C   C1878     1.0  0.54025  0.11575  0.96524  1.0000
  H   H2242     1.0  0.93164  0.15163  0.96115  1.0000
  H   H2243     1.0  0.88745  0.31486  0.84529  1.0000
  H   H2244     1.0  0.55809  0.08694  0.94727  1.0000
  C   C1879     1.0  0.76475  0.17081  0.75678  1.0000
  H   H2245     1.0  0.69788  0.25556  0.72716  1.0000
  H   H2246     1.0  0.74741  0.16818  0.76038  1.0000
  S   S516      1.0  0.82623  0.28184  0.83972  1.0000
  H   H2247     1.0  0.90793  0.15984  0.94174  1.0000
  N   N126      1.0  0.85766  0.10801  0.88202  1.0000
  C   C1880     1.0  0.83939  0.09892  0.87779  1.0000
  C   C1881     1.0  0.87873  0.09198  0.87944  1.0000
  C   C1882     1.0  0.85190  0.10870  0.89755  1.0000
  C   C1883     1.0  0.86095  0.13067  0.87421  1.0000
  C   C1884     1.0  0.87865  0.14105  0.87646  1.0000
  C   C1885     1.0  0.84683  0.14314  0.86437  1.0000
  C   C1886     1.0  0.88224  0.16235  0.86919  1.0000
  C   C1887     1.0  0.85054  0.16449  0.85717  1.0000
  C   C1888     1.0  0.86824  0.17404  0.85954  1.0000
  H   H2248     1.0  0.84280  0.09756  0.86625  1.0000
  H   H2249     1.0  0.83769  0.08171  0.88369  1.0000
  H   H2250     1.0  0.82268  0.10928  0.88030  1.0000
  H   H2251     1.0  0.88459  0.09206  0.86783  1.0000
  H   H2252     1.0  0.87635  0.07448  0.88439  1.0000
  H   H2253     1.0  0.89267  0.09570  0.88412  1.0000
  H   H2254     1.0  0.83636  0.12081  0.89998  1.0000
  H   H2255     1.0  0.84902  0.09195  0.90376  1.0000
  H   H2256     1.0  0.86557  0.11370  0.90184  1.0000
  H   H2257     1.0  0.88988  0.13276  0.88391  1.0000
  H   H2258     1.0  0.83279  0.13684  0.86202  1.0000
  H   H2259     1.0  0.53280  0.07799  0.95759  1.0000
  H   H2260     1.0  0.70206  0.13058  0.76700  1.0000
  C   C1889     1.0  0.69635  0.07604  0.77828  1.0000
  C   C1890     1.0  0.65344  0.07945  0.87160  1.0000
  H   H2261     1.0  0.61589  0.14524  0.82956  1.0000
  H   H2262     1.0  0.80266  0.26713  0.78361  1.0000
  C   C1891     1.0  0.65452  0.99823  0.85996  1.0000
  C   C1892     1.0  0.80623  0.99441  0.89563  1.0000
  H   H2263     1.0  0.50254  0.08914  0.92429  1.0000
  H   H2264     1.0  0.77111  0.06301  0.79173  1.0000
  H   H2265     1.0  0.68812  0.06384  0.86934  1.0000
  C   C1893     1.0  0.88379  0.30284  0.87512  1.0000
  H   H2266     1.0  0.64564  0.13915  0.82788  1.0000
  C   C1894     1.0  0.80913  0.17843  0.74736  1.0000
  C   C1895     1.0  0.69510  0.11579  0.77351  1.0000
  S   S517      1.0  0.51684  0.27197  0.88236  1.0000
  H   H2267     1.0  0.84289  0.29700  0.87264  1.0000
  H   H2268     1.0  0.49979  0.11831  0.94463  1.0000
  C   C1896     1.0  0.83895  0.17804  0.76697  1.0000
  H   H2269     1.0  0.60247  0.01999  0.91617  1.0000
  H   H2270     1.0  0.86141  0.29207  0.85665  1.0000
  H   H2271     1.0  0.69508  0.07633  0.78992  1.0000
  Fe  Fe258     1.0  0.50705  0.24080  0.87745  1.0000
  S   S518      1.0  0.83676  0.30078  0.77418  1.0000
  C   C1897     1.0  0.77359  0.17220  0.74234  1.0000
  S   S519      1.0  0.80762  0.30991  0.81079  1.0000
  S   S520      1.0  0.67668  0.01870  0.88676  1.0000
  H   H2272     1.0  0.63070  0.01465  0.96797  1.0000
  C   C1898     1.0  0.73159  0.09284  0.77148  1.0000
  C   C1899     1.0  0.50009  0.30941  0.89469  1.0000
  C   C1900     1.0  0.74163  0.07635  0.78184  1.0000
  H   H2273     1.0  0.84906  0.17917  0.77520  1.0000
  H   H2274     1.0  0.52624  0.15403  0.88921  1.0000
  H   H2275     1.0  0.87436  0.29616  0.88561  1.0000
  H   H2276     1.0  0.74093  0.24422  0.78671  1.0000
  H   H2277     1.0  0.50623  0.21462  0.83215  1.0000
  C   C1901     1.0  0.77679  0.09134  0.77538  1.0000
  C   C1902     1.0  0.66788  0.14260  0.74274  1.0000
  H   H2278     1.0  0.63086  0.03488  0.89670  1.0000
  H   H2279     1.0  0.71995  0.17171  0.72625  1.0000
  C   C1903     1.0  0.97469  0.14354  0.89813  1.0000
  C   C1904     1.0  0.76744  0.10783  0.76522  1.0000
  H   H2280     1.0  0.78842  0.20249  0.78269  1.0000
  H   H2281     1.0  0.78386  0.25116  0.79601  1.0000
  C   C1905     1.0  0.76392  0.07566  0.78366  1.0000
  H   H2282     1.0  0.95709  0.30465  0.87521  1.0000
  C   C1906     1.0  0.49989  0.14235  0.90545  1.0000
  C   C1907     1.0  0.76617  0.26305  0.77265  1.0000
  C   C1908     1.0  0.94152  0.13739  0.95601  1.0000
  C   C1909     1.0  0.81254  0.16102  0.78537  1.0000
  C   C1910     1.0  0.80082  0.17653  0.76223  1.0000
  C   C1911     1.0  0.69368  0.16741  0.74435  1.0000
  N   N127      1.0  0.98913  0.31262  0.87741  1.0000
  C   C1912     1.0  0.83542  0.28741  0.74883  1.0000
  H   H2283     1.0  0.98806  0.06430  0.87913  1.0000
  C   C1913     1.0  0.84168  0.24867  0.74497  1.0000
  H   H2284     1.0  0.49913  0.10507  0.96262  1.0000
  H   H2285     1.0  0.80249  0.17758  0.72639  1.0000
  H   H2286     1.0  0.82396  0.16164  0.79298  1.0000
  H   H2287     1.0  0.78687  0.27833  0.79893  1.0000
  N   N128      1.0  0.97034  0.00327  0.96089  1.0000
  H   H2288     1.0  0.74080  0.21840  0.77066  1.0000
  C   C1914     1.0  0.94228  0.10982  0.94140  1.0000
  N   N129      1.0  0.81456  0.17906  0.77279  1.0000
  C   C1915     1.0  0.67970  0.13860  0.72934  1.0000
  C   C1916     1.0  0.83627  0.27152  0.73989  1.0000
  H   H2289     1.0  0.91032  0.13993  0.92999  1.0000
  C   C1917     1.0  0.51212  0.20182  0.80655  1.0000
  C   C1918     1.0  0.74636  0.28236  0.79268  1.0000
  Fe  Fe259     1.0  0.71022  0.99986  0.87790  1.0000
  C   C1919     1.0  0.53449  0.30292  0.92006  1.0000
  H   H2290     1.0  0.78977  0.30031  0.76870  1.0000
  C   C1920     1.0  0.92275  0.06086  0.97140  1.0000
  H   H2291     1.0  0.53224  0.12848  0.92995  1.0000
  C   C1921     1.0  0.87513  0.09975  0.96053  1.0000
  H   H2292     1.0  0.55817  0.12635  0.93617  1.0000
  H   H2293     1.0  0.50021  0.13467  0.95809  1.0000
  H   H2294     1.0  0.74699  0.29509  0.79935  1.0000
  H   H2295     1.0  0.97771  0.02084  0.93938  1.0000
  C   C1922     1.0  0.94739  0.00237  0.95820  1.0000
  H   H2296     1.0  0.77102  0.31303  0.78194  1.0000
  H   H2297     1.0  0.98489  0.27800  0.88518  1.0000
  C   C1923     1.0  0.62477  0.99010  0.92301  1.0000
  H   H2298     1.0  0.50821  0.17570  0.83189  1.0000
  H   H2299     1.0  0.65768  0.20142  0.72566  1.0000
  H   H2300     1.0  0.94741  0.00067  0.94693  1.0000
  S   S521      1.0  0.50631  0.24140  0.85427  1.0000
  C   C1924     1.0  0.66747  0.98675  0.83273  1.0000
  C   C1925     1.0  0.66272  0.98642  0.90931  1.0000
  H   H2301     1.0  0.49408  0.16580  0.82030  1.0000
  C   C1926     1.0  0.49294  0.17948  0.82657  1.0000
  H   H2302     1.0  0.58211  0.98283  0.97410  1.0000
  H   H2303     1.0  0.49157  0.23584  0.82058  1.0000
  N   N130      1.0  0.49145  0.20183  0.81738  1.0000
  H   H2304     1.0  0.57363  0.05706  0.97345  1.0000
  C   C1927     1.0  0.90326  0.11934  0.97260  1.0000
  Fe  Fe260     1.0  0.49111  0.19555  0.88595  1.0000
  C   C1928     1.0  0.99000  0.09944  0.87271  1.0000
  H   H2305     1.0  0.94719  0.08020  0.97434  1.0000
  C   C1929     1.0  0.59173  0.99674  0.97360  1.0000
  H   H2306     1.0  0.99078  0.29671  0.85904  1.0000
  C   C1930     1.0  0.49128  0.21860  0.82658  1.0000
  Fe  Fe261     1.0  0.57519  0.52281  0.04397  1.0000
  S   S522      1.0  0.56365  0.49790  0.06294  1.0000
  S   S523      1.0  0.59142  0.50657  0.02464  1.0000
  Fe  Fe262     1.0  0.55593  0.56259  0.05961  1.0000
  S   S524      1.0  0.54238  0.54062  0.07934  1.0000
  H   H2307     1.0  0.66247  0.48710  0.00867  1.0000
  Fe  Fe263     1.0  0.57594  0.51879  0.07571  1.0000
  S   S525      1.0  0.59265  0.50477  0.09514  1.0000
  Fe  Fe264     1.0  0.53151  0.52206  0.06461  1.0000
  S   S526      1.0  0.59036  0.54181  0.05665  1.0000
  S   S527      1.0  0.54219  0.54588  0.04497  1.0000
  H   H2308     1.0  0.53387  0.53742  0.99769  1.0000
  H   H2309     1.0  0.77250  0.32312  0.13037  1.0000
  H   H2310     1.0  0.98767  0.53981  0.00004  1.0000
  S   S528      1.0  0.71063  0.62275  0.14957  1.0000
  S   S529      1.0  0.66624  0.62957  0.18440  1.0000
  C   C1931     1.0  0.52507  0.51505  0.02246  1.0000
  Fe  Fe265     1.0  0.69383  0.64181  0.16759  1.0000
  Fe  Fe266     1.0  0.75579  0.48730  0.12258  1.0000
  S   S530      1.0  0.73847  0.47777  0.14496  1.0000
  S   S531      1.0  0.79199  0.49191  0.12219  1.0000
  Fe  Fe267     1.0  0.71347  0.48657  0.11055  1.0000
  S   S532      1.0  0.69326  0.47695  0.13200  1.0000
  S   S533      1.0  0.69841  0.49148  0.09031  1.0000
  Fe  Fe268     1.0  0.70920  0.50271  0.13857  1.0000
  S   S534      1.0  0.68957  0.52406  0.15467  1.0000
  Fe  Fe269     1.0  0.72406  0.45276  0.13655  1.0000
  S   S535      1.0  0.72217  0.41889  0.15068  1.0000
  S   S536      1.0  0.72729  0.51429  0.11676  1.0000
  S   S537      1.0  0.74364  0.46024  0.11452  1.0000
  S   S538      1.0  0.65913  0.35115  0.14413  1.0000
  Fe  Fe270     1.0  0.88807  0.55041  0.06977  1.0000
  S   S539      1.0  0.90744  0.54536  0.08796  1.0000
  S   S540      1.0  0.85211  0.54483  0.07052  1.0000
  Fe  Fe271     1.0  0.92782  0.56362  0.04766  1.0000
  S   S541      1.0  0.95068  0.55976  0.06409  1.0000
  S   S542      1.0  0.94158  0.57298  0.02426  1.0000
  Fe  Fe272     1.0  0.93578  0.52846  0.07344  1.0000
  S   S543      1.0  0.95704  0.49722  0.08288  1.0000
  Fe  Fe273     1.0  0.92097  0.57725  0.07731  1.0000
  S   S544      1.0  0.92189  0.60244  0.09173  1.0000
  S   S545      1.0  0.91547  0.53087  0.05600  1.0000
  S   S546      1.0  0.89904  0.58379  0.06011  1.0000
  H   H2311     1.0  0.74833  0.54341  0.13459  1.0000
  N   N131      1.0  0.77792  0.55945  0.13150  1.0000
  C   C1932     1.0  0.93294  0.56164  0.01100  1.0000
  C   C1933     1.0  0.94310  0.56676  0.99677  1.0000
  C   C1934     1.0  0.93767  0.55711  0.98601  1.0000
  C   C1935     1.0  0.92204  0.54216  0.98936  1.0000
  C   C1936     1.0  0.91169  0.53717  0.00359  1.0000
  C   C1937     1.0  0.91706  0.54690  0.01438  1.0000
  H   H2312     1.0  0.95524  0.57828  0.99403  1.0000
  C   C1938     1.0  0.76824  0.32234  0.14215  1.0000
  H   H2313     1.0  0.89944  0.52577  0.00630  1.0000
  H   H2314     1.0  0.90893  0.54298  0.02527  1.0000
  C   C1939     1.0  0.94529  0.61578  0.09198  1.0000
  C   C1940     1.0  0.94451  0.62770  0.10316  1.0000
  H   H2315     1.0  0.52157  0.44221  0.05104  1.0000
  H   H2316     1.0  0.62297  0.63526  0.16429  1.0000
  H   H2317     1.0  0.64177  0.45838  0.19461  1.0000
  H   H2318     1.0  0.70375  0.45997  0.18267  1.0000
  H   H2319     1.0  0.54295  0.46225  0.01536  1.0000
  H   H2320     1.0  0.60640  0.45293  0.08438  1.0000
  H   H2321     1.0  0.53095  0.32180  0.11831  1.0000
  C   C1941     1.0  0.64005  0.53752  0.99199  1.0000
  C   C1942     1.0  0.54314  0.47798  0.01935  1.0000
  H   H2322     1.0  0.94740  0.48854  0.05618  1.0000
  C   C1943     1.0  0.80814  0.50726  0.10785  1.0000
  C   C1944     1.0  0.82922  0.51147  0.10962  1.0000
  C   C1945     1.0  0.84281  0.52313  0.09832  1.0000
  C   C1946     1.0  0.83559  0.53031  0.08509  1.0000
  C   C1947     1.0  0.81442  0.52630  0.08337  1.0000
  C   C1948     1.0  0.80066  0.51493  0.09472  1.0000
  H   H2323     1.0  0.83506  0.50565  0.11977  1.0000
  H   H2324     1.0  0.85874  0.52680  0.09985  1.0000
  H   H2325     1.0  0.80864  0.53201  0.07318  1.0000
  H   H2326     1.0  0.78447  0.51180  0.09323  1.0000
  C   C1949     1.0  0.70365  0.40102  0.14891  1.0000
  C   C1950     1.0  0.69343  0.40399  0.13675  1.0000
  C   C1951     1.0  0.67965  0.38868  0.13547  1.0000
  C   C1952     1.0  0.67582  0.37048  0.14636  1.0000
  C   C1953     1.0  0.68566  0.36783  0.15864  1.0000
  C   C1954     1.0  0.69956  0.38301  0.15988  1.0000
  H   H2327     1.0  0.69660  0.41778  0.12824  1.0000
  H   H2328     1.0  0.67230  0.39063  0.12590  1.0000
  H   H2329     1.0  0.68269  0.35399  0.16717  1.0000
  H   H2330     1.0  0.70724  0.38074  0.16937  1.0000
  C   C1955     1.0  0.70446  0.59543  0.15104  1.0000
  C   C1956     1.0  0.69608  0.58365  0.16422  1.0000
  C   C1957     1.0  0.69134  0.56187  0.16517  1.0000
  C   C1958     1.0  0.69535  0.55155  0.15301  1.0000
  C   C1959     1.0  0.70364  0.56334  0.13980  1.0000
  C   C1960     1.0  0.70817  0.58524  0.13882  1.0000
  H   H2331     1.0  0.69354  0.59115  0.17374  1.0000
  H   H2332     1.0  0.68487  0.55288  0.17542  1.0000
  H   H2333     1.0  0.70625  0.55570  0.13031  1.0000
  H   H2334     1.0  0.71440  0.59438  0.12856  1.0000
  C   C1961     1.0  0.62177  0.50522  0.09331  1.0000
  C   C1962     1.0  0.63158  0.50305  0.10560  1.0000
  C   C1963     1.0  0.65508  0.50041  0.10466  1.0000
  C   C1964     1.0  0.66895  0.49920  0.09148  1.0000
  C   C1965     1.0  0.65907  0.50248  0.07912  1.0000
  C   C1966     1.0  0.63551  0.50569  0.08001  1.0000
  H   H2335     1.0  0.62098  0.50311  0.11588  1.0000
  H   H2336     1.0  0.66241  0.49862  0.11419  1.0000
  H   H2337     1.0  0.66967  0.50189  0.06887  1.0000
  H   H2338     1.0  0.62807  0.50751  0.07047  1.0000
  C   C1967     1.0  0.54173  0.61140  0.07434  1.0000
  C   C1968     1.0  0.52707  0.62929  0.09990  1.0000
  C   C1969     1.0  0.65400  0.43833  0.16176  1.0000
  H   H2339     1.0  0.59807  0.62629  0.10762  1.0000
  C   C1970     1.0  0.79563  0.56813  0.12022  1.0000
  C   C1971     1.0  0.98850  0.43781  0.00678  1.0000
  H   H2340     1.0  0.52758  0.47726  0.05792  1.0000
  H   H2341     1.0  0.73028  0.33154  0.12940  1.0000
  H   H2342     1.0  0.62443  0.46692  0.13561  1.0000
  C   C1972     1.0  0.58070  0.55694  0.99169  1.0000
  C   C1973     1.0  0.58181  0.54501  0.00553  1.0000
  C   C1974     1.0  0.58827  0.52179  0.00757  1.0000
  C   C1975     1.0  0.59275  0.51047  0.99578  1.0000
  C   C1976     1.0  0.58555  0.54570  0.97988  1.0000
  H   H2343     1.0  0.57836  0.55389  0.01454  1.0000
  H   H2344     1.0  0.59772  0.49249  0.99731  1.0000
  H   H2345     1.0  0.58934  0.60036  0.11761  1.0000
  N   N132      1.0  0.89557  0.47067  0.09366  1.0000
  C   C1977     1.0  0.89764  0.48659  0.08005  1.0000
  C   C1978     1.0  0.89994  0.48206  0.10490  1.0000
  C   C1979     1.0  0.91342  0.45106  0.09197  1.0000
  C   C1980     1.0  0.87323  0.46318  0.09779  1.0000
  C   C1981     1.0  0.86821  0.44872  0.11088  1.0000
  C   C1982     1.0  0.85586  0.47003  0.08919  1.0000
  C   C1983     1.0  0.84696  0.44210  0.11530  1.0000
  C   C1984     1.0  0.83478  0.46307  0.09365  1.0000
  C   C1985     1.0  0.83025  0.44937  0.10673  1.0000
  H   H2346     1.0  0.88515  0.50216  0.08067  1.0000
  H   H2347     1.0  0.91458  0.49183  0.07734  1.0000
  H   H2348     1.0  0.89555  0.47895  0.07091  1.0000
  H   H2349     1.0  0.88617  0.49608  0.10711  1.0000
  H   H2350     1.0  0.91597  0.48922  0.10172  1.0000
  H   H2351     1.0  0.90155  0.47055  0.11511  1.0000
  H   H2352     1.0  0.91419  0.43896  0.10203  1.0000
  H   H2353     1.0  0.91066  0.44190  0.08370  1.0000
  H   H2354     1.0  0.93047  0.45622  0.08864  1.0000
  H   H2355     1.0  0.88060  0.44274  0.11792  1.0000
  H   H2356     1.0  0.85780  0.48135  0.07918  1.0000
  H   H2357     1.0  0.84323  0.43164  0.12554  1.0000
  H   H2358     1.0  0.82152  0.46913  0.08718  1.0000
  H   H2359     1.0  0.81353  0.44489  0.11038  1.0000
  C   C1986     1.0  0.54279  0.59753  0.08753  1.0000
  H   H2360     1.0  0.54147  0.47372  0.03118  1.0000
  H   H2361     1.0  0.77529  0.53236  0.14935  1.0000
  H   H2362     1.0  0.68219  0.45806  0.05615  1.0000
  C   C1987     1.0  0.72840  0.33142  0.14109  1.0000
  H   H2363     1.0  0.56986  0.59936  0.14267  1.0000
  H   H2364     1.0  0.65803  0.40262  0.09527  1.0000
  H   H2365     1.0  0.81594  0.57451  0.13495  1.0000
  C   C1988     1.0  0.73786  0.33361  0.16960  1.0000
  C   C1989     1.0  0.96389  0.61585  0.08107  1.0000
  C   C1990     1.0  0.81445  0.57502  0.12393  1.0000
  C   C1991     1.0  0.69286  0.46297  0.17426  1.0000
  C   C1992     1.0  0.50728  0.45367  0.05515  1.0000
  C   C1993     1.0  0.76613  0.57756  0.13960  1.0000
  H   H2366     1.0  0.61033  0.46949  0.05943  1.0000
  H   H2367     1.0  0.79901  0.54611  0.14784  1.0000
  C   C1994     1.0  0.96137  0.47637  0.05940  1.0000
  H   H2368     1.0  0.65656  0.43263  0.11933  1.0000
  H   H2369     1.0  0.64021  0.40088  0.11237  1.0000
  C   C1995     1.0  0.81222  0.57779  0.09508  1.0000
  H   H2370     1.0  0.84453  0.58884  0.09100  1.0000
  C   C1996     1.0  0.64671  0.52094  0.00300  1.0000
  C   C1997     1.0  0.62531  0.46291  0.06430  1.0000
  C   C1998     1.0  0.66117  0.49535  0.98609  1.0000
  C   C1999     1.0  0.73206  0.33304  0.18434  1.0000
  H   H2371     1.0  0.67957  0.44088  0.08098  1.0000
  C   C2000     1.0  0.98113  0.62828  0.08118  1.0000
  H   H2372     1.0  0.60441  0.43751  0.10659  1.0000
  C   C2001     1.0  0.79488  0.57007  0.10540  1.0000
  H   H2373     1.0  0.68964  0.41998  0.17716  1.0000
  C   C2002     1.0  0.65075  0.47840  0.16083  1.0000
  H   H2374     1.0  0.66718  0.46146  0.20048  1.0000
  C   C2003     1.0  0.78825  0.54065  0.14149  1.0000
  C   C2004     1.0  0.53530  0.60641  0.10025  1.0000
  C   C2005     1.0  0.52917  0.48627  0.99027  1.0000
  C   C2006     1.0  0.49231  0.48849  0.06422  1.0000
  H   H2375     1.0  0.58893  0.64240  0.15339  1.0000
  H   H2376     1.0  0.68955  0.48138  0.17087  1.0000
  H   H2377     1.0  0.98568  0.54865  0.01672  1.0000
  H   H2378     1.0  0.75079  0.56447  0.11917  1.0000
  H   H2379     1.0  0.96488  0.45885  0.04155  1.0000
  C   C2007     1.0  0.76070  0.55091  0.12585  1.0000
  C   C2008     1.0  0.66397  0.44675  0.07682  1.0000
  H   H2380     1.0  0.77766  0.58403  0.14492  1.0000
  H   H2381     1.0  0.70289  0.45569  0.16494  1.0000
  C   C2009     1.0  0.53386  0.63439  0.07399  1.0000
  H   H2382     1.0  0.75250  0.57172  0.14812  1.0000
  H   H2383     1.0  0.52677  0.46929  0.99488  1.0000
  H   H2384     1.0  0.76854  0.53744  0.11945  1.0000
  H   H2385     1.0  0.96474  0.60676  0.07239  1.0000
  H   H2386     1.0  0.62804  0.40648  0.09625  1.0000
  C   C2010     1.0  0.97134  0.45966  0.05108  1.0000
  H   H2387     1.0  0.50563  0.58844  0.07216  1.0000
  S   S547      1.0  0.54910  0.60033  0.05823  1.0000
  H   H2388     1.0  0.68776  0.42725  0.19433  1.0000
  H   H2389     1.0  0.78135  0.56526  0.10146  1.0000
  H   H2390     1.0  0.63821  0.42800  0.14647  1.0000
  C   C2011     1.0  0.96944  0.47705  0.07191  1.0000
  C   C2012     1.0  0.98848  0.44509  0.98124  1.0000
  H   H2391     1.0  0.64780  0.47251  0.04512  1.0000
  H   H2392     1.0  0.84636  0.58705  0.11655  1.0000
  H   H2393     1.0  0.65493  0.48296  0.18789  1.0000
  H   H2394     1.0  0.66323  0.42066  0.18937  1.0000
  H   H2395     1.0  0.61884  0.43638  0.12095  1.0000
  H   H2396     1.0  0.79885  0.52755  0.13559  1.0000
  H   H2397     1.0  0.54935  0.57995  0.08796  1.0000
  H   H2398     1.0  0.75813  0.59207  0.13248  1.0000
  C   C2013     1.0  0.65883  0.45643  0.16735  1.0000
  C   C2014     1.0  0.83081  0.58362  0.09910  1.0000
  N   N133      1.0  0.67183  0.45311  0.17929  1.0000
  H   H2399     1.0  0.65819  0.59714  0.13203  1.0000
  C   C2015     1.0  0.83185  0.58242  0.11350  1.0000
  H   H2400     1.0  0.65437  0.49303  0.16417  1.0000
  H   H2401     1.0  0.93038  0.62734  0.11172  1.0000
  C   C2016     1.0  0.65832  0.46445  0.19106  1.0000
  H   H2402     1.0  0.62489  0.60337  0.12063  1.0000
  C   C2017     1.0  0.98743  0.46101  0.07606  1.0000
  C   C2018     1.0  0.67828  0.42918  0.18528  1.0000
  H   H2403     1.0  0.67589  0.42812  0.10378  1.0000
  C   C2019     1.0  0.63386  0.46394  0.14441  1.0000
  H   H2404     1.0  0.76868  0.33932  0.14444  1.0000
  C   C2020     1.0  0.66574  0.45645  0.06242  1.0000
  H   H2405     1.0  0.81171  0.57845  0.08383  1.0000
  C   C2021     1.0  0.53289  0.52418  0.99201  1.0000
  H   H2406     1.0  0.65769  0.61316  0.15367  1.0000
  C   C2022     1.0  0.56448  0.61767  0.13964  1.0000
  C   C2023     1.0  0.64266  0.61602  0.14873  1.0000
  H   H2407     1.0  0.63283  0.49900  0.14462  1.0000
  C   C2024     1.0  0.62308  0.62856  0.15468  1.0000
  N   N134      1.0  0.52517  0.49621  0.01482  1.0000
  C   C2025     1.0  0.63844  0.48203  0.14956  1.0000
  C   C2026     1.0  0.64163  0.44214  0.15049  1.0000
  C   C2027     1.0  0.51071  0.47353  0.05902  1.0000
  H   H2408     1.0  0.61645  0.46146  0.10799  1.0000
  H   H2409     1.0  0.72839  0.34848  0.18876  1.0000
  H   H2410     1.0  0.66153  0.45587  0.10552  1.0000
  C   C2028     1.0  0.62332  0.45337  0.07873  1.0000
  H   H2411     1.0  0.56003  0.62509  0.14962  1.0000
  H   H2412     1.0  0.53574  0.59544  0.11040  1.0000
  S   S548      1.0  0.49608  0.51408  0.06842  1.0000
  C   C2029     1.0  0.53255  0.49175  0.97537  1.0000
  H   H2413     1.0  0.64315  0.52429  0.01388  1.0000
  N   N135      1.0  0.58234  0.62811  0.12937  1.0000
  H   H2414     1.0  0.98126  0.44126  0.01742  1.0000
  C   C2030     1.0  0.53605  0.52949  0.97712  1.0000
  H   H2415     1.0  0.54858  0.61996  0.13509  1.0000
  C   C2031     1.0  0.60327  0.62389  0.13576  1.0000
  C   C2032     1.0  0.62351  0.61088  0.13004  1.0000
  C   C2033     1.0  0.60366  0.63252  0.14832  1.0000
  H   H2416     1.0  0.95763  0.52418  0.02810  1.0000
  Fe  Fe274     1.0  0.68311  0.64227  0.19944  1.0000
  H   H2417     1.0  0.72874  0.34894  0.14234  1.0000
  S   S549      1.0  0.91531  0.52934  0.97605  1.0000
  C   C2034     1.0  0.65741  0.49996  0.00004  1.0000
  C   C2035     1.0  0.96659  0.51172  0.02121  1.0000
  H   H2418     1.0  0.71124  0.32748  0.14583  1.0000
  H   H2419     1.0  0.56011  0.48301  0.01543  1.0000
  H   H2420     1.0  0.96325  0.49498  0.02699  1.0000
  C   C2036     1.0  0.58499  0.61895  0.11588  1.0000
  C   C2037     1.0  0.64287  0.60711  0.13649  1.0000
  H   H2421     1.0  0.95843  0.51541  0.01146  1.0000
  H   H2422     1.0  0.53299  0.64521  0.06382  1.0000
  H   H2423     1.0  0.51168  0.52932  0.01980  1.0000
  C   C2038     1.0  0.59109  0.52236  0.98199  1.0000
  H   H2424     1.0  0.65976  0.42102  0.16578  1.0000
  C   C2039     1.0  0.64644  0.46461  0.05620  1.0000
  N   N136      1.0  0.64079  0.43437  0.10068  1.0000
  C   C2040     1.0  0.65944  0.43792  0.10757  1.0000
  C   C2041     1.0  0.61924  0.44284  0.10937  1.0000
  C   C2042     1.0  0.64181  0.41001  0.10120  1.0000
  C   C2043     1.0  0.64264  0.44534  0.08554  1.0000
  C   C2044     1.0  0.50301  0.48830  0.01950  1.0000
  H   H2425     1.0  0.57634  0.57500  0.99012  1.0000
  C   C2045     1.0  0.52911  0.50238  0.99907  1.0000
  H   H2426     1.0  0.66947  0.47882  0.98433  1.0000
  H   H2427     1.0  0.73900  0.34977  0.16303  1.0000
  C   C2046     1.0  0.98984  0.44410  0.05498  1.0000
  C   C2047     1.0  0.64353  0.53307  0.97802  1.0000
  C   C2048     1.0  0.97929  0.44983  0.99493  1.0000
  H   H2428     1.0  0.63136  0.55373  0.99437  1.0000
  H   H2429     1.0  0.49849  0.48538  0.03133  1.0000
  H   H2430     1.0  0.49655  0.56734  0.09572  1.0000
  H   H2431     1.0  0.54167  0.52113  0.01997  1.0000
  S   S550      1.0  0.51655  0.63940  0.11612  1.0000
  H   H2432     1.0  0.50270  0.47213  0.01606  1.0000
  S   S551      1.0  0.69150  0.62165  0.22029  1.0000
  Fe  Fe275     1.0  0.65730  0.31910  0.16028  1.0000
  H   H2433     1.0  0.94545  0.56149  0.97510  1.0000
  C   C2049     1.0  0.96166  0.64021  0.10324  1.0000
  H   H2434     1.0  0.98081  0.53550  0.04042  1.0000
  H   H2435     1.0  0.49410  0.60580  0.09155  1.0000
  H   H2436     1.0  0.96480  0.46279  0.99636  1.0000
  C   C2050     1.0  0.52664  0.64336  0.08673  1.0000
  C   C2051     1.0  0.97991  0.64085  0.09212  1.0000
  H   H2437     1.0  0.56907  0.62285  0.11125  1.0000
  H   H2438     1.0  0.49867  0.56783  0.06383  1.0000
  H   H2439     1.0  0.52186  0.50994  0.03427  1.0000
  C   C2052     1.0  0.65391  0.51162  0.97468  1.0000
  H   H2440     1.0  0.86990  0.51598  0.97467  1.0000
  C   C2053     1.0  0.49135  0.58308  0.06874  1.0000
  Fe  Fe276     1.0  0.66315  0.63324  0.32798  1.0000
  S   S552      1.0  0.67354  0.61428  0.30946  1.0000
  S   S553      1.0  0.63107  0.62887  0.34345  1.0000
  H   H2441     1.0  0.64269  0.33835  0.39483  1.0000
  H   H2442     1.0  0.65193  0.36041  0.36496  1.0000
  H   H2443     1.0  0.60930  0.33046  0.39425  1.0000
  H   H2444     1.0  0.79362  0.47621  0.35114  1.0000
  Fe  Fe277     1.0  0.70787  0.60728  0.31618  1.0000
  S   S554      1.0  0.73242  0.57458  0.31621  1.0000
  S   S555      1.0  0.69667  0.62386  0.33563  1.0000
  H   H2445     1.0  0.74932  0.63721  0.32491  1.0000
  H   H2446     1.0  0.53282  0.39060  0.46970  1.0000
  Fe  Fe278     1.0  0.88869  0.40518  0.42563  1.0000
  S   S556      1.0  0.92055  0.39092  0.41231  1.0000
  S   S557      1.0  0.85428  0.42127  0.41989  1.0000
  Fe  Fe279     1.0  0.90944  0.39345  0.45322  1.0000
  S   S558      1.0  0.94240  0.37754  0.44232  1.0000
  Fe  Fe280     1.0  0.93857  0.40726  0.42502  1.0000
  S   S559      1.0  0.97049  0.42206  0.41565  1.0000
  Fe  Fe281     1.0  0.92199  0.36238  0.43064  1.0000
  H   H2447     1.0  0.63195  0.61609  0.24643  1.0000
  S   S560      1.0  0.90666  0.42420  0.43659  1.0000
  S   S561      1.0  0.88907  0.37552  0.44323  1.0000
  Fe  Fe282     1.0  0.53306  0.38248  0.43900  1.0000
  S   S562      1.0  0.53481  0.34909  0.45314  1.0000
  Fe  Fe283     1.0  0.57891  0.36914  0.42227  1.0000
  H   H2448     1.0  0.67495  0.45357  0.40027  1.0000
  S   S563      1.0  0.60175  0.37830  0.40155  1.0000
  H   H2449     1.0  0.51741  0.32870  0.41055  1.0000
  H   H2450     1.0  0.85659  0.45139  0.37327  1.0000
  H   H2451     1.0  0.89634  0.35249  0.41318  1.0000
  S   S564      1.0  0.54387  0.36677  0.41908  1.0000
  S   S565      1.0  0.56771  0.38752  0.44115  1.0000
  C   C2054     1.0  0.98208  0.48075  0.43514  1.0000
  Fe  Fe284     1.0  0.72960  0.44984  0.36080  1.0000
  S   S566      1.0  0.75907  0.43216  0.34741  1.0000
  S   S567      1.0  0.71403  0.48654  0.36072  1.0000
  Fe  Fe285     1.0  0.72181  0.40686  0.38145  1.0000
  S   S568      1.0  0.75102  0.38579  0.37011  1.0000
  S   S569      1.0  0.70092  0.39428  0.40233  1.0000
  Fe  Fe286     1.0  0.77000  0.41449  0.36821  1.0000
  S   S570      1.0  0.80762  0.40901  0.36896  1.0000
  Fe  Fe287     1.0  0.73814  0.40449  0.35021  1.0000
  S   S571      1.0  0.74021  0.38433  0.33256  1.0000
  S   S572      1.0  0.74194  0.43392  0.38144  1.0000
  S   S573      1.0  0.70755  0.42375  0.36167  1.0000
  C   C2055     1.0  0.68400  0.34740  0.32760  1.0000
  C   C2056     1.0  0.61116  0.31655  0.38853  1.0000
  C   C2057     1.0  0.72353  0.35152  0.32392  1.0000
  C   C2058     1.0  0.71841  0.36968  0.33147  1.0000
  C   C2059     1.0  0.69602  0.37647  0.33727  1.0000
  C   C2060     1.0  0.67885  0.36559  0.33512  1.0000
  H   H2452     1.0  0.76741  0.46440  0.38976  1.0000
  H   H2453     1.0  0.63535  0.49772  0.38184  1.0000
  H   H2454     1.0  0.69188  0.39067  0.34289  1.0000
  H   H2455     1.0  0.66149  0.37160  0.33903  1.0000
  C   C2061     1.0  0.62912  0.38285  0.40208  1.0000
  C   C2062     1.0  0.64307  0.38903  0.38921  1.0000
  C   C2063     1.0  0.66527  0.39204  0.38916  1.0000
  C   C2064     1.0  0.67349  0.38945  0.40203  1.0000
  C   C2065     1.0  0.65946  0.38344  0.41493  1.0000
  C   C2066     1.0  0.63732  0.38004  0.41496  1.0000
  H   H2456     1.0  0.63666  0.39160  0.37923  1.0000
  H   H2457     1.0  0.67598  0.39641  0.37917  1.0000
  H   H2458     1.0  0.66576  0.38139  0.42492  1.0000
  H   H2459     1.0  0.62664  0.37526  0.42494  1.0000
  C   C2067     1.0  0.84155  0.41654  0.40596  1.0000
  C   C2068     1.0  0.85435  0.40899  0.39375  1.0000
  C   C2069     1.0  0.84362  0.40632  0.38263  1.0000
  C   C2070     1.0  0.82007  0.41129  0.38360  1.0000
  C   C2071     1.0  0.80725  0.41875  0.39583  1.0000
  C   C2072     1.0  0.81800  0.42148  0.40693  1.0000
  H   H2460     1.0  0.87252  0.40603  0.39266  1.0000
  H   H2461     1.0  0.85363  0.40087  0.37308  1.0000
  H   H2462     1.0  0.78912  0.42264  0.39667  1.0000
  H   H2463     1.0  0.80803  0.42755  0.41630  1.0000
  H   H2464     1.0  0.97028  0.39306  0.39520  1.0000
  C   C2073     1.0  0.58112  0.34059  0.36002  1.0000
  C   C2074     1.0  0.79026  0.64818  0.32860  1.0000
  C   C2075     1.0  0.97498  0.44435  0.42346  1.0000
  C   C2076     1.0  0.95776  0.45480  0.43278  1.0000
  C   C2077     1.0  0.96123  0.47303  0.43848  1.0000
  H   H2465     1.0  0.51001  0.42138  0.41599  1.0000
  H   H2466     1.0  0.82306  0.61745  0.30423  1.0000
  H   H2467     1.0  0.94157  0.44921  0.43539  1.0000
  H   H2468     1.0  0.94762  0.48127  0.44546  1.0000
  C   C2078     1.0  0.97263  0.44274  0.47259  1.0000
  H   H2469     1.0  0.96554  0.46087  0.47050  1.0000
  C   C2079     1.0  0.93982  0.32883  0.39979  1.0000
  C   C2080     1.0  0.69219  0.63206  0.26036  1.0000
  C   C2081     1.0  0.69589  0.62256  0.24782  1.0000
  C   C2082     1.0  0.63144  0.62643  0.27984  1.0000
  H   H2470     1.0  0.69993  0.62336  0.26948  1.0000
  H   H2471     1.0  0.70654  0.60653  0.24732  1.0000
  C   C2083     1.0  0.72684  0.55004  0.32840  1.0000
  C   C2084     1.0  0.74067  0.52947  0.32669  1.0000
  C   C2085     1.0  0.73680  0.50972  0.33630  1.0000
  C   C2086     1.0  0.71925  0.51049  0.34787  1.0000
  C   C2087     1.0  0.70563  0.53110  0.34966  1.0000
  C   C2088     1.0  0.70927  0.55075  0.33994  1.0000
  H   H2472     1.0  0.75422  0.52874  0.31774  1.0000
  H   H2473     1.0  0.74732  0.49396  0.33471  1.0000
  H   H2474     1.0  0.69204  0.53191  0.35857  1.0000
  H   H2475     1.0  0.69853  0.56645  0.34141  1.0000
  C   C2089     1.0  0.59724  0.43409  0.40831  1.0000
  H   H2476     1.0  0.58628  0.63049  0.35901  1.0000
  N   N137      1.0  0.78043  0.61560  0.31928  1.0000
  C   C2090     1.0  0.75814  0.62006  0.32831  1.0000
  C   C2091     1.0  0.77643  0.61728  0.30439  1.0000
  C   C2092     1.0  0.79053  0.59227  0.32425  1.0000
  H   H2477     1.0  0.62425  0.35706  0.37428  1.0000
  C   C2093     1.0  0.79595  0.63124  0.31979  1.0000
  C   C2094     1.0  0.83203  0.64519  0.31090  1.0000
  H   H2478     1.0  0.87776  0.32745  0.43205  1.0000
  H   H2479     1.0  0.64262  0.62264  0.28769  1.0000
  C   C2095     1.0  0.59058  0.32964  0.34844  1.0000
  H   H2480     1.0  0.66429  0.31720  0.35410  1.0000
  H   H2481     1.0  0.97805  0.37311  0.41777  1.0000
  H   H2482     1.0  0.74679  0.60820  0.32761  1.0000
  H   H2483     1.0  0.93115  0.63939  0.37518  1.0000
  H   H2484     1.0  0.94707  0.37390  0.47238  1.0000
  S   S574      1.0  0.98546  0.50368  0.44266  1.0000
  H   H2485     1.0  0.74079  0.34629  0.31932  1.0000
  H   H2486     1.0  0.77897  0.58016  0.32420  1.0000
  H   H2487     1.0  0.59516  0.64071  0.24953  1.0000
  C   C2096     1.0  0.88139  0.32763  0.38847  1.0000
  H   H2488     1.0  0.71058  0.32628  0.31629  1.0000
  Fe  Fe288     1.0  0.54896  0.33370  0.43350  1.0000
  H   H2489     1.0  0.50417  0.53563  0.41283  1.0000
  H   H2490     1.0  0.67037  0.33837  0.38540  1.0000
  H   H2491     1.0  0.58359  0.42573  0.41454  1.0000
  H   H2492     1.0  0.58973  0.42950  0.38836  1.0000
  H   H2493     1.0  0.83414  0.36329  0.41390  1.0000
  H   H2494     1.0  0.76438  0.47572  0.35737  1.0000
  H   H2495     1.0  0.52546  0.43012  0.46202  1.0000
  S   S575      1.0  0.71930  0.63824  0.30212  1.0000
  H   H2496     1.0  0.76372  0.60676  0.30374  1.0000
  S   S576      1.0  0.93025  0.32534  0.42919  1.0000
  H   H2497     1.0  0.60902  0.44007  0.42661  1.0000
  C   C2097     1.0  0.56132  0.33494  0.36856  1.0000
  C   C2098     1.0  0.63411  0.45420  0.39192  1.0000
  H   H2498     1.0  0.64043  0.45806  0.41277  1.0000
  H   H2499     1.0  0.60621  0.33382  0.34189  1.0000
  H   H2500     1.0  0.58921  0.35335  0.36247  1.0000
  H   H2501     1.0  0.84540  0.35936  0.39618  1.0000
  S   S577      1.0  0.58450  0.33525  0.43574  1.0000
  H   H2502     1.0  0.85228  0.34669  0.43349  1.0000
  Fe  Fe289     1.0  0.68406  0.64659  0.29715  1.0000
  H   H2503     1.0  0.66549  0.49631  0.37910  1.0000
  C   C2099     1.0  0.63879  0.61740  0.26724  1.0000
  C   C2100     1.0  0.60074  0.43627  0.39350  1.0000
  H   H2504     1.0  0.59239  0.62032  0.30732  1.0000
  H   H2505     1.0  0.51806  0.44959  0.47421  1.0000
  H   H2506     1.0  0.64257  0.47361  0.36315  1.0000
  H   H2507     1.0  0.96798  0.34984  0.41388  1.0000
  H   H2508     1.0  0.87552  0.34389  0.38275  1.0000
  H   H2509     1.0  0.63372  0.34803  0.35716  1.0000
  N   N138      1.0  0.86591  0.34092  0.41197  1.0000
  H   H2510     1.0  0.49140  0.59308  0.44040  1.0000
  H   H2511     1.0  0.65046  0.49001  0.39673  1.0000
  H   H2512     1.0  0.62074  0.44679  0.37397  1.0000
  H   H2513     1.0  0.65921  0.44602  0.36607  1.0000
  H   H2514     1.0  0.94714  0.33070  0.37692  1.0000
  C   C2101     1.0  0.87986  0.35897  0.40949  1.0000
  C   C2102     1.0  0.62580  0.62265  0.25634  1.0000
  C   C2103     1.0  0.62971  0.45217  0.40703  1.0000
  C   C2104     1.0  0.61165  0.44208  0.41507  1.0000
  H   H2515     1.0  0.80653  0.58694  0.31733  1.0000
  C   C2105     1.0  0.55072  0.31855  0.36543  1.0000
  C   C2106     1.0  0.98341  0.35760  0.41289  1.0000
  H   H2516     1.0  0.84805  0.64446  0.30382  1.0000
  C   C2107     1.0  0.78116  0.47260  0.36092  1.0000
  C   C2108     1.0  0.67468  0.45223  0.38902  1.0000
  H   H2517     1.0  0.88347  0.36618  0.39802  1.0000
  H   H2518     1.0  0.68996  0.45871  0.38271  1.0000
  H   H2519     1.0  0.67226  0.47062  0.36230  1.0000
  H   H2520     1.0  0.93384  0.34653  0.39933  1.0000
  C   C2109     1.0  0.61886  0.44613  0.38535  1.0000
  Fe  Fe290     1.0  0.56998  0.35318  0.45445  1.0000
  H   H2521     1.0  0.78450  0.45441  0.36524  1.0000
  C   C2110     1.0  0.97738  0.37812  0.38991  1.0000
  H   H2522     1.0  0.67680  0.43413  0.38840  1.0000
  H   H2523     1.0  0.59690  0.63946  0.31808  1.0000
  C   C2111     1.0  0.65112  0.48811  0.38545  1.0000
  N   N139      1.0  0.78180  0.48652  0.37179  1.0000
  C   C2112     1.0  0.77703  0.51034  0.36519  1.0000
  S   S578      1.0  0.49271  0.63561  0.39454  1.0000
  C   C2113     1.0  0.76344  0.48164  0.38380  1.0000
  C   C2114     1.0  0.80362  0.48226  0.37716  1.0000
  C   C2115     1.0  0.82256  0.46746  0.37164  1.0000
  C   C2116     1.0  0.80630  0.49289  0.38845  1.0000
  C   C2117     1.0  0.84257  0.46319  0.37739  1.0000
  C   C2118     1.0  0.82626  0.48814  0.39429  1.0000
  C   C2119     1.0  0.84429  0.47316  0.38885  1.0000
  H   H2524     1.0  0.76078  0.51398  0.36089  1.0000
  H   H2525     1.0  0.77570  0.52194  0.37293  1.0000
  H   H2526     1.0  0.79056  0.51469  0.35617  1.0000
  N   N140      1.0  0.64809  0.32648  0.37448  1.0000
  C   C2120     1.0  0.87772  0.32314  0.40363  1.0000
  H   H2527     1.0  0.76048  0.49346  0.39156  1.0000
  H   H2528     1.0  0.74703  0.48294  0.38002  1.0000
  C   C2121     1.0  0.68600  0.63376  0.23592  1.0000
  H   H2529     1.0  0.82221  0.45834  0.36318  1.0000
  H   H2530     1.0  0.79280  0.50459  0.39305  1.0000
  H   H2531     1.0  0.82770  0.49576  0.40326  1.0000
  H   H2532     1.0  0.85951  0.46896  0.39368  1.0000
  H   H2533     1.0  0.60187  0.37865  0.47104  1.0000
  H   H2534     1.0  0.96310  0.36964  0.38926  1.0000
  H   H2535     1.0  0.75962  0.61816  0.33978  1.0000
  C   C2122     1.0  0.59745  0.64552  0.27076  1.0000
  C   C2123     1.0  0.60330  0.63264  0.30795  1.0000
  H   H2536     1.0  0.79418  0.59037  0.33531  1.0000
  H   H2537     1.0  0.62035  0.62324  0.30919  1.0000
  N   N141      1.0  0.65379  0.46431  0.38369  1.0000
  H   H2538     1.0  0.87149  0.37299  0.41535  1.0000
  H   H2539     1.0  0.79183  0.61149  0.29714  1.0000
  H   H2540     1.0  0.85159  0.31906  0.43025  1.0000
  C   C2124     1.0  0.65696  0.46355  0.36815  1.0000
  S   S579      1.0  0.66193  0.33423  0.32514  1.0000
  C   C2125     1.0  0.70644  0.34020  0.32216  1.0000
  C   C2126     1.0  0.63903  0.34898  0.36743  1.0000
  C   C2127     1.0  0.84377  0.35049  0.40738  1.0000
  C   C2128     1.0  0.66826  0.31757  0.36482  1.0000
  H   H2541     1.0  0.83321  0.33719  0.40827  1.0000
  S   S580      1.0  0.50342  0.40726  0.44694  1.0000
  C   C2129     1.0  0.65587  0.32885  0.38774  1.0000
  C   C2130     1.0  0.81749  0.62996  0.31113  1.0000
  C   C2131     1.0  0.49492  0.53494  0.42359  1.0000
  C   C2132     1.0  0.49667  0.43302  0.42085  1.0000
  C   C2133     1.0  0.86169  0.33304  0.42760  1.0000
  H   H2542     1.0  0.77021  0.63489  0.29992  1.0000
  H   H2543     1.0  0.98470  0.38470  0.37885  1.0000
  H   H2544     1.0  0.65499  0.60675  0.26576  1.0000
  H   H2545     1.0  0.55420  0.34318  0.37773  1.0000
  H   H2546     1.0  0.49650  0.32042  0.39292  1.0000
  H   H2547     1.0  0.49589  0.49919  0.42675  1.0000
  C   C2134     1.0  0.94732  0.31982  0.38711  1.0000
  H   H2548     1.0  0.95269  0.64474  0.38399  1.0000
  C   C2135     1.0  0.58722  0.64634  0.35196  1.0000
  H   H2549     1.0  0.68175  0.32830  0.36276  1.0000
  H   H2550     1.0  0.54685  0.43652  0.47041  1.0000
  H   H2551     1.0  0.97237  0.43561  0.46285  1.0000
  C   C2136     1.0  0.52901  0.43363  0.47222  1.0000
  C   C2137     1.0  0.60514  0.63660  0.25811  1.0000
  C   C2138     1.0  0.61050  0.64070  0.28203  1.0000
  H   H2552     1.0  0.68376  0.31663  0.23445  1.0000
  Fe  Fe291     1.0  0.93681  0.38893  0.56419  1.0000
  S   S581      1.0  0.95961  0.35991  0.55570  1.0000
  S   S582      1.0  0.90308  0.38041  0.57545  1.0000
  Fe  Fe292     1.0  0.97292  0.41898  0.55562  1.0000
  Fe  Fe293     1.0  0.97078  0.38528  0.53703  1.0000
  S   S583      1.0  0.97907  0.37799  0.51443  1.0000
  H   H2553     1.0  0.49228  0.37107  0.59294  1.0000
  S   S584      1.0  0.94551  0.41360  0.54449  1.0000
  S   S585      1.0  0.96183  0.39679  0.57607  1.0000
  H   H2554     1.0  0.68048  0.44367  0.56493  1.0000
  Fe  Fe294     1.0  0.77380  0.44858  0.63377  1.0000
  S   S586      1.0  0.76205  0.46405  0.61284  1.0000
  S   S587      1.0  0.77986  0.46549  0.65176  1.0000
  Fe  Fe295     1.0  0.78259  0.40104  0.62585  1.0000
  S   S588      1.0  0.77268  0.41321  0.60410  1.0000
  S   S589      1.0  0.79691  0.36428  0.63022  1.0000
  Fe  Fe296     1.0  0.79185  0.44133  0.60328  1.0000
  S   S590      1.0  0.81720  0.45392  0.58479  1.0000
  Fe  Fe297     1.0  0.74352  0.43434  0.61539  1.0000
  S   S591      1.0  0.70719  0.43626  0.61140  1.0000
  S   S592      1.0  0.80438  0.42728  0.62392  1.0000
  S   S593      1.0  0.75252  0.42070  0.63742  1.0000
  H   H2555     1.0  0.97125  0.44652  0.52412  1.0000
  H   H2556     1.0  0.71007  0.38991  0.51544  1.0000
  S   S594      1.0  0.52078  0.51692  0.54246  1.0000
  C   C2139     1.0  0.72133  0.34041  0.63578  1.0000
  H   H2557     1.0  0.97286  0.42896  0.50324  1.0000
  H   H2558     1.0  0.81498  0.31895  0.63971  1.0000
  H   H2559     1.0  0.55645  0.39511  0.47653  1.0000
  H   H2560     1.0  0.73277  0.64143  0.69722  1.0000
  Fe  Fe298     1.0  0.63173  0.38231  0.56782  1.0000
  S   S595      1.0  0.60027  0.37401  0.58257  1.0000
  S   S596      1.0  0.66665  0.38373  0.57300  1.0000
  Fe  Fe299     1.0  0.61123  0.38032  0.54131  1.0000
  S   S597      1.0  0.57840  0.37176  0.55397  1.0000
  S   S598      1.0  0.61919  0.38775  0.51713  1.0000
  Fe  Fe300     1.0  0.58118  0.39789  0.56669  1.0000
  S   S599      1.0  0.54853  0.41869  0.57490  1.0000
  Fe  Fe301     1.0  0.59934  0.34839  0.56899  1.0000
  S   S600      1.0  0.61256  0.40847  0.55293  1.0000
  S   S601      1.0  0.63227  0.35469  0.55525  1.0000
  Fe  Fe302     1.0  0.82725  0.57512  0.67014  1.0000
  S   S602      1.0  0.83985  0.60581  0.65669  1.0000
  S   S603      1.0  0.81341  0.55713  0.65543  1.0000
  Fe  Fe303     1.0  0.83712  0.58963  0.69724  1.0000
  C   C2140     1.0  0.52002  0.33234  0.60065  1.0000
  Fe  Fe304     1.0  0.82113  0.62501  0.67375  1.0000
  H   H2561     1.0  0.77315  0.57790  0.67148  1.0000
  Fe  Fe305     1.0  0.86839  0.59872  0.66919  1.0000
  S   S604      1.0  0.90209  0.60277  0.65528  1.0000
  S   S605      1.0  0.80629  0.59539  0.68649  1.0000
  S   S606      1.0  0.85729  0.56672  0.68190  1.0000
  C   C2141     1.0  0.94494  0.64849  0.64654  1.0000
  H   H2562     1.0  0.96946  0.60189  0.65131  1.0000
  H   H2563     1.0  0.75764  0.60015  0.68072  1.0000
  C   C2142     1.0  0.88533  0.40598  0.53894  1.0000
  H   H2564     1.0  0.89784  0.39980  0.54631  1.0000
  H   H2565     1.0  0.94099  0.33676  0.53537  1.0000
  H   H2566     1.0  0.64762  0.42899  0.53011  1.0000
  C   C2143     1.0  0.70643  0.32644  0.63372  1.0000
  H   H2567     1.0  0.65240  0.41757  0.51411  1.0000
  H   H2568     1.0  0.49701  0.39914  0.49581  1.0000
  C   C2144     1.0  0.58823  0.35451  0.48810  1.0000
  C   C2145     1.0  0.58596  0.34671  0.50286  1.0000
  C   C2146     1.0  0.59517  0.35686  0.51187  1.0000
  C   C2147     1.0  0.60703  0.37477  0.50617  1.0000
  C   C2148     1.0  0.60931  0.38259  0.49140  1.0000
  C   C2149     1.0  0.50084  0.41244  0.48656  1.0000
  H   H2569     1.0  0.55498  0.63255  0.56879  1.0000
  H   H2570     1.0  0.59334  0.35065  0.52321  1.0000
  H   H2571     1.0  0.61848  0.39642  0.48690  1.0000
  H   H2572     1.0  0.90354  0.62468  0.67915  1.0000
  C   C2150     1.0  0.91490  0.63139  0.67001  1.0000
  H   H2573     1.0  0.55817  0.39140  0.50056  1.0000
  C   C2151     1.0  0.74117  0.32951  0.64127  1.0000
  C   C2152     1.0  0.50839  0.60713  0.59077  1.0000
  H   H2574     1.0  0.77528  0.62580  0.64276  1.0000
  C   C2153     1.0  0.52805  0.48943  0.55131  1.0000
  C   C2154     1.0  0.54930  0.47732  0.54717  1.0000
  C   C2155     1.0  0.55571  0.45554  0.55425  1.0000
  C   C2156     1.0  0.54092  0.44581  0.56558  1.0000
  C   C2157     1.0  0.51964  0.45791  0.56969  1.0000
  C   C2158     1.0  0.80377  0.32511  0.64866  1.0000
  H   H2575     1.0  0.56086  0.48482  0.53847  1.0000
  H   H2576     1.0  0.57214  0.44638  0.55101  1.0000
  H   H2577     1.0  0.72073  0.44749  0.55840  1.0000
  H   H2578     1.0  0.97134  0.61078  0.66739  1.0000
  H   H2579     1.0  0.84378  0.41093  0.53332  1.0000
  H   H2580     1.0  0.90150  0.34312  0.59898  1.0000
  H   H2581     1.0  0.49590  0.40777  0.47709  1.0000
  H   H2582     1.0  0.54011  0.35929  0.61345  1.0000
  H   H2583     1.0  0.73845  0.58128  0.65161  1.0000
  H   H2584     1.0  0.53801  0.37490  0.57540  1.0000
  H   H2585     1.0  0.69115  0.33313  0.62931  1.0000
  C   C2159     1.0  0.54844  0.40621  0.50431  1.0000
  C   C2160     1.0  0.73430  0.62193  0.66042  1.0000
  C   C2161     1.0  0.78948  0.49101  0.65239  1.0000
  C   C2162     1.0  0.79598  0.49386  0.66510  1.0000
  C   C2163     1.0  0.80354  0.51377  0.66623  1.0000
  C   C2164     1.0  0.80457  0.53127  0.65466  1.0000
  C   C2165     1.0  0.79806  0.52843  0.64193  1.0000
  C   C2166     1.0  0.79062  0.50847  0.64077  1.0000
  H   H2586     1.0  0.79510  0.48055  0.67419  1.0000
  H   H2587     1.0  0.80841  0.51560  0.67610  1.0000
  H   H2588     1.0  0.79873  0.54181  0.63288  1.0000
  H   H2589     1.0  0.78550  0.50671  0.63096  1.0000
  C   C2167     1.0  0.69638  0.42211  0.60021  1.0000
  C   C2168     1.0  0.67293  0.42502  0.60039  1.0000
  C   C2169     1.0  0.66347  0.41347  0.59218  1.0000
  C   C2170     1.0  0.67739  0.39874  0.58370  1.0000
  C   C2171     1.0  0.70085  0.39587  0.58350  1.0000
  C   C2172     1.0  0.71030  0.40751  0.59163  1.0000
  H   H2590     1.0  0.66195  0.43623  0.60698  1.0000
  H   H2591     1.0  0.64543  0.41594  0.59247  1.0000
  H   H2592     1.0  0.71183  0.38467  0.57690  1.0000
  H   H2593     1.0  0.72836  0.40518  0.59123  1.0000
  C   C2173     1.0  0.95760  0.38444  0.50374  1.0000
  C   C2174     1.0  0.96123  0.37620  0.49079  1.0000
  C   C2175     1.0  0.94441  0.38098  0.48207  1.0000
  C   C2176     1.0  0.92388  0.39411  0.48622  1.0000
  C   C2177     1.0  0.92056  0.40298  0.49893  1.0000
  C   C2178     1.0  0.93735  0.39810  0.50770  1.0000
  H   H2594     1.0  0.97692  0.36569  0.48764  1.0000
  H   H2595     1.0  0.79082  0.60175  0.65186  1.0000
  H   H2596     1.0  0.90477  0.41326  0.50211  1.0000
  H   H2597     1.0  0.93456  0.40473  0.51756  1.0000
  C   C2179     1.0  0.87986  0.40146  0.57818  1.0000
  C   C2180     1.0  0.88045  0.42374  0.57168  1.0000
  C   C2181     1.0  0.86111  0.43986  0.57365  1.0000
  C   C2182     1.0  0.84136  0.43379  0.58232  1.0000
  C   C2183     1.0  0.84099  0.41160  0.58899  1.0000
  C   C2184     1.0  0.86013  0.39547  0.58683  1.0000
  H   H2598     1.0  0.89571  0.42851  0.56509  1.0000
  H   H2599     1.0  0.86148  0.45707  0.56857  1.0000
  H   H2600     1.0  0.82585  0.40676  0.59571  1.0000
  H   H2601     1.0  0.85961  0.37827  0.59193  1.0000
  H   H2602     1.0  0.54255  0.32123  0.61676  1.0000
  C   C2185     1.0  0.79317  0.34748  0.64716  1.0000
  C   C2186     1.0  0.77863  0.35531  0.65877  1.0000
  C   C2187     1.0  0.53114  0.41986  0.49721  1.0000
  H   H2603     1.0  0.77052  0.37257  0.65774  1.0000
  H   H2604     1.0  0.51641  0.45890  0.51990  1.0000
  N   N142      1.0  0.71705  0.36516  0.63229  1.0000
  C   C2188     1.0  0.73473  0.37283  0.62062  1.0000
  C   C2189     1.0  0.69484  0.37409  0.62763  1.0000
  C   C2190     1.0  0.71777  0.37524  0.64497  1.0000
  H   H2605     1.0  0.75354  0.33898  0.64272  1.0000
  C   C2191     1.0  0.53356  0.35788  0.57967  1.0000
  H   H2606     1.0  0.66022  0.39287  0.54384  1.0000
  C   C2192     1.0  0.52778  0.63432  0.55724  1.0000
  C   C2193     1.0  0.93209  0.63236  0.64530  1.0000
  H   H2607     1.0  0.77289  0.63272  0.68686  1.0000
  H   H2608     1.0  0.72580  0.41726  0.52150  1.0000
  H   H2609     1.0  0.73202  0.39139  0.61767  1.0000
  C   C2194     1.0  0.50350  0.32488  0.59486  1.0000
  H   H2610     1.0  0.68073  0.36875  0.63588  1.0000
  H   H2611     1.0  0.69376  0.36897  0.61735  1.0000
  H   H2612     1.0  0.69181  0.39276  0.62572  1.0000
  H   H2613     1.0  0.73485  0.37198  0.64805  1.0000
  H   H2614     1.0  0.71321  0.39384  0.64295  1.0000
  H   H2615     1.0  0.51059  0.38950  0.59488  1.0000
  S   S607      1.0  0.90146  0.39829  0.47640  1.0000
  C   C2195     1.0  0.92778  0.64745  0.67126  1.0000
  H   H2616     1.0  0.53586  0.37906  0.48772  1.0000
  C   C2196     1.0  0.90069  0.31966  0.61859  1.0000
  C   C2197     1.0  0.78484  0.31816  0.67312  1.0000
  H   H2617     1.0  0.93891  0.32871  0.51160  1.0000
  C   C2198     1.0  0.72522  0.43275  0.53933  1.0000
  H   H2618     1.0  0.87533  0.36975  0.55801  1.0000
  H   H2619     1.0  0.77911  0.62476  0.66101  1.0000
  H   H2620     1.0  0.57702  0.33271  0.50736  1.0000
  H   H2621     1.0  0.56041  0.34736  0.59960  1.0000
  H   H2622     1.0  0.74995  0.60159  0.63754  1.0000
  H   H2623     1.0  0.87298  0.41919  0.54382  1.0000
  H   H2624     1.0  0.70592  0.36862  0.65436  1.0000
  H   H2625     1.0  0.98435  0.53150  0.50087  1.0000
  H   H2626     1.0  0.86913  0.60793  0.71525  1.0000
  H   H2627     1.0  0.84664  0.38573  0.52603  1.0000
  C   C2199     1.0  0.75265  0.59104  0.64796  1.0000
  C   C2200     1.0  0.51619  0.62246  0.55084  1.0000
  N   N143      1.0  0.87421  0.38778  0.53656  1.0000
  H   H2628     1.0  0.91160  0.36294  0.54693  1.0000
  C   C2201     1.0  0.49318  0.59989  0.58392  1.0000
  H   H2629     1.0  0.66224  0.42644  0.55036  1.0000
  C   C2202     1.0  0.91716  0.62367  0.65705  1.0000
  C   C2203     1.0  0.51976  0.43906  0.50318  1.0000
  C   C2204     1.0  0.86316  0.37701  0.55052  1.0000
  H   H2630     1.0  0.98723  0.31896  0.56417  1.0000
  H   H2631     1.0  0.66476  0.37990  0.52840  1.0000
  H   H2632     1.0  0.54943  0.37656  0.59720  1.0000
  H   H2633     1.0  0.75189  0.36811  0.62361  1.0000
  H   H2634     1.0  0.52045  0.35591  0.57368  1.0000
  C   C2205     1.0  0.55384  0.41148  0.51661  1.0000
  C   C2206     1.0  0.69347  0.63069  0.66816  1.0000
  N   N144      1.0  0.52619  0.35501  0.59532  1.0000
  H   H2635     1.0  0.96080  0.43436  0.48127  1.0000
  H   H2636     1.0  0.89436  0.41412  0.52876  1.0000
  N   N145      1.0  0.52503  0.41492  0.48411  1.0000
  H   H2637     1.0  0.54870  0.34554  0.57691  1.0000
  H   H2638     1.0  0.71099  0.59759  0.66771  1.0000
  C   C2207     1.0  0.89125  0.37097  0.52976  1.0000
  H   H2639     1.0  0.73497  0.36558  0.61087  1.0000
  C   C2208     1.0  0.89036  0.36553  0.51622  1.0000
  C   C2209     1.0  0.90978  0.35976  0.53660  1.0000
  H   H2640     1.0  0.50812  0.45049  0.57845  1.0000
  C   C2210     1.0  0.50635  0.37219  0.59847  1.0000
  H   H2641     1.0  0.94089  0.32868  0.58966  1.0000
  C   C2211     1.0  0.54225  0.43034  0.52222  1.0000
  C   C2212     1.0  0.77426  0.34058  0.67167  1.0000
  H   H2642     1.0  0.97925  0.58166  0.66586  1.0000
  C   C2213     1.0  0.77581  0.61488  0.65331  1.0000
  C   C2214     1.0  0.54482  0.35962  0.60175  1.0000
  C   C2215     1.0  0.52526  0.44414  0.51551  1.0000
  H   H2643     1.0  0.49674  0.48883  0.56582  1.0000
  H   H2644     1.0  0.49583  0.58287  0.58189  1.0000
  H   H2645     1.0  0.77457  0.62979  0.71643  1.0000
  H   H2646     1.0  0.88334  0.32599  0.62255  1.0000
  S   S608      1.0  0.57612  0.34111  0.47736  1.0000
  H   H2647     1.0  0.67734  0.62511  0.67235  1.0000
  C   C2216     1.0  0.91085  0.32931  0.60528  1.0000
  C   C2217     1.0  0.75732  0.59019  0.67230  1.0000
  S   S609      1.0  0.85057  0.62061  0.68523  1.0000
  C   C2218     1.0  0.73498  0.64539  0.65782  1.0000
  C   C2219     1.0  0.97994  0.59895  0.65993  1.0000
  H   H2648     1.0  0.76810  0.57848  0.64602  1.0000
  C   C2220     1.0  0.85624  0.39837  0.52790  1.0000
  C   C2221     1.0  0.90729  0.35025  0.50989  1.0000
  H   H2649     1.0  0.76278  0.34657  0.68057  1.0000
  H   H2650     1.0  0.74343  0.58008  0.67615  1.0000
  C   C2222     1.0  0.93303  0.32114  0.60005  1.0000
  H   H2651     1.0  0.68624  0.39473  0.50647  1.0000
  H   H2652     1.0  0.85468  0.36315  0.54923  1.0000
  N   N146      1.0  0.54906  0.56350  0.55660  1.0000
  C   C2223     1.0  0.57012  0.55399  0.56259  1.0000
  C   C2224     1.0  0.53090  0.55142  0.56521  1.0000
  C   C2225     1.0  0.55266  0.55882  0.54176  1.0000
  C   C2226     1.0  0.54236  0.58788  0.55669  1.0000
  C   C2227     1.0  0.55387  0.60051  0.56309  1.0000
  C   C2228     1.0  0.52330  0.59960  0.55057  1.0000
  C   C2229     1.0  0.54658  0.62338  0.56333  1.0000
  S   S610      1.0  0.98013  0.45443  0.55266  1.0000
  H   H2653     1.0  0.66575  0.44103  0.51489  1.0000
  H   H2654     1.0  0.56816  0.55559  0.57406  1.0000
  H   H2655     1.0  0.57486  0.53574  0.56210  1.0000
  H   H2656     1.0  0.58455  0.56230  0.55656  1.0000
  H   H2657     1.0  0.50655  0.45034  0.49832  1.0000
  H   H2658     1.0  0.53531  0.53296  0.56548  1.0000
  H   H2659     1.0  0.51484  0.55645  0.56080  1.0000
  H   H2660     1.0  0.56498  0.56888  0.53466  1.0000
  H   H2661     1.0  0.55899  0.54078  0.54121  1.0000
  H   H2662     1.0  0.53680  0.56249  0.53710  1.0000
  H   H2663     1.0  0.56822  0.59311  0.56831  1.0000
  H   H2664     1.0  0.51329  0.59106  0.54588  1.0000
  H   H2665     1.0  0.52747  0.55466  0.57641  1.0000
  H   H2666     1.0  0.85040  0.38922  0.55607  1.0000
  H   H2667     1.0  0.86336  0.40743  0.51738  1.0000
  H   H2668     1.0  0.90675  0.34711  0.49929  1.0000
  N   N147      1.0  0.75474  0.60498  0.65848  1.0000
  H   H2669     1.0  0.52292  0.59558  0.59384  1.0000
  N   N148      1.0  0.85394  0.46709  0.62382  1.0000
  C   C2230     1.0  0.84768  0.44911  0.63574  1.0000
  C   C2231     1.0  0.85344  0.48741  0.63018  1.0000
  C   C2232     1.0  0.83654  0.47234  0.61436  1.0000
  C   C2233     1.0  0.87609  0.45951  0.61555  1.0000
  C   C2234     1.0  0.87947  0.43973  0.60934  1.0000
  C   C2235     1.0  0.89469  0.47142  0.61322  1.0000
  C   C2236     1.0  0.90024  0.43213  0.60158  1.0000
  C   C2237     1.0  0.91533  0.46376  0.60528  1.0000
  C   C2238     1.0  0.91810  0.44416  0.59950  1.0000
  H   H2670     1.0  0.84605  0.43360  0.63199  1.0000
  H   H2671     1.0  0.86048  0.44450  0.64304  1.0000
  H   H2672     1.0  0.83106  0.45431  0.64222  1.0000
  H   H2673     1.0  0.86605  0.48464  0.63753  1.0000
  H   H2674     1.0  0.83675  0.49217  0.63665  1.0000
  H   H2675     1.0  0.85640  0.50220  0.62183  1.0000
  H   H2676     1.0  0.83521  0.45769  0.60957  1.0000
  H   H2677     1.0  0.81947  0.47770  0.62021  1.0000
  H   H2678     1.0  0.84046  0.48588  0.60528  1.0000
  H   H2679     1.0  0.86600  0.43003  0.61031  1.0000
  H   H2680     1.0  0.89375  0.48674  0.61734  1.0000
  H   H2681     1.0  0.90247  0.41687  0.59704  1.0000
  H   H2682     1.0  0.92930  0.47310  0.60355  1.0000
  H   H2683     1.0  0.93411  0.43832  0.59332  1.0000
  H   H2684     1.0  0.56405  0.31841  0.55955  1.0000
  H   H2685     1.0  0.87729  0.37343  0.50997  1.0000
  N   N149      1.0  0.68065  0.40944  0.52567  1.0000
  C   C2239     1.0  0.69542  0.40262  0.51268  1.0000
  C   C2240     1.0  0.67290  0.38898  0.53451  1.0000
  C   C2241     1.0  0.66082  0.42496  0.52100  1.0000
  C   C2242     1.0  0.69191  0.42034  0.53424  1.0000
  C   C2243     1.0  0.67972  0.42838  0.54674  1.0000
  C   C2244     1.0  0.71507  0.42292  0.53072  1.0000
  C   C2245     1.0  0.69002  0.43823  0.55521  1.0000
  C   C2246     1.0  0.71286  0.61510  0.66549  1.0000
  H   H2686     1.0  0.74295  0.43433  0.53660  1.0000
  H   H2687     1.0  0.70160  0.41728  0.50538  1.0000
  C   C2247     1.0  0.71274  0.44029  0.55158  1.0000
  C   C2248     1.0  0.98232  0.44262  0.50206  1.0000
  H   H2688     1.0  0.68709  0.37723  0.53883  1.0000
  H   H2689     1.0  0.49531  0.33535  0.58643  1.0000
  C   C2249     1.0  0.92547  0.33995  0.51677  1.0000
  S   S611      1.0  0.82972  0.58499  0.72156  1.0000
  C   C2250     1.0  0.98122  0.45257  0.51409  1.0000
  S   S612      1.0  0.52607  0.63818  0.60075  1.0000
  C   C2251     1.0  0.50524  0.62933  0.59338  1.0000
  H   H2690     1.0  0.54650  0.43432  0.53177  1.0000
  H   H2691     1.0  0.50107  0.63082  0.54657  1.0000
  C   C2252     1.0  0.92665  0.34459  0.53013  1.0000
  C   C2253     1.0  0.51317  0.47963  0.56255  1.0000
  C   C2254     1.0  0.59986  0.37259  0.48240  1.0000
  H   H2692     1.0  0.88019  0.64844  0.64491  1.0000
  H   H2693     1.0  0.93379  0.62651  0.63522  1.0000
  C   C2255     1.0  0.52966  0.31728  0.61180  1.0000
  H   H2694     1.0  0.56725  0.40092  0.52178  1.0000
  H   H2695     1.0  0.96376  0.64195  0.58107  1.0000
  H   H2696     1.0  0.82076  0.63903  0.71412  1.0000
  C   C2256     1.0  0.53815  0.39403  0.47940  1.0000
  H   H2697     1.0  0.49995  0.37035  0.61012  1.0000
  Fe  Fe306     1.0  0.98532  0.36912  0.56634  1.0000
  H   H2698     1.0  0.98691  0.57159  0.64221  1.0000
  C   C2257     1.0  0.97904  0.64921  0.57974  1.0000
  Fe  Fe307     1.0  0.58795  0.54558  0.94305  1.0000
  S   S613      1.0  0.56035  0.55645  0.92971  1.0000
  C   C2258     1.0  0.82122  0.50882  0.92526  1.0000
  Fe  Fe308     1.0  0.61544  0.51499  0.92296  1.0000
  S   S614      1.0  0.58977  0.52279  0.90806  1.0000
  S   S615      1.0  0.64694  0.48914  0.92011  1.0000
  Fe  Fe309     1.0  0.58791  0.55852  0.91096  1.0000
  S   S616      1.0  0.58733  0.58450  0.89104  1.0000
  Fe  Fe310     1.0  0.56391  0.52006  0.92783  1.0000
  S   S617      1.0  0.52996  0.50919  0.92911  1.0000
  S   S618      1.0  0.61553  0.55100  0.92432  1.0000
  S   S619      1.0  0.58952  0.50898  0.94272  1.0000
  C   C2259     1.0  0.91669  0.62963  0.89174  1.0000
  H   H2699     1.0  0.89220  0.52193  0.93617  1.0000
  H   H2700     1.0  0.51269  0.53563  0.89565  1.0000
  H   H2701     1.0  0.88804  0.35103  0.87323  1.0000
  H   H2702     1.0  0.79102  0.62029  0.73060  1.0000
  S   S620      1.0  0.83917  0.34619  0.82935  1.0000
  H   H2703     1.0  0.83652  0.53344  0.90953  1.0000
  H   H2704     1.0  0.77478  0.43481  0.84400  1.0000
  H   H2705     1.0  0.82233  0.52644  0.79596  1.0000
  S   S621      1.0  0.85647  0.59605  0.83115  1.0000
  Fe  Fe311     1.0  0.85220  0.62565  0.81360  1.0000
  Fe  Fe312     1.0  0.95291  0.57176  0.92970  1.0000
  S   S622      1.0  0.91930  0.56005  0.93620  1.0000
  S   S623      1.0  0.94826  0.60954  0.92472  1.0000
  Fe  Fe313     1.0  0.97764  0.52385  0.93376  1.0000
  S   S624      1.0  0.94568  0.50874  0.94010  1.0000
  Fe  Fe314     1.0  0.93317  0.53418  0.92207  1.0000
  S   S625      1.0  0.91113  0.53456  0.90541  1.0000
  Fe  Fe315     1.0  0.93457  0.53615  0.95358  1.0000
  S   S626      1.0  0.96630  0.54721  0.91455  1.0000
  S   S627      1.0  0.96710  0.54982  0.94826  1.0000
  Fe  Fe316     1.0  0.77392  0.48884  0.88515  1.0000
  S   S628      1.0  0.79096  0.45593  0.89560  1.0000
  S   S629      1.0  0.74466  0.51378  0.89379  1.0000
  Fe  Fe317     1.0  0.80850  0.48844  0.85802  1.0000
  S   S630      1.0  0.82862  0.45554  0.86612  1.0000
  S   S631      1.0  0.81359  0.50837  0.83580  1.0000
  Fe  Fe318     1.0  0.79488  0.44442  0.87430  1.0000
  S   S632      1.0  0.78555  0.41080  0.87275  1.0000
  Fe  Fe319     1.0  0.82355  0.46940  0.88673  1.0000
  S   S633      1.0  0.84977  0.46321  0.90152  1.0000
  S   S634      1.0  0.77505  0.47639  0.86466  1.0000
  S   S635      1.0  0.80630  0.50314  0.87785  1.0000
  H   H2706     1.0  0.53920  0.54615  0.97193  1.0000
  C   C2260     1.0  0.89504  0.51397  0.90416  1.0000
  C   C2261     1.0  0.88112  0.51847  0.89358  1.0000
  C   C2262     1.0  0.86731  0.50301  0.89254  1.0000
  C   C2263     1.0  0.86730  0.48289  0.90212  1.0000
  C   C2264     1.0  0.88148  0.47824  0.91257  1.0000
  C   C2265     1.0  0.89537  0.49365  0.91356  1.0000
  H   H2707     1.0  0.88089  0.53406  0.88618  1.0000
  H   H2708     1.0  0.85663  0.50671  0.88439  1.0000
  H   H2709     1.0  0.88170  0.46262  0.91993  1.0000
  H   H2710     1.0  0.90639  0.48975  0.92151  1.0000
  C   C2266     1.0  0.96736  0.62498  0.91273  1.0000
  C   C2267     1.0  0.87095  0.61958  0.73470  1.0000
  C   C2268     1.0  0.75989  0.61368  0.82903  1.0000
  C   C2269     1.0  0.84801  0.51830  0.94382  1.0000
  H   H2711     1.0  0.62773  0.48925  0.96515  1.0000
  C   C2270     1.0  0.84366  0.57227  0.83241  1.0000
  C   C2271     1.0  0.82995  0.57073  0.82266  1.0000
  C   C2272     1.0  0.82058  0.55110  0.82383  1.0000
  C   C2273     1.0  0.82483  0.53306  0.83476  1.0000
  C   C2274     1.0  0.83803  0.53487  0.84470  1.0000
  C   C2275     1.0  0.84748  0.55440  0.84350  1.0000
  H   H2712     1.0  0.82652  0.58464  0.81427  1.0000
  H   H2713     1.0  0.80994  0.54995  0.81630  1.0000
  H   H2714     1.0  0.84145  0.52100  0.85313  1.0000
  H   H2715     1.0  0.85802  0.55555  0.85109  1.0000
  C   C2276     1.0  0.52463  0.57026  0.90229  1.0000
  H   H2716     1.0  0.96014  0.59955  0.87268  1.0000
  N   N150      1.0  0.86339  0.52241  0.95290  1.0000
  H   H2717     1.0  0.65544  0.53946  0.94822  1.0000
  C   C2277     1.0  0.84132  0.61193  0.75447  1.0000
  C   C2278     1.0  0.83167  0.60129  0.74591  1.0000
  C   C2279     1.0  0.86116  0.62096  0.74893  1.0000
  H   H2718     1.0  0.81652  0.59405  0.75036  1.0000
  C   C2280     1.0  0.82413  0.36345  0.84180  1.0000
  C   C2281     1.0  0.83298  0.38238  0.84311  1.0000
  C   C2282     1.0  0.82131  0.39710  0.85246  1.0000
  C   C2283     1.0  0.80060  0.39304  0.86059  1.0000
  C   C2284     1.0  0.79175  0.37408  0.85929  1.0000
  C   C2285     1.0  0.80345  0.35931  0.84995  1.0000
  H   H2719     1.0  0.84895  0.38577  0.83684  1.0000
  H   H2720     1.0  0.82833  0.41158  0.85340  1.0000
  H   H2721     1.0  0.77575  0.37080  0.86558  1.0000
  H   H2722     1.0  0.79640  0.34485  0.84899  1.0000
  C   C2286     1.0  0.52686  0.48153  0.92824  1.0000
  C   C2287     1.0  0.83321  0.50206  0.94843  1.0000
  C   C2288     1.0  0.77933  0.62312  0.82791  1.0000
  C   C2289     1.0  0.52000  0.43752  0.92775  1.0000
  C   C2290     1.0  0.54115  0.44181  0.92929  1.0000
  C   C2291     1.0  0.54461  0.46376  0.92950  1.0000
  H   H2723     1.0  0.88633  0.62646  0.73033  1.0000
  C   C2292     1.0  0.82013  0.49742  0.93920  1.0000
  H   H2724     1.0  0.55495  0.42812  0.93031  1.0000
  H   H2725     1.0  0.56097  0.46689  0.93069  1.0000
  H   H2726     1.0  0.88981  0.62424  0.83559  1.0000
  H   H2727     1.0  0.77948  0.40512  0.83001  1.0000
  H   H2728     1.0  0.55224  0.54581  0.88553  1.0000
  C   C2293     1.0  0.67382  0.49639  0.91236  1.0000
  C   C2294     1.0  0.67770  0.51865  0.90943  1.0000
  C   C2295     1.0  0.69949  0.52369  0.90376  1.0000
  C   C2296     1.0  0.71751  0.50661  0.90076  1.0000
  C   C2297     1.0  0.71361  0.48437  0.90362  1.0000
  C   C2298     1.0  0.69189  0.47930  0.90949  1.0000
  H   H2729     1.0  0.66396  0.53198  0.91151  1.0000
  H   H2730     1.0  0.70234  0.54094  0.90159  1.0000
  H   H2731     1.0  0.72735  0.47106  0.90138  1.0000
  H   H2732     1.0  0.68906  0.46203  0.91172  1.0000
  C   C2299     1.0  0.56909  0.61018  0.89116  1.0000
  C   C2300     1.0  0.55875  0.61780  0.90390  1.0000
  H   H2733     1.0  0.92272  0.62717  0.90219  1.0000
  H   H2734     1.0  0.55431  0.57420  0.87731  1.0000
  H   H2735     1.0  0.96027  0.60847  0.88928  1.0000
  C   C2301     1.0  0.56464  0.62309  0.87812  1.0000
  H   H2736     1.0  0.56213  0.60795  0.91401  1.0000
  C   C2302     1.0  0.84876  0.52950  0.92951  1.0000
  H   H2737     1.0  0.93287  0.57507  0.88789  1.0000
  H   H2738     1.0  0.57243  0.61718  0.86824  1.0000
  C   C2303     1.0  0.95995  0.64756  0.90780  1.0000
  H   H2739     1.0  0.53163  0.55363  0.90794  1.0000
  H   H2740     1.0  0.49446  0.64638  0.88236  1.0000
  H   H2741     1.0  0.88840  0.49516  0.94662  1.0000
  C   C2304     1.0  0.88194  0.32750  0.85257  1.0000
  C   C2305     1.0  0.82366  0.35903  0.88589  1.0000
  H   H2742     1.0  0.68410  0.49654  0.94358  1.0000
  H   H2743     1.0  0.54800  0.36333  0.89644  1.0000
  H   H2744     1.0  0.84099  0.51730  0.97288  1.0000
  H   H2745     1.0  0.51616  0.36247  0.93217  1.0000
  H   H2746     1.0  0.88757  0.58900  0.85259  1.0000
  H   H2747     1.0  0.80985  0.62140  0.83629  1.0000
  C   C2306     1.0  0.49309  0.45245  0.96740  1.0000
  H   H2748     1.0  0.68961  0.48551  0.96127  1.0000
  H   H2749     1.0  0.52005  0.35643  0.90038  1.0000
  H   H2750     1.0  0.56455  0.33691  0.93126  1.0000
  H   H2751     1.0  0.83180  0.49232  0.95899  1.0000
  Fe  Fe320     1.0  0.86139  0.64268  0.78147  1.0000
  C   C2307     1.0  0.83654  0.37435  0.88782  1.0000
  C   C2308     1.0  0.85728  0.33728  0.87397  1.0000
  H   H2752     1.0  0.86962  0.38322  0.88481  1.0000
  H   H2753     1.0  0.95555  0.62885  0.87400  1.0000
  H   H2754     1.0  0.82841  0.38895  0.89264  1.0000
  H   H2755     1.0  0.89888  0.51532  0.95389  1.0000
  C   C2309     1.0  0.51099  0.59050  0.87996  1.0000
  N   N151      1.0  0.76511  0.56725  0.86104  1.0000
  C   C2310     1.0  0.78207  0.56014  0.87085  1.0000
  C   C2311     1.0  0.74304  0.57369  0.86983  1.0000
  C   C2312     1.0  0.76378  0.54755  0.85462  1.0000
  C   C2313     1.0  0.77050  0.58615  0.84962  1.0000
  C   C2314     1.0  0.75551  0.59544  0.83968  1.0000
  C   C2315     1.0  0.79040  0.59594  0.84799  1.0000
  H   H2756     1.0  0.78384  0.57411  0.87617  1.0000
  H   H2757     1.0  0.77716  0.54636  0.87954  1.0000
  H   H2758     1.0  0.79885  0.55365  0.86512  1.0000
  H   H2759     1.0  0.74300  0.58902  0.87439  1.0000
  H   H2760     1.0  0.73894  0.56011  0.87889  1.0000
  H   H2761     1.0  0.72884  0.57696  0.86367  1.0000
  H   H2762     1.0  0.76065  0.53269  0.86293  1.0000
  H   H2763     1.0  0.74998  0.55071  0.84814  1.0000
  H   H2764     1.0  0.77975  0.54264  0.84754  1.0000
  H   H2765     1.0  0.74026  0.58865  0.84009  1.0000
  H   H2766     1.0  0.80323  0.58972  0.85469  1.0000
  H   H2767     1.0  0.51049  0.61187  0.89593  1.0000
  C   C2316     1.0  0.91717  0.61430  0.87037  1.0000
  H   H2768     1.0  0.69030  0.51469  0.95443  1.0000
  H   H2769     1.0  0.53631  0.64425  0.91341  1.0000
  H   H2770     1.0  0.50902  0.57702  0.86096  1.0000
  C   C2317     1.0  0.79455  0.61422  0.83733  1.0000
  H   H2771     1.0  0.51031  0.31806  0.88573  1.0000
  C   C2318     1.0  0.90593  0.59791  0.86723  1.0000
  N   N152      1.0  0.88547  0.56279  0.78145  1.0000
  C   C2319     1.0  0.87652  0.58160  0.78948  1.0000
  C   C2320     1.0  0.89943  0.54523  0.79027  1.0000
  C   C2321     1.0  0.90060  0.57133  0.76843  1.0000
  C   C2322     1.0  0.86639  0.55367  0.77837  1.0000
  C   C2323     1.0  0.86138  0.55570  0.76433  1.0000
  C   C2324     1.0  0.85167  0.54294  0.78967  1.0000
  C   C2325     1.0  0.84294  0.54726  0.76187  1.0000
  C   C2326     1.0  0.83332  0.53450  0.78709  1.0000
  C   C2327     1.0  0.82895  0.53668  0.77321  1.0000
  H   H2772     1.0  0.89034  0.58911  0.79189  1.0000
  H   H2773     1.0  0.86579  0.59512  0.78326  1.0000
  H   H2774     1.0  0.86615  0.57632  0.79990  1.0000
  H   H2775     1.0  0.89035  0.54019  0.80118  1.0000
  H   H2776     1.0  0.91479  0.55118  0.79190  1.0000
  H   H2777     1.0  0.90493  0.52995  0.78516  1.0000
  H   H2778     1.0  0.89167  0.58580  0.76180  1.0000
  H   H2779     1.0  0.91495  0.57778  0.77109  1.0000
  H   H2780     1.0  0.90778  0.55804  0.76178  1.0000
  H   H2781     1.0  0.87115  0.56412  0.75505  1.0000
  H   H2782     1.0  0.85407  0.54124  0.80064  1.0000
  H   H2783     1.0  0.83928  0.54932  0.75107  1.0000
  H   H2784     1.0  0.81456  0.53039  0.77124  1.0000
  H   H2785     1.0  0.79555  0.46695  0.83568  1.0000
  H   H2786     1.0  0.63720  0.54655  0.97016  1.0000
  S   S636      1.0  0.87498  0.63321  0.75942  1.0000
  H   H2787     1.0  0.82681  0.44006  0.79801  1.0000
  S   S637      1.0  0.88329  0.63347  0.79858  1.0000
  H   H2788     1.0  0.50479  0.34168  0.92628  1.0000
  H   H2789     1.0  0.86047  0.54113  0.92493  1.0000
  H   H2790     1.0  0.96910  0.35451  0.88549  1.0000
  H   H2791     1.0  0.80944  0.48453  0.94274  1.0000
  H   H2792     1.0  0.81010  0.42480  0.78326  1.0000
  H   H2793     1.0  0.93203  0.58819  0.90297  1.0000
  H   H2794     1.0  0.52727  0.37783  0.90828  1.0000
  C   C2328     1.0  0.49743  0.63099  0.87789  1.0000
  C   C2329     1.0  0.89622  0.60158  0.85480  1.0000
  C   C2330     1.0  0.50235  0.45536  0.92634  1.0000
  C   C2331     1.0  0.83372  0.34077  0.87903  1.0000
  H   H2795     1.0  0.78267  0.63734  0.81969  1.0000
  S   S638      1.0  0.58540  0.56150  0.96265  1.0000
  N   N153      1.0  0.53958  0.34386  0.91737  1.0000
  S   S639      1.0  0.51612  0.40968  0.92790  1.0000
  H   H2796     1.0  0.55522  0.36629  0.92570  1.0000
  C   C2332     1.0  0.55922  0.34955  0.92216  1.0000
  C   C2333     1.0  0.53349  0.36102  0.90510  1.0000
  C   C2334     1.0  0.49667  0.61193  0.85843  1.0000
  H   H2797     1.0  0.86175  0.49309  0.96918  1.0000
  H   H2798     1.0  0.64691  0.48203  0.94970  1.0000
  H   H2799     1.0  0.62874  0.52903  0.95305  1.0000
  H   H2800     1.0  0.74817  0.62062  0.82160  1.0000
  C   C2335     1.0  0.87003  0.35279  0.87659  1.0000
  N   N154      1.0  0.52101  0.56890  0.88772  1.0000
  H   H2801     1.0  0.84440  0.55461  0.95620  1.0000
  H   H2802     1.0  0.54172  0.55685  0.86913  1.0000
  C   C2336     1.0  0.52032  0.34539  0.92924  1.0000
  H   H2803     1.0  0.57400  0.35032  0.91353  1.0000
  C   C2337     1.0  0.89746  0.62144  0.84518  1.0000
  H   H2804     1.0  0.53701  0.58159  0.90197  1.0000
  H   H2805     1.0  0.95592  0.32018  0.88927  1.0000
  C   C2338     1.0  0.91826  0.63427  0.86026  1.0000
  H   H2806     1.0  0.65377  0.47074  0.96691  1.0000
  C   C2339     1.0  0.64589  0.48614  0.96056  1.0000
  S   S640      1.0  0.83106  0.63191  0.79622  1.0000
  C   C2340     1.0  0.50661  0.61086  0.88564  1.0000
  H   H2807     1.0  0.82252  0.33006  0.87749  1.0000
  H   H2808     1.0  0.90435  0.58212  0.87419  1.0000
  C   C2341     1.0  0.85862  0.51168  0.96805  1.0000
  H   H2809     1.0  0.87273  0.55016  0.96013  1.0000
  C   C2342     1.0  0.54319  0.56106  0.87956  1.0000
  C   C2343     1.0  0.64719  0.52430  0.94972  1.0000
  H   H2810     1.0  0.53842  0.51759  0.95728  1.0000
  N   N155      1.0  0.65695  0.50589  0.96016  1.0000
  C   C2344     1.0  0.95182  0.61212  0.87967  1.0000
  N   N156      1.0  0.92729  0.61132  0.88352  1.0000
  C   C2345     1.0  0.68129  0.50040  0.95468  1.0000
  H   H2811     1.0  0.89804  0.63052  0.89399  1.0000
  C   C2346     1.0  0.88673  0.51332  0.94715  1.0000
  H   H2812     1.0  0.82145  0.46933  0.81290  1.0000
  H   H2813     1.0  0.90637  0.58809  0.89678  1.0000
  C   C2347     1.0  0.50581  0.59170  0.86608  1.0000
  N   N157      1.0  0.80721  0.40190  0.80327  1.0000
  C   C2348     1.0  0.80012  0.41163  0.78924  1.0000
  C   C2349     1.0  0.83152  0.39244  0.80094  1.0000
  C   C2350     1.0  0.79441  0.38307  0.80956  1.0000
  C   C2351     1.0  0.80355  0.41962  0.81229  1.0000
  C   C2352     1.0  0.81518  0.43838  0.80790  1.0000
  C   C2353     1.0  0.78872  0.41886  0.82554  1.0000
  C   C2354     1.0  0.81225  0.45523  0.81628  1.0000
  C   C2355     1.0  0.78584  0.43589  0.83378  1.0000
  C   C2356     1.0  0.79761  0.45396  0.82918  1.0000
  C   C2357     1.0  0.85972  0.37116  0.88329  1.0000
  H   H2814     1.0  0.80225  0.39864  0.78227  1.0000
  H   H2815     1.0  0.78207  0.41942  0.79060  1.0000
  H   H2816     1.0  0.83477  0.37715  0.79580  1.0000
  H   H2817     1.0  0.83811  0.38755  0.81125  1.0000
  H   H2818     1.0  0.84203  0.40447  0.79404  1.0000
  H   H2819     1.0  0.77591  0.38881  0.81108  1.0000
  H   H2820     1.0  0.79784  0.36980  0.80269  1.0000
  H   H2821     1.0  0.79924  0.37465  0.82001  1.0000
  H   H2822     1.0  0.89749  0.33308  0.85407  1.0000
  C   C2358     1.0  0.54416  0.63835  0.90353  1.0000
  H   H2823     1.0  0.83357  0.61289  0.76540  1.0000
  C   C2359     1.0  0.92445  0.58974  0.89312  1.0000
  H   H2824     1.0  0.86823  0.55595  0.94216  1.0000
  C   C2360     1.0  0.83529  0.52502  0.92050  1.0000
  C   C2361     1.0  0.54545  0.32143  0.91298  1.0000
  H   H2825     1.0  0.64948  0.51935  0.93898  1.0000
  H   H2826     1.0  0.57174  0.33083  0.89533  1.0000
  C   C2362     1.0  0.50574  0.47725  0.92667  1.0000
  C   C2363     1.0  0.84165  0.59967  0.73172  1.0000
  C   C2364     1.0  0.56249  0.31767  0.90114  1.0000
  C   C2365     1.0  0.86202  0.54681  0.95281  1.0000
  H   H2827     1.0  0.81162  0.50466  0.91801  1.0000
  C   C2366     1.0  0.54984  0.64344  0.87777  1.0000
  C   C2367     1.0  0.98707  0.35040  0.88527  1.0000
  H   H2828     1.0  0.76299  0.63530  0.73398  1.0000
  H   H2829     1.0  0.80554  0.36192  0.88921  1.0000
  H   H2830     1.0  0.49416  0.45987  0.95590  1.0000
  H   H2831     1.0  0.53287  0.47924  0.96876  1.0000
  H   H2832     1.0  0.52408  0.33376  0.93910  1.0000
  N   N158      1.0  0.86851  0.31858  0.86626  1.0000
  H   H2833     1.0  0.49290  0.61253  0.84781  1.0000
  H   H2834     1.0  0.87189  0.34206  0.84671  1.0000
  H   H2835     1.0  0.95946  0.33372  0.87073  1.0000
  C   C2368     1.0  0.98936  0.61541  0.90788  1.0000
  H   H2836     1.0  0.50862  0.57608  0.90906  1.0000
  H   H2837     1.0  0.49343  0.41083  0.96277  1.0000
  C   C2369     1.0  0.53582  0.51336  0.96883  1.0000
  H   H2838     1.0  0.59445  0.51359  0.97297  1.0000
  C   C2370     1.0  0.90851  0.63771  0.84788  1.0000
  H   H2839     1.0  0.50429  0.54777  0.87883  1.0000
  H   H2840     1.0  0.92659  0.64747  0.86186  1.0000
  C   C2371     1.0  0.50607  0.55179  0.88926  1.0000
  H   H2841     1.0  0.98047  0.45505  0.97256  1.0000
  H   H2842     1.0  0.92053  0.64631  0.88607  1.0000
  H   H2843     1.0  0.50956  0.44178  0.96881  1.0000
  C   C2372     1.0  0.86118  0.60915  0.72610  1.0000
  H   H2844     1.0  0.49196  0.49095  0.92563  1.0000
  H   H2845     1.0  0.98800  0.43467  0.95417  1.0000
  C   C2373     1.0  0.77876  0.63441  0.72613  1.0000
  C   C2374     1.0  0.49251  0.63154  0.86431  1.0000
  H   H2846     1.0  0.98779  0.38172  0.89209  1.0000
  C   C2375     1.0  0.96428  0.31821  0.87822  1.0000
  H   H2847     1.0  0.84044  0.31648  0.85623  1.0000
  H   H2848     1.0  0.49115  0.46675  0.97323  1.0000
  C   C2376     1.0  0.70240  0.70461  0.21931  1.0000
  H   H2849     1.0  0.72318  0.96949  0.12101  1.0000
  S   S641      1.0  0.98549  0.67960  0.12853  1.0000
  S   S642      1.0  0.61073  0.67286  0.17932  1.0000
  H   H2850     1.0  0.68444  0.95661  0.15547  1.0000
  C   C2377     1.0  0.50915  0.80610  0.08356  1.0000
  S   S643      1.0  0.66235  0.67625  0.19684  1.0000
  C   C2378     1.0  0.52696  0.91501  0.97839  1.0000
  S   S644      1.0  0.53165  0.69927  0.10124  1.0000
  C   C2379     1.0  0.96399  0.81281  0.10202  1.0000
  S   S645      1.0  0.50825  0.73874  0.12033  1.0000
  Fe  Fe321     1.0  0.51045  0.67660  0.11655  1.0000
  Fe  Fe322     1.0  0.50053  0.72517  0.10219  1.0000
  Fe  Fe323     1.0  0.53746  0.71075  0.12077  1.0000
  H   H2851     1.0  0.64876  0.77645  0.15523  1.0000
  C   C2380     1.0  0.90464  0.66696  0.08800  1.0000
  H   H2852     1.0  0.87206  0.96600  0.10331  1.0000
  H   H2853     1.0  0.55843  0.70800  0.07138  1.0000
  C   C2381     1.0  0.84961  0.92311  0.12605  1.0000
  Fe  Fe324     1.0  0.80322  0.77670  0.17164  1.0000
  S   S646      1.0  0.77861  0.80482  0.17994  1.0000
  S   S647      1.0  0.79598  0.74605  0.16452  1.0000
  Fe  Fe325     1.0  0.84385  0.79584  0.17578  1.0000
  S   S648      1.0  0.82263  0.82569  0.18452  1.0000
  S   S649      1.0  0.88179  0.78985  0.17405  1.0000
  Fe  Fe326     1.0  0.80052  0.80070  0.19688  1.0000
  S   S650      1.0  0.69747  0.72024  0.17932  1.0000
  Fe  Fe327     1.0  0.80264  0.82747  0.16685  1.0000
  S   S651      1.0  0.79088  0.85740  0.15078  1.0000
  S   S652      1.0  0.82336  0.77086  0.18949  1.0000
  S   S653      1.0  0.82573  0.79946  0.15719  1.0000
  S   S654      1.0  0.57337  0.71428  0.12135  1.0000
  C   C2382     1.0  0.97523  0.78992  0.12344  1.0000
  C   C2383     1.0  0.93648  0.80806  0.12355  1.0000
  Fe  Fe328     1.0  0.69024  0.68548  0.17923  1.0000
  C   C2384     1.0  0.73934  0.89942  0.16773  1.0000
  H   H2854     1.0  0.56395  0.76639  0.13546  1.0000
  S   S655      1.0  0.79188  0.95984  0.15304  1.0000
  C   C2385     1.0  0.51356  0.89926  0.97755  1.0000
  C   C2386     1.0  0.85085  0.91449  0.14067  1.0000
  S   S656      1.0  0.92958  0.72291  0.13124  1.0000
  C   C2387     1.0  0.54157  0.80981  0.04907  1.0000
  C   C2388     1.0  0.60701  0.69803  0.13756  1.0000
  C   C2389     1.0  0.58870  0.73563  0.06157  1.0000
  H   H2855     1.0  0.71967  0.96792  0.15910  1.0000
  H   H2856     1.0  0.90731  0.68363  0.13078  1.0000
  H   H2857     1.0  0.49617  0.94972  0.08964  1.0000
  H   H2858     1.0  0.88489  0.83676  0.14794  1.0000
  S   S657      1.0  0.71219  0.65212  0.18288  1.0000
  C   C2390     1.0  0.74147  0.70910  0.21738  1.0000
  H   H2859     1.0  0.74513  0.96310  0.14640  1.0000
  C   C2391     1.0  0.79159  0.88569  0.15161  1.0000
  C   C2392     1.0  0.79730  0.89212  0.16344  1.0000
  C   C2393     1.0  0.79733  0.91493  0.16372  1.0000
  C   C2394     1.0  0.79171  0.93141  0.15220  1.0000
  C   C2395     1.0  0.78606  0.92495  0.14037  1.0000
  C   C2396     1.0  0.78595  0.90219  0.14010  1.0000
  H   H2860     1.0  0.80158  0.87955  0.17237  1.0000
  H   H2861     1.0  0.80169  0.91980  0.17292  1.0000
  H   H2862     1.0  0.78173  0.93741  0.13144  1.0000
  H   H2863     1.0  0.78145  0.89729  0.13096  1.0000
  C   C2397     1.0  0.89535  0.77023  0.16286  1.0000
  C   C2398     1.0  0.91898  0.76601  0.15987  1.0000
  C   C2399     1.0  0.92985  0.75115  0.15040  1.0000
  C   C2400     1.0  0.91707  0.74060  0.14384  1.0000
  C   C2401     1.0  0.89351  0.74466  0.14697  1.0000
  C   C2402     1.0  0.88269  0.75932  0.15648  1.0000
  H   H2864     1.0  0.92885  0.77442  0.16478  1.0000
  H   H2865     1.0  0.94804  0.74792  0.14815  1.0000
  H   H2866     1.0  0.88350  0.73649  0.14200  1.0000
  H   H2867     1.0  0.86450  0.76224  0.15881  1.0000
  H   H2868     1.0  0.52017  0.66100  0.08635  1.0000
  C   C2403     1.0  0.51857  0.94457  0.06007  1.0000
  C   C2404     1.0  0.54042  0.94703  0.06153  1.0000
  H   H2869     1.0  0.74772  0.66686  0.20949  1.0000
  N   N159      1.0  0.85093  0.94687  0.11979  1.0000
  H   H2870     1.0  0.59010  0.73703  0.04979  1.0000
  H   H2871     1.0  0.62111  0.94380  0.99402  1.0000
  H   H2872     1.0  0.55251  0.93230  0.06416  1.0000
  S   S658      1.0  0.51799  0.68653  0.13618  1.0000
  H   H2873     1.0  0.97005  0.77862  0.13351  1.0000
  H   H2874     1.0  0.51084  0.94172  0.03064  1.0000
  C   C2405     1.0  0.77086  0.74149  0.21284  1.0000
  C   C2406     1.0  0.49479  0.95670  0.01231  1.0000
  H   H2875     1.0  0.97866  0.80469  0.09506  1.0000
  H   H2876     1.0  0.51390  0.92804  0.06162  1.0000
  C   C2407     1.0  0.50556  0.78368  0.08696  1.0000
  C   C2408     1.0  0.72506  0.72680  0.17537  1.0000
  C   C2409     1.0  0.74319  0.71218  0.16950  1.0000
  C   C2410     1.0  0.76486  0.71832  0.16614  1.0000
  C   C2411     1.0  0.76854  0.73897  0.16876  1.0000
  C   C2412     1.0  0.75044  0.75338  0.17483  1.0000
  C   C2413     1.0  0.72876  0.74735  0.17806  1.0000
  H   H2877     1.0  0.74048  0.69633  0.16734  1.0000
  H   H2878     1.0  0.77883  0.70709  0.16147  1.0000
  H   H2879     1.0  0.75311  0.76924  0.17696  1.0000
  H   H2880     1.0  0.71482  0.75869  0.18265  1.0000
  C   C2414     1.0  0.60081  0.68364  0.16298  1.0000
  C   C2415     1.0  0.57752  0.68776  0.16279  1.0000
  C   C2416     1.0  0.56900  0.69690  0.15005  1.0000
  C   C2417     1.0  0.58371  0.70224  0.13741  1.0000
  C   C2418     1.0  0.55971  0.80537  0.05653  1.0000
  C   C2419     1.0  0.61554  0.68856  0.15028  1.0000
  H   H2881     1.0  0.84366  0.86047  0.14203  1.0000
  H   H2882     1.0  0.55101  0.70033  0.15012  1.0000
  C   C2420     1.0  0.57459  0.65257  0.12616  1.0000
  H   H2883     1.0  0.69023  0.69282  0.22010  1.0000
  H   H2884     1.0  0.56766  0.81913  0.05776  1.0000
  N   N160      1.0  0.63821  0.74377  0.16100  1.0000
  S   S659      1.0  0.78515  0.79618  0.22023  1.0000
  C   C2421     1.0  0.63576  0.72698  0.17421  1.0000
  C   C2422     1.0  0.65680  0.73390  0.15072  1.0000
  C   C2423     1.0  0.61741  0.75036  0.15445  1.0000
  C   C2424     1.0  0.59701  0.74183  0.16054  1.0000
  C   C2425     1.0  0.61727  0.76559  0.14143  1.0000
  C   C2426     1.0  0.57793  0.74794  0.15380  1.0000
  C   C2427     1.0  0.91534  0.80014  0.12668  1.0000
  C   C2428     1.0  0.57858  0.76240  0.14084  1.0000
  S   S660      1.0  0.57359  0.97058  0.06297  1.0000
  H   H2885     1.0  0.74922  0.89539  0.17636  1.0000
  C   C2429     1.0  0.55181  0.72517  0.06631  1.0000
  H   H2886     1.0  0.62252  0.73340  0.18266  1.0000
  H   H2887     1.0  0.65156  0.72234  0.17891  1.0000
  H   H2888     1.0  0.63171  0.71119  0.17204  1.0000
  H   H2889     1.0  0.66174  0.74620  0.14117  1.0000
  H   H2890     1.0  0.67238  0.72745  0.15558  1.0000
  H   H2891     1.0  0.65193  0.71969  0.14696  1.0000
  H   H2892     1.0  0.59542  0.72991  0.17030  1.0000
  H   H2893     1.0  0.63209  0.77287  0.13623  1.0000
  H   H2894     1.0  0.56273  0.74080  0.15846  1.0000
  S   S661      1.0  0.50313  0.84902  0.06939  1.0000
  C   C2430     1.0  0.95248  0.77673  0.11009  1.0000
  H   H2895     1.0  0.85242  0.92485  0.14817  1.0000
  C   C2431     1.0  0.75985  0.70968  0.20593  1.0000
  H   H2896     1.0  0.59538  0.71802  0.06584  1.0000
  C   C2432     1.0  0.64480  0.76370  0.16474  1.0000
  H   H2897     1.0  0.49582  0.95856  0.97553  1.0000
  H   H2898     1.0  0.70158  0.71632  0.20904  1.0000
  H   H2899     1.0  0.59859  0.78260  0.12460  1.0000
  C   C2433     1.0  0.89899  0.82927  0.14089  1.0000
  H   H2900     1.0  0.53386  0.72877  0.07134  1.0000
  C   C2434     1.0  0.73305  0.88217  0.16261  1.0000
  H   H2901     1.0  0.93912  0.78079  0.10321  1.0000
  H   H2902     1.0  0.66022  0.75909  0.16996  1.0000
  H   H2903     1.0  0.63349  0.68506  0.15022  1.0000
  H   H2904     1.0  0.88170  0.65993  0.11605  1.0000
  H   H2905     1.0  0.93176  0.68470  0.11755  1.0000
  H   H2906     1.0  0.56911  0.66035  0.13595  1.0000
  C   C2435     1.0  0.49758  0.82125  0.07362  1.0000
  C   C2436     1.0  0.93669  0.66922  0.06910  1.0000
  H   H2907     1.0  0.57049  0.72393  0.08899  1.0000
  H   H2908     1.0  0.58142  0.78088  0.06830  1.0000
  C   C2437     1.0  0.56428  0.74110  0.08371  1.0000
  H   H2909     1.0  0.84949  0.88593  0.15747  1.0000
  S   S662      1.0  0.67461  0.67638  0.16225  1.0000
  H   H2910     1.0  0.54677  0.74596  0.08905  1.0000
  N   N161      1.0  0.71661  0.95061  0.14222  1.0000
  H   H2911     1.0  0.91121  0.72007  0.10581  1.0000
  H   H2912     1.0  0.88117  0.80402  0.13780  1.0000
  C   C2438     1.0  0.94487  0.68330  0.07596  1.0000
  C   C2439     1.0  0.72190  0.92733  0.14961  1.0000
  C   C2440     1.0  0.71504  0.90938  0.14500  1.0000
  H   H2913     1.0  0.83925  0.96119  0.13910  1.0000
  C   C2441     1.0  0.72078  0.88714  0.15133  1.0000
  H   H2914     1.0  0.96956  0.82753  0.10468  1.0000
  C   C2442     1.0  0.50656  0.98027  0.09208  1.0000
  H   H2915     1.0  0.94773  0.76370  0.11929  1.0000
  H   H2916     1.0  0.52834  0.75793  0.05296  1.0000
  H   H2917     1.0  0.84541  0.91316  0.10628  1.0000
  H   H2918     1.0  0.78181  0.75412  0.21091  1.0000
  H   H2919     1.0  0.64304  0.96556  0.97578  1.0000
  H   H2920     1.0  0.70553  0.91237  0.13628  1.0000
  C   C2443     1.0  0.54653  0.96839  0.05993  1.0000
  H   H2921     1.0  0.87044  0.68385  0.12452  1.0000
  H   H2922     1.0  0.92088  0.85202  0.14241  1.0000
  H   H2923     1.0  0.52103  0.81171  0.08861  1.0000
  H   H2924     1.0  0.55233  0.72436  0.05484  1.0000
  N   N162      1.0  0.90070  0.68744  0.10918  1.0000
  C   C2444     1.0  0.93779  0.82736  0.12925  1.0000
  H   H2925     1.0  0.78811  0.72593  0.19494  1.0000
  C   C2445     1.0  0.91524  0.67854  0.12029  1.0000
  C   C2446     1.0  0.91254  0.68128  0.09531  1.0000
  H   H2926     1.0  0.71679  0.94244  0.12131  1.0000
  H   H2927     1.0  0.98506  0.90763  0.01894  1.0000
  C   C2447     1.0  0.61163  0.95561  0.00069  1.0000
  H   H2928     1.0  0.68736  0.97527  0.13867  1.0000
  H   H2929     1.0  0.72942  0.68614  0.19839  1.0000
  C   C2448     1.0  0.89693  0.81076  0.13516  1.0000
  H   H2930     1.0  0.71853  0.66473  0.21168  1.0000
  H   H2931     1.0  0.74377  0.94518  0.12498  1.0000
  H   H2932     1.0  0.97146  0.91525  0.99823  1.0000
  C   C2449     1.0  0.73068  0.67698  0.20938  1.0000
  C   C2450     1.0  0.73403  0.92169  0.16134  1.0000
  H   H2933     1.0  0.88555  0.71968  0.09938  1.0000
  H   H2934     1.0  0.91267  0.78538  0.12309  1.0000
  C   C2451     1.0  0.82995  0.95716  0.11401  1.0000
  H   H2935     1.0  0.96096  0.68887  0.07157  1.0000
  H   H2936     1.0  0.82710  0.94897  0.10534  1.0000
  H   H2937     1.0  0.86961  0.95436  0.13476  1.0000
  H   H2938     1.0  0.63110  0.77185  0.17226  1.0000
  H   H2939     1.0  0.60021  0.74627  0.06365  1.0000
  H   H2940     1.0  0.61850  0.70197  0.12781  1.0000
  H   H2941     1.0  0.97941  0.91442  0.97966  1.0000
  C   C2452     1.0  0.60524  0.94704  0.01509  1.0000
  H   H2942     1.0  0.86714  0.68484  0.10637  1.0000
  C   C2453     1.0  0.59816  0.77136  0.13471  1.0000
  C   C2454     1.0  0.52754  0.96819  0.01793  1.0000
  H   H2943     1.0  0.74025  0.93402  0.16557  1.0000
  H   H2944     1.0  0.51628  0.79602  0.04230  1.0000
  H   H2945     1.0  0.57489  0.75224  0.08620  1.0000
  Fe  Fe329     1.0  0.64820  0.66478  0.18008  1.0000
  H   H2946     1.0  0.76322  0.69835  0.19826  1.0000
  C   C2455     1.0  0.53802  0.77040  0.05399  1.0000
  H   H2947     1.0  0.88622  0.71744  0.11819  1.0000
  C   C2456     1.0  0.93301  0.68931  0.08884  1.0000
  C   C2457     1.0  0.55660  0.76525  0.06163  1.0000
  H   H2948     1.0  0.58818  0.66145  0.11944  1.0000
  Fe  Fe330     1.0  0.96720  0.71472  0.12458  1.0000
  N   N163      1.0  0.72565  0.69261  0.21995  1.0000
  H   H2949     1.0  0.85378  0.78694  0.21449  1.0000
  H   H2950     1.0  0.86832  0.94019  0.09901  1.0000
  C   C2458     1.0  0.56727  0.78344  0.06264  1.0000
  C   C2459     1.0  0.91932  0.83768  0.13785  1.0000
  H   H2951     1.0  0.90782  0.74903  0.21341  1.0000
  H   H2952     1.0  0.88969  0.65937  0.09221  1.0000
  N   N164      1.0  0.56503  0.74216  0.06816  1.0000
  H   H2953     1.0  0.91880  0.65996  0.12189  1.0000
  C   C2460     1.0  0.53083  0.79237  0.04776  1.0000
  C   C2461     1.0  0.84923  0.89201  0.14621  1.0000
  S   S663      1.0  0.97818  0.71835  0.10092  1.0000
  H   H2954     1.0  0.95020  0.81909  0.09554  1.0000
  H   H2955     1.0  0.53981  0.96651  0.02500  1.0000
  H   H2956     1.0  0.56601  0.68401  0.17257  1.0000
  H   H2957     1.0  0.53107  0.91634  0.98862  1.0000
  C   C2462     1.0  0.86824  0.77369  0.21197  1.0000
  H   H2958     1.0  0.88764  0.73043  0.21507  1.0000
  H   H2959     1.0  0.49868  0.85719  0.98202  1.0000
  C   C2463     1.0  0.49399  0.97384  0.00021  1.0000
  H   H2960     1.0  0.73816  0.86488  0.16720  1.0000
  H   H2961     1.0  0.84177  0.87426  0.11654  1.0000
  C   C2464     1.0  0.84670  0.90783  0.11745  1.0000
  H   H2962     1.0  0.71607  0.87360  0.14735  1.0000
  C   C2465     1.0  0.77435  0.72557  0.20385  1.0000
  C   C2466     1.0  0.98523  0.91815  0.98914  1.0000
  C   C2467     1.0  0.59301  0.96110  0.02449  1.0000
  H   H2963     1.0  0.58834  0.95447  0.03568  1.0000
  C   C2468     1.0  0.89568  0.71220  0.10804  1.0000
  C   C2469     1.0  0.72642  0.96710  0.14767  1.0000
  H   H2964     1.0  0.88209  0.78239  0.20540  1.0000
  H   H2965     1.0  0.94040  0.69972  0.09393  1.0000
  C   C2470     1.0  0.87904  0.67860  0.11418  1.0000
  C   C2471     1.0  0.69185  0.95763  0.14398  1.0000
  N   N165      1.0  0.95656  0.79697  0.11492  1.0000
  C   C2472     1.0  0.85378  0.96070  0.13020  1.0000
  H   H2966     1.0  0.60995  0.92942  0.01905  1.0000
  C   C2473     1.0  0.84478  0.88547  0.12316  1.0000
  C   C2474     1.0  0.72549  0.95192  0.12675  1.0000
  H   H2967     1.0  0.88633  0.94002  0.11178  1.0000
  C   C2475     1.0  0.51115  0.95422  0.02110  1.0000
  H   H2968     1.0  0.91081  0.64942  0.07000  1.0000
  H   H2969     1.0  0.53533  0.82692  0.04470  1.0000
  H   H2970     1.0  0.68330  0.94708  0.13920  1.0000
  C   C2476     1.0  0.87025  0.94826  0.10799  1.0000
  H   H2971     1.0  0.81505  0.95631  0.12256  1.0000
  H   H2972     1.0  0.96780  0.76877  0.10364  1.0000
  H   H2973     1.0  0.95326  0.83438  0.12729  1.0000
  C   C2477     1.0  0.60591  0.97875  0.99533  1.0000
  H   H2974     1.0  0.51455  0.77222  0.09463  1.0000
  H   H2975     1.0  0.86362  0.76363  0.20482  1.0000
  C   C2478     1.0  0.91661  0.66114  0.07508  1.0000
  H   H2976     1.0  0.82071  0.82280  0.21797  1.0000
  C   C2479     1.0  0.84600  0.87760  0.13751  1.0000
  H   H2977     1.0  0.50781  0.88899  0.98746  1.0000
  C   C2480     1.0  0.89369  0.74178  0.22076  1.0000
  H   H2978     1.0  0.55975  0.65639  0.12045  1.0000
  H   H2979     1.0  0.83155  0.75768  0.22003  1.0000
  C   C2481     1.0  0.50261  0.96352  0.05715  1.0000
  H   H2980     1.0  0.94632  0.66393  0.05938  1.0000
  H   H2981     1.0  0.98101  0.80430  0.12636  1.0000
  H   H2982     1.0  0.98672  0.93628  0.98717  1.0000
  H   H2983     1.0  0.85462  0.97846  0.12517  1.0000
  H   H2984     1.0  0.52394  0.97233  0.09091  1.0000
  H   H2985     1.0  0.83031  0.97508  0.10931  1.0000
  C   C2482     1.0  0.49090  0.77610  0.08009  1.0000
  C   C2483     1.0  0.75310  0.74135  0.22417  1.0000
  H   H2986     1.0  0.99038  0.78081  0.11742  1.0000
  H   H2987     1.0  0.96076  0.64942  0.11185  1.0000
  H   H2988     1.0  0.59673  0.74272  0.38192  1.0000
  H   H2989     1.0  0.62187  0.81946  0.45335  1.0000
  H   H2990     1.0  0.89240  0.93933  0.42470  1.0000
  Fe  Fe331     1.0  0.98514  0.89406  0.42745  1.0000
  H   H2991     1.0  0.98705  0.94543  0.42338  1.0000
  H   H2992     1.0  0.69053  0.88709  0.36256  1.0000
  H   H2993     1.0  0.85688  0.92349  0.42959  1.0000
  S   S664      1.0  0.94410  0.75164  0.36374  1.0000
  C   C2484     1.0  0.89507  0.69403  0.34451  1.0000
  H   H2994     1.0  0.98765  0.84388  0.38385  1.0000
  C   C2485     1.0  0.67217  0.65440  0.23666  1.0000
  Fe  Fe332     1.0  0.82643  0.73870  0.30084  1.0000
  S   S665      1.0  0.85897  0.74631  0.28732  1.0000
  S   S666      1.0  0.81174  0.71148  0.29459  1.0000
  Fe  Fe333     1.0  0.82380  0.77717  0.31720  1.0000
  S   S667      1.0  0.85606  0.78779  0.30485  1.0000
  S   S668      1.0  0.80160  0.79465  0.33458  1.0000
  Fe  Fe334     1.0  0.84300  0.78217  0.28570  1.0000
  S   S669      1.0  0.84577  0.80573  0.26465  1.0000
  Fe  Fe335     1.0  0.86904  0.75087  0.30765  1.0000
  S   S670      1.0  0.90432  0.73504  0.31121  1.0000
  S   S671      1.0  0.80979  0.77435  0.29786  1.0000
  S   S672      1.0  0.83767  0.74031  0.32144  1.0000
  Fe  Fe336     1.0  0.96030  0.85370  0.43268  1.0000
  S   S673      1.0  0.97379  0.87547  0.41274  1.0000
  H   H2995     1.0  0.62432  0.67412  0.32757  1.0000
  Fe  Fe337     1.0  0.94199  0.89343  0.44848  1.0000
  S   S674      1.0  0.95299  0.91826  0.42940  1.0000
  H   H2996     1.0  0.97406  0.66099  0.36272  1.0000
  Fe  Fe338     1.0  0.94043  0.89758  0.41656  1.0000
  S   S675      1.0  0.92243  0.91188  0.39758  1.0000
  C   C2486     1.0  0.67525  0.89788  0.36617  1.0000
  S   S676      1.0  0.92633  0.87506  0.43587  1.0000
  Fe  Fe339     1.0  0.78957  0.91205  0.35566  1.0000
  S   S677      1.0  0.77867  0.89316  0.37742  1.0000
  S   S678      1.0  0.80467  0.89683  0.33582  1.0000
  Fe  Fe340     1.0  0.78164  0.95724  0.36596  1.0000
  S   S679      1.0  0.77061  0.94169  0.38856  1.0000
  Fe  Fe341     1.0  0.79953  0.91427  0.38456  1.0000
  S   S680      1.0  0.82114  0.89786  0.40138  1.0000
  Fe  Fe342     1.0  0.75046  0.92220  0.37951  1.0000
  S   S681      1.0  0.71348  0.92467  0.38969  1.0000
  S   S682      1.0  0.81233  0.93134  0.36271  1.0000
  S   S683      1.0  0.75979  0.93949  0.35699  1.0000
  Fe  Fe343     1.0  0.61174  0.85755  0.41645  1.0000
  S   S684      1.0  0.59347  0.82865  0.42718  1.0000
  S   S685      1.0  0.64989  0.84973  0.41070  1.0000
  Fe  Fe344     1.0  0.56769  0.89038  0.41612  1.0000
  S   S686      1.0  0.54623  0.86420  0.42693  1.0000
  S   S687      1.0  0.55442  0.92606  0.40714  1.0000
  Fe  Fe345     1.0  0.57306  0.85317  0.44105  1.0000
  C   C2487     1.0  0.58229  0.69136  0.38435  1.0000
  Fe  Fe346     1.0  0.56835  0.84198  0.41219  1.0000
  S   S688      1.0  0.55413  0.82501  0.39748  1.0000
  S   S689      1.0  0.59300  0.88115  0.43129  1.0000
  S   S690      1.0  0.58821  0.86913  0.40040  1.0000
  Fe  Fe347     1.0  0.50988  0.71512  0.39005  1.0000
  H   H2997     1.0  0.57802  0.72786  0.39494  1.0000
  S   S691      1.0  0.52558  0.72819  0.40582  1.0000
  Fe  Fe348     1.0  0.51805  0.70172  0.36069  1.0000
  S   S692      1.0  0.54473  0.70346  0.34113  1.0000
  S   S693      1.0  0.52779  0.68405  0.38157  1.0000
  C   C2488     1.0  0.53001  0.93966  0.41674  1.0000
  C   C2489     1.0  0.51969  0.92910  0.42979  1.0000
  C   C2490     1.0  0.85817  0.93908  0.42229  1.0000
  C   C2491     1.0  0.66461  0.82287  0.45642  1.0000
  H   H2998     1.0  0.55221  0.65929  0.35814  1.0000
  C   C2492     1.0  0.52085  0.96153  0.41122  1.0000
  H   H2999     1.0  0.52669  0.91230  0.43416  1.0000
  C   C2493     1.0  0.89749  0.68816  0.37354  1.0000
  H   H3000     1.0  0.80007  0.67640  0.33483  1.0000
  C   C2494     1.0  0.54787  0.79741  0.39973  1.0000
  C   C2495     1.0  0.53919  0.79115  0.38882  1.0000
  C   C2496     1.0  0.53271  0.76989  0.39039  1.0000
  C   C2497     1.0  0.53461  0.75471  0.40301  1.0000
  C   C2498     1.0  0.54382  0.76072  0.41379  1.0000
  C   C2499     1.0  0.55049  0.78195  0.41216  1.0000
  H   H3001     1.0  0.53723  0.80298  0.37915  1.0000
  H   H3002     1.0  0.52607  0.76541  0.38189  1.0000
  H   H3003     1.0  0.54550  0.74903  0.42355  1.0000
  H   H3004     1.0  0.55718  0.78655  0.42062  1.0000
  H   H3005     1.0  0.66959  0.69688  0.34077  1.0000
  C   C2500     1.0  0.84429  0.97389  0.30914  1.0000
  H   H3006     1.0  0.60057  0.97415  0.38443  1.0000
  N   N166      1.0  0.82260  0.98004  0.39741  1.0000
  H   H3007     1.0  0.89760  0.68634  0.38487  1.0000
  C   C2501     1.0  0.69678  0.90309  0.39617  1.0000
  C   C2502     1.0  0.70465  0.88083  0.39436  1.0000
  C   C2503     1.0  0.69019  0.86456  0.39901  1.0000
  C   C2504     1.0  0.66778  0.87044  0.40541  1.0000
  C   C2505     1.0  0.66014  0.89254  0.40756  1.0000
  C   C2506     1.0  0.67456  0.90879  0.40293  1.0000
  H   H3008     1.0  0.72171  0.87624  0.38919  1.0000
  H   H3009     1.0  0.69628  0.84743  0.39741  1.0000
  H   H3010     1.0  0.64315  0.89701  0.41282  1.0000
  H   H3011     1.0  0.66846  0.92594  0.40446  1.0000
  C   C2507     1.0  0.89481  0.90664  0.39814  1.0000
  C   C2508     1.0  0.88269  0.91726  0.38709  1.0000
  C   C2509     1.0  0.86024  0.91423  0.38768  1.0000
  C   C2510     1.0  0.84975  0.90077  0.39945  1.0000
  C   C2511     1.0  0.86214  0.88948  0.41019  1.0000
  C   C2512     1.0  0.88460  0.89233  0.40952  1.0000
  H   H3012     1.0  0.89056  0.92821  0.37818  1.0000
  H   H3013     1.0  0.85103  0.92262  0.37918  1.0000
  H   H3014     1.0  0.85419  0.87887  0.41926  1.0000
  H   H3015     1.0  0.89376  0.88382  0.41798  1.0000
  C   C2513     1.0  0.80278  0.82301  0.33482  1.0000
  C   C2514     1.0  0.78989  0.83336  0.34607  1.0000
  C   C2515     1.0  0.79018  0.85605  0.34645  1.0000
  C   C2516     1.0  0.80327  0.86857  0.33550  1.0000
  C   C2517     1.0  0.81597  0.85829  0.32416  1.0000
  C   C2518     1.0  0.81586  0.83555  0.32386  1.0000
  H   H3016     1.0  0.77959  0.82380  0.35452  1.0000
  H   H3017     1.0  0.78011  0.86387  0.35514  1.0000
  H   H3018     1.0  0.82616  0.86789  0.31567  1.0000
  H   H3019     1.0  0.82578  0.82780  0.31511  1.0000
  C   C2519     1.0  0.81860  0.73864  0.23938  1.0000
  C   C2520     1.0  0.82821  0.80358  0.25258  1.0000
  C   C2521     1.0  0.81154  0.78976  0.25650  1.0000
  H   H3020     1.0  0.94036  0.86467  0.39249  1.0000
  H   H3021     1.0  0.80927  0.78006  0.26708  1.0000
  H   H3022     1.0  0.82959  0.82117  0.38153  1.0000
  C   C2522     1.0  0.87820  0.94797  0.41954  1.0000
  C   C2523     1.0  0.87714  0.69728  0.36858  1.0000
  H   H3023     1.0  0.74744  0.67142  0.30203  1.0000
  C   C2524     1.0  0.65613  0.93451  0.37076  1.0000
  H   H3024     1.0  0.80741  0.97276  0.38077  1.0000
  H   H3025     1.0  0.94925  0.83359  0.36120  1.0000
  H   H3026     1.0  0.57995  0.94808  0.38078  1.0000
  C   C2525     1.0  0.79787  0.78827  0.24664  1.0000
  C   C2526     1.0  0.59351  0.72553  0.38686  1.0000
  C   C2527     1.0  0.93298  0.74645  0.34932  1.0000
  C   C2528     1.0  0.94680  0.73578  0.33857  1.0000
  C   C2529     1.0  0.93776  0.73239  0.32695  1.0000
  C   C2530     1.0  0.91494  0.73982  0.32593  1.0000
  C   C2531     1.0  0.90102  0.75024  0.33677  1.0000
  C   C2532     1.0  0.91002  0.75336  0.34850  1.0000
  H   H3027     1.0  0.96454  0.73059  0.33902  1.0000
  H   H3028     1.0  0.94857  0.72429  0.31859  1.0000
  H   H3029     1.0  0.88333  0.75573  0.33615  1.0000
  H   H3030     1.0  0.89915  0.76121  0.35693  1.0000
  S   S694      1.0  0.97473  0.86995  0.44720  1.0000
  S   S695      1.0  0.95772  0.81732  0.43348  1.0000
  C   C2533     1.0  0.63582  0.92582  0.37687  1.0000
  C   C2534     1.0  0.74545  0.69013  0.31899  1.0000
  C   C2535     1.0  0.75522  0.68275  0.30611  1.0000
  C   C2536     1.0  0.77535  0.68977  0.29859  1.0000
  C   C2537     1.0  0.78558  0.70460  0.30373  1.0000
  C   C2538     1.0  0.77534  0.71277  0.31631  1.0000
  C   C2539     1.0  0.75539  0.70540  0.32398  1.0000
  H   H3031     1.0  0.89418  0.69679  0.33318  1.0000
  H   H3032     1.0  0.78316  0.68351  0.28882  1.0000
  H   H3033     1.0  0.78315  0.72423  0.32033  1.0000
  H   H3034     1.0  0.74786  0.71123  0.33393  1.0000
  H   H3035     1.0  0.83667  0.67414  0.31887  1.0000
  C   C2540     1.0  0.91557  0.68514  0.34932  1.0000
  H   H3036     1.0  0.65582  0.87092  0.37323  1.0000
  H   H3037     1.0  0.57592  0.67110  0.30657  1.0000
  C   C2541     1.0  0.61663  0.96410  0.38013  1.0000
  H   H3038     1.0  0.72509  0.72590  0.23543  1.0000
  C   C2542     1.0  0.56883  0.68295  0.34218  1.0000
  C   C2543     1.0  0.58923  0.68696  0.33349  1.0000
  C   C2544     1.0  0.60859  0.67073  0.33409  1.0000
  H   H3039     1.0  0.59010  0.70275  0.32638  1.0000
  C   C2545     1.0  0.97182  0.78257  0.41838  1.0000
  H   H3040     1.0  0.74401  0.67082  0.23549  1.0000
  H   H3041     1.0  0.50545  0.78878  0.43798  1.0000
  C   C2546     1.0  0.82143  0.96571  0.38697  1.0000
  C   C2547     1.0  0.81808  0.81361  0.22870  1.0000
  H   H3042     1.0  0.86034  0.70778  0.35017  1.0000
  H   H3043     1.0  0.89613  0.97398  0.40736  1.0000
  H   H3044     1.0  0.97427  0.81564  0.36655  1.0000
  H   H3045     1.0  0.59484  0.68084  0.39079  1.0000
  H   H3046     1.0  0.62190  0.89448  0.38249  1.0000
  H   H3047     1.0  0.52876  0.96979  0.40113  1.0000
  C   C2548     1.0  0.94494  0.68976  0.37679  1.0000
  C   C2549     1.0  0.84023  0.94950  0.41511  1.0000
  S   S696      1.0  0.98558  0.71903  0.38870  1.0000
  H   H3048     1.0  0.65228  0.73556  0.34403  1.0000
  H   H3049     1.0  0.84386  0.82671  0.23568  1.0000
  N   N167      1.0  0.95539  0.83584  0.38211  1.0000
  C   C2550     1.0  0.50015  0.81438  0.42000  1.0000
  C   C2551     1.0  0.67547  0.92065  0.36549  1.0000
  H   H3050     1.0  0.87541  0.73567  0.25234  1.0000
  C   C2552     1.0  0.93984  0.82027  0.39010  1.0000
  C   C2553     1.0  0.92834  0.82328  0.40394  1.0000
  C   C2554     1.0  0.93660  0.80116  0.38485  1.0000
  C   C2555     1.0  0.91418  0.80841  0.41190  1.0000
  C   C2556     1.0  0.92231  0.78644  0.39289  1.0000
  C   C2557     1.0  0.91112  0.79005  0.40637  1.0000
  H   H3051     1.0  0.92799  0.86225  0.37751  1.0000
  C   C2558     1.0  0.64227  0.87213  0.47208  1.0000
  H   H3052     1.0  0.89275  0.76431  0.24169  1.0000
  S   S697      1.0  0.92465  0.90861  0.46797  1.0000
  H   H3053     1.0  0.87014  0.78604  0.23759  1.0000
  C   C2559     1.0  0.80148  0.79972  0.23262  1.0000
  H   H3054     1.0  0.63277  0.84152  0.44068  1.0000
  H   H3055     1.0  0.56764  0.65431  0.29583  1.0000
  S   S698      1.0  0.67367  0.66551  0.27636  1.0000
  H   H3056     1.0  0.93099  0.83658  0.40905  1.0000
  H   H3057     1.0  0.94531  0.79678  0.37472  1.0000
  H   H3058     1.0  0.90632  0.81072  0.42266  1.0000
  H   H3059     1.0  0.92046  0.77175  0.38875  1.0000
  C   C2560     1.0  0.94414  0.85946  0.38178  1.0000
  H   H3060     1.0  0.57091  0.71547  0.35957  1.0000
  C   C2561     1.0  0.62653  0.83647  0.45218  1.0000
  H   H3061     1.0  0.72003  0.68889  0.24306  1.0000
  N   N168      1.0  0.64326  0.83705  0.46135  1.0000
  H   H3062     1.0  0.63659  0.65555  0.29786  1.0000
  C   C2562     1.0  0.50157  0.97286  0.41876  1.0000
  C   C2563     1.0  0.58067  0.87475  0.47369  1.0000
  H   H3063     1.0  0.83737  0.96400  0.37925  1.0000
  S   S699      1.0  0.56493  0.84092  0.46483  1.0000
  C   C2564     1.0  0.62345  0.72547  0.35885  1.0000
  H   H3064     1.0  0.61640  0.74265  0.35981  1.0000
  C   C2565     1.0  0.96355  0.83229  0.36711  1.0000
  N   N169      1.0  0.76826  0.83039  0.29055  1.0000
  C   C2566     1.0  0.78876  0.83224  0.27962  1.0000
  C   C2567     1.0  0.74970  0.84762  0.28581  1.0000
  C   C2568     1.0  0.77345  0.83554  0.30390  1.0000
  C   C2569     1.0  0.76148  0.80794  0.29233  1.0000
  C   C2570     1.0  0.75647  0.79459  0.30595  1.0000
  C   C2571     1.0  0.75931  0.79889  0.28026  1.0000
  C   C2572     1.0  0.75107  0.77308  0.30719  1.0000
  C   C2573     1.0  0.75399  0.77733  0.28164  1.0000
  C   C2574     1.0  0.75011  0.76436  0.29507  1.0000
  H   H3065     1.0  0.78602  0.83128  0.26873  1.0000
  H   H3066     1.0  0.79505  0.84842  0.27871  1.0000
  H   H3067     1.0  0.80280  0.81874  0.28232  1.0000
  H   H3068     1.0  0.74598  0.84553  0.27534  1.0000
  H   H3069     1.0  0.75389  0.86484  0.28458  1.0000
  H   H3070     1.0  0.73391  0.84662  0.29365  1.0000
  H   H3071     1.0  0.77989  0.85182  0.30219  1.0000
  H   H3072     1.0  0.75835  0.83681  0.31231  1.0000
  H   H3073     1.0  0.78671  0.82244  0.30820  1.0000
  H   H3074     1.0  0.75752  0.79993  0.31580  1.0000
  H   H3075     1.0  0.76209  0.80824  0.26960  1.0000
  H   H3076     1.0  0.74818  0.76284  0.31762  1.0000
  H   H3077     1.0  0.75319  0.77050  0.27223  1.0000
  H   H3078     1.0  0.74650  0.74744  0.29611  1.0000
  N   N170      1.0  0.84920  0.84777  0.37291  1.0000
  C   C2575     1.0  0.84509  0.87165  0.36626  1.0000
  C   C2576     1.0  0.82724  0.83937  0.37712  1.0000
  C   C2577     1.0  0.85859  0.84675  0.38618  1.0000
  C   C2578     1.0  0.86413  0.83457  0.36253  1.0000
  C   C2579     1.0  0.88560  0.82241  0.36497  1.0000
  C   C2580     1.0  0.85725  0.83358  0.34946  1.0000
  C   C2581     1.0  0.89910  0.81004  0.35488  1.0000
  C   C2582     1.0  0.87084  0.82119  0.33947  1.0000
  C   C2583     1.0  0.89176  0.80952  0.34215  1.0000
  H   H3079     1.0  0.83604  0.87421  0.35695  1.0000
  H   H3080     1.0  0.83448  0.88220  0.37390  1.0000
  H   H3081     1.0  0.86118  0.87852  0.36248  1.0000
  H   H3082     1.0  0.81786  0.84170  0.36801  1.0000
  H   H3083     1.0  0.81587  0.84842  0.38534  1.0000
  H   H3084     1.0  0.87444  0.85417  0.38397  1.0000
  H   H3085     1.0  0.84671  0.85640  0.39387  1.0000
  H   H3086     1.0  0.86176  0.82926  0.39189  1.0000
  H   H3087     1.0  0.89230  0.82201  0.37460  1.0000
  H   H3088     1.0  0.84118  0.84232  0.34688  1.0000
  H   H3089     1.0  0.91524  0.80045  0.35698  1.0000
  H   H3090     1.0  0.86501  0.82050  0.32964  1.0000
  H   H3091     1.0  0.90221  0.79980  0.33440  1.0000
  C   C2584     1.0  0.97531  0.83258  0.38937  1.0000
  H   H3092     1.0  0.59854  0.93976  0.36524  1.0000
  C   C2585     1.0  0.72648  0.67891  0.23429  1.0000
  H   H3093     1.0  0.58209  0.88310  0.46275  1.0000
  H   H3094     1.0  0.97434  0.84488  0.36120  1.0000
  C   C2586     1.0  0.93647  0.65222  0.38003  1.0000
  S   S700      1.0  0.50192  0.73376  0.36886  1.0000
  C   C2587     1.0  0.65593  0.87233  0.44687  1.0000
  H   H3095     1.0  0.60769  0.71730  0.39269  1.0000
  H   H3096     1.0  0.95231  0.94326  0.46762  1.0000
  C   C2588     1.0  0.57314  0.72478  0.36790  1.0000
  H   H3097     1.0  0.93220  0.69393  0.38606  1.0000
  H   H3098     1.0  0.57808  0.68116  0.37711  1.0000
  H   H3099     1.0  0.57732  0.74140  0.36237  1.0000
  C   C2589     1.0  0.86227  0.97833  0.40268  1.0000
  H   H3100     1.0  0.65032  0.66500  0.35324  1.0000
  N   N171      1.0  0.59071  0.71204  0.37626  1.0000
  C   C2590     1.0  0.64392  0.72161  0.34973  1.0000
  C   C2591     1.0  0.63629  0.90251  0.37746  1.0000
  H   H3101     1.0  0.65784  0.95180  0.37029  1.0000
  H   H3102     1.0  0.55649  0.72790  0.37480  1.0000
  H   H3103     1.0  0.81857  0.94853  0.39226  1.0000
  H   H3104     1.0  0.69602  0.71452  0.22810  1.0000
  C   C2592     1.0  0.58081  0.66438  0.29629  1.0000
  H   H3105     1.0  0.96143  0.68262  0.35025  1.0000
  N   N172      1.0  0.93890  0.67298  0.36956  1.0000
  C   C2593     1.0  0.60755  0.65022  0.34315  1.0000
  H   H3106     1.0  0.59088  0.91955  0.38067  1.0000
  H   H3107     1.0  0.65754  0.92258  0.45619  1.0000
  C   C2594     1.0  0.97798  0.80080  0.42274  1.0000
  H   H3108     1.0  0.49350  0.83635  0.40074  1.0000
  H   H3109     1.0  0.62988  0.96798  0.38538  1.0000
  S   S701      1.0  0.72160  0.67964  0.32944  1.0000
  C   C2595     1.0  0.49141  0.96234  0.43188  1.0000
  H   H3110     1.0  0.85659  0.96027  0.30548  1.0000
  Fe  Fe349     1.0  0.97934  0.73388  0.36642  1.0000
  H   H3111     1.0  0.69106  0.92742  0.36143  1.0000
  C   C2596     1.0  0.61118  0.93283  0.39871  1.0000
  H   H3112     1.0  0.78505  0.77750  0.24972  1.0000
  H   H3113     1.0  0.79580  0.96520  0.41209  1.0000
  C   C2597     1.0  0.49721  0.79394  0.42862  1.0000
  H   H3114     1.0  0.65776  0.67989  0.24967  1.0000
  S   S702      1.0  0.67111  0.66594  0.31530  1.0000
  H   H3115     1.0  0.77415  0.65085  0.33538  1.0000
  H   H3116     1.0  0.90059  0.77823  0.41272  1.0000
  C   C2598     1.0  0.59544  0.93665  0.37711  1.0000
  C   C2599     1.0  0.87597  0.70029  0.35407  1.0000
  H   H3117     1.0  0.80862  0.72014  0.26021  1.0000
  H   H3118     1.0  0.67087  0.82788  0.44488  1.0000
  H   H3119     1.0  0.92976  0.68143  0.34118  1.0000
  C   C2600     1.0  0.84154  0.96971  0.40526  1.0000
  C   C2601     1.0  0.83560  0.74909  0.23026  1.0000
  C   C2602     1.0  0.88400  0.77396  0.23285  1.0000
  C   C2603     1.0  0.95813  0.66750  0.35824  1.0000
  C   C2604     1.0  0.65370  0.69986  0.34785  1.0000
  N   N173      1.0  0.61522  0.93975  0.38302  1.0000
  C   C2605     1.0  0.83114  0.81582  0.23874  1.0000
  H   H3120     1.0  0.95489  0.77871  0.42178  1.0000
  H   H3121     1.0  0.61077  0.84804  0.45496  1.0000
  H   H3122     1.0  0.59602  0.94314  0.40384  1.0000
  H   H3123     1.0  0.56655  0.69528  0.39197  1.0000
  C   C2606     1.0  0.96937  0.94816  0.46382  1.0000
  C   C2607     1.0  0.62244  0.68554  0.36411  1.0000
  H   H3124     1.0  0.66247  0.80496  0.45773  1.0000
  C   C2608     1.0  0.61221  0.70751  0.36650  1.0000
  C   C2609     1.0  0.91742  0.68196  0.36405  1.0000
  H   H3125     1.0  0.67808  0.82392  0.46248  1.0000
  H   H3126     1.0  0.95492  0.87153  0.37510  1.0000
  H   H3127     1.0  0.61490  0.67080  0.36899  1.0000
  H   H3128     1.0  0.66664  0.90306  0.43518  1.0000
  C   C2610     1.0  0.82615  0.96904  0.31967  1.0000
  N   N174      1.0  0.60355  0.65063  0.29530  1.0000
  C   C2611     1.0  0.82199  0.72774  0.25299  1.0000
  C   C2612     1.0  0.85668  0.74885  0.23457  1.0000
  C   C2613     1.0  0.65569  0.88882  0.37214  1.0000
  H   H3129     1.0  0.62579  0.93452  0.40356  1.0000
  H   H3130     1.0  0.60819  0.91512  0.40176  1.0000
  C   C2614     1.0  0.85975  0.73702  0.24836  1.0000
  H   H3131     1.0  0.82565  0.94106  0.41697  1.0000
  H   H3132     1.0  0.84509  0.71826  0.26803  1.0000
  C   C2615     1.0  0.64716  0.86044  0.46022  1.0000
  C   C2616     1.0  0.65977  0.89442  0.44549  1.0000
  C   C2617     1.0  0.56793  0.66268  0.35153  1.0000
  C   C2618     1.0  0.50043  0.94042  0.43732  1.0000
  H   H3133     1.0  0.65978  0.86466  0.43734  1.0000
  C   C2619     1.0  0.88026  0.96750  0.40973  1.0000
  H   H3134     1.0  0.94677  0.70561  0.36928  1.0000
  H   H3135     1.0  0.49265  0.93220  0.44747  1.0000
  H   H3136     1.0  0.62014  0.97027  0.36847  1.0000
  H   H3137     1.0  0.97054  0.83593  0.40052  1.0000
  C   C2620     1.0  0.84257  0.72679  0.25742  1.0000
  H   H3138     1.0  0.82430  0.95178  0.32416  1.0000
  C   C2621     1.0  0.65473  0.90540  0.45731  1.0000
  H   H3139     1.0  0.96116  0.68374  0.38094  1.0000
  H   H3140     1.0  0.71600  0.66530  0.23623  1.0000
  H   H3141     1.0  0.75046  0.75394  0.23106  1.0000
  C   C2622     1.0  0.64593  0.89430  0.47055  1.0000
  C   C2623     1.0  0.64292  0.68190  0.35497  1.0000
  H   H3142     1.0  0.51074  0.82494  0.42260  1.0000
  H   H3143     1.0  0.61415  0.67536  0.30474  1.0000
  H   H3144     1.0  0.66413  0.66292  0.22766  1.0000
  C   C2624     1.0  0.73865  0.72534  0.22650  1.0000
  C   C2625     1.0  0.66852  0.66393  0.24915  1.0000
  H   H3145     1.0  0.80246  0.73962  0.23598  1.0000
  C   C2626     1.0  0.82576  0.66182  0.31946  1.0000
  C   C2627     1.0  0.67850  0.65279  0.26102  1.0000
  H   H3146     1.0  0.58142  0.65634  0.27134  1.0000
  H   H3147     1.0  0.98420  0.81500  0.38993  1.0000
  H   H3148     1.0  0.62289  0.67721  0.28584  1.0000
  C   C2628     1.0  0.61993  0.66530  0.29599  1.0000
  H   H3149     1.0  0.98247  0.75531  0.40631  1.0000
  H   H3150     1.0  0.90077  0.73125  0.23006  1.0000
  H   H3151     1.0  0.58018  0.67922  0.28768  1.0000
  H   H3152     1.0  0.92394  0.65529  0.38963  1.0000
  H   H3153     1.0  0.86226  0.70233  0.37597  1.0000
  H   H3154     1.0  0.97209  0.95028  0.45195  1.0000
  C   C2629     1.0  0.98742  0.76931  0.40959  1.0000
  Fe  Fe350     1.0  0.49416  0.67222  0.38565  1.0000
  H   H3155     1.0  0.96938  0.96508  0.46627  1.0000
  Fe  Fe351     1.0  0.70561  0.65523  0.32119  1.0000
  C   C2630     1.0  0.80508  0.66310  0.32842  1.0000
  H   H3156     1.0  0.89643  0.78384  0.22569  1.0000
  H   H3157     1.0  0.95514  0.65433  0.35266  1.0000
  N   N175      1.0  0.87517  0.75950  0.22515  1.0000
  C   C2631     1.0  0.80086  0.98180  0.40732  1.0000
  N   N176      1.0  0.98695  0.93103  0.47005  1.0000
  H   H3158     1.0  0.97412  0.90201  0.46739  1.0000
  H   H3159     1.0  0.98980  0.91511  0.45144  1.0000
  C   C2632     1.0  0.98889  0.91086  0.46324  1.0000
  H   H3160     1.0  0.89616  0.85864  0.47407  1.0000
  H   H3161     1.0  0.79630  0.98262  0.33275  1.0000
  Fe  Fe352     1.0  0.92875  0.87033  0.54944  1.0000
  S   S703      1.0  0.94823  0.86172  0.56778  1.0000
  S   S704      1.0  0.94550  0.85840  0.52870  1.0000
  Fe  Fe353     1.0  0.88640  0.89084  0.56746  1.0000
  S   S705      1.0  0.90268  0.88437  0.58711  1.0000
  S   S706      1.0  0.84944  0.90292  0.56562  1.0000
  Fe  Fe354     1.0  0.93290  0.89615  0.57237  1.0000
  C   C2633     1.0  0.88861  0.86311  0.48442  1.0000
  Fe  Fe355     1.0  0.91696  0.85059  0.58101  1.0000
  S   S707      1.0  0.91483  0.82072  0.59869  1.0000
  S   S708      1.0  0.91549  0.90569  0.55298  1.0000
  S   S709      1.0  0.89857  0.85610  0.56234  1.0000
  Fe  Fe356     1.0  0.53852  0.88594  0.55510  1.0000
  S   S710      1.0  0.56971  0.90208  0.54862  1.0000
  S   S711      1.0  0.50246  0.90355  0.55809  1.0000
  Fe  Fe357     1.0  0.56517  0.83846  0.55710  1.0000
  S   S712      1.0  0.59853  0.85095  0.55065  1.0000
  S   S713      1.0  0.56442  0.80116  0.56038  1.0000
  Fe  Fe358     1.0  0.58398  0.87580  0.56556  1.0000
  S   S714      1.0  0.59804  0.88150  0.58452  1.0000
  Fe  Fe359     1.0  0.58127  0.87585  0.53423  1.0000
  S   S715      1.0  0.59549  0.88554  0.51091  1.0000
  S   S716      1.0  0.55167  0.86144  0.57308  1.0000
  S   S717      1.0  0.54910  0.86156  0.53965  1.0000
  Fe  Fe360     1.0  0.66167  0.75310  0.71092  1.0000
  S   S718      1.0  0.69694  0.74487  0.69955  1.0000
  Fe  Fe361     1.0  0.64056  0.74712  0.68512  1.0000
  S   S719      1.0  0.67452  0.73839  0.67223  1.0000
  S   S720      1.0  0.60774  0.75086  0.67604  1.0000
  Fe  Fe362     1.0  0.68405  0.71756  0.69254  1.0000
  S   S721      1.0  0.70123  0.68166  0.69510  1.0000
  Fe  Fe363     1.0  0.68412  0.76675  0.68039  1.0000
  S   S722      1.0  0.70593  0.78922  0.66464  1.0000
  S   S723      1.0  0.64937  0.72421  0.70497  1.0000
  S   S724      1.0  0.64950  0.77710  0.69214  1.0000
  Fe  Fe364     1.0  0.50929  0.71520  0.61887  1.0000
  S   S725      1.0  0.54202  0.69497  0.61077  1.0000
  C   C2634     1.0  0.49428  0.86140  0.53577  1.0000
  C   C2635     1.0  0.96800  0.94120  0.49422  1.0000
  Fe  Fe365     1.0  0.54540  0.68547  0.63408  1.0000
  S   S726      1.0  0.57943  0.68457  0.64110  1.0000
  S   S727      1.0  0.51343  0.70674  0.64206  1.0000
  C   C2636     1.0  0.51075  0.82436  0.53054  1.0000
  Fe  Fe366     1.0  0.69239  0.91608  0.63458  1.0000
  S   S728      1.0  0.67092  0.94205  0.62103  1.0000
  S   S729      1.0  0.67520  0.89445  0.65359  1.0000
  Fe  Fe367     1.0  0.73626  0.92925  0.61731  1.0000
  S   S730      1.0  0.71831  0.95575  0.60221  1.0000
  S   S731      1.0  0.77382  0.92385  0.61817  1.0000
  C   C2637     1.0  0.87090  0.88079  0.48550  1.0000
  Fe  Fe368     1.0  0.52159  0.66665  0.61379  1.0000
  Fe  Fe369     1.0  0.69568  0.93036  0.60273  1.0000
  S   S732      1.0  0.68572  0.92489  0.58231  1.0000
  S   S733      1.0  0.71429  0.94040  0.63694  1.0000
  S   S734      1.0  0.71578  0.90288  0.61620  1.0000
  H   H3162     1.0  0.55609  0.75223  0.63364  1.0000
  S   S735      1.0  0.95914  0.67557  0.66184  1.0000
  N   N177      1.0  0.58198  0.75127  0.61491  1.0000
  C   C2638     1.0  0.72989  0.67637  0.68805  1.0000
  C   C2639     1.0  0.76379  0.68819  0.67345  1.0000
  C   C2640     1.0  0.74111  0.69327  0.67954  1.0000
  H   H3163     1.0  0.77230  0.70126  0.66669  1.0000
  H   H3164     1.0  0.73218  0.71016  0.67746  1.0000
  C   C2641     1.0  0.59977  0.73109  0.66735  1.0000
  C   C2642     1.0  0.57746  0.73391  0.66468  1.0000
  C   C2643     1.0  0.57068  0.71926  0.65724  1.0000
  C   C2644     1.0  0.58627  0.70181  0.65210  1.0000
  C   C2645     1.0  0.60854  0.69892  0.65484  1.0000
  C   C2646     1.0  0.61524  0.71338  0.66245  1.0000
  H   H3165     1.0  0.56529  0.74744  0.66850  1.0000
  H   H3166     1.0  0.55343  0.72156  0.65539  1.0000
  H   H3167     1.0  0.62076  0.68551  0.65092  1.0000
  H   H3168     1.0  0.63245  0.71096  0.66441  1.0000
  C   C2647     1.0  0.69808  0.81856  0.66232  1.0000
  C   C2648     1.0  0.67959  0.82870  0.67097  1.0000
  C   C2649     1.0  0.67295  0.85203  0.66831  1.0000
  C   C2650     1.0  0.68472  0.86538  0.65699  1.0000
  C   C2651     1.0  0.70347  0.85527  0.64851  1.0000
  C   C2652     1.0  0.71013  0.83194  0.65117  1.0000
  H   H3169     1.0  0.67039  0.81859  0.67970  1.0000
  H   H3170     1.0  0.65857  0.85979  0.67500  1.0000
  H   H3171     1.0  0.71277  0.86539  0.63986  1.0000
  H   H3172     1.0  0.72447  0.82419  0.64446  1.0000
  H   H3173     1.0  0.60410  0.74030  0.59650  1.0000
  C   C2653     1.0  0.57276  0.81364  0.61682  1.0000
  H   H3174     1.0  0.86471  0.88994  0.47590  1.0000
  C   C2654     1.0  0.51510  0.94501  0.55622  1.0000
  C   C2655     1.0  0.51067  0.96798  0.55709  1.0000
  C   C2656     1.0  0.86466  0.66060  0.64327  1.0000
  H   H3175     1.0  0.75925  0.95321  0.63904  1.0000
  H   H3176     1.0  0.53205  0.93724  0.55281  1.0000
  H   H3177     1.0  0.64169  0.90294  0.47973  1.0000
  C   C2657     1.0  0.58555  0.87382  0.49834  1.0000
  C   C2658     1.0  0.98462  0.94474  0.57591  1.0000
  C   C2659     1.0  0.57690  0.85361  0.50222  1.0000
  S   S736      1.0  0.52840  0.65517  0.63628  1.0000
  H   H3178     1.0  0.57577  0.84511  0.51314  1.0000
  C   C2660     1.0  0.62234  0.89387  0.58352  1.0000
  C   C2661     1.0  0.62748  0.89863  0.59610  1.0000
  C   C2662     1.0  0.64687  0.90805  0.59587  1.0000
  C   C2663     1.0  0.66133  0.91278  0.58304  1.0000
  C   C2664     1.0  0.65605  0.90827  0.57042  1.0000
  C   C2665     1.0  0.63660  0.89887  0.57064  1.0000
  H   H3179     1.0  0.61657  0.89478  0.60612  1.0000
  H   H3180     1.0  0.65069  0.91154  0.60564  1.0000
  H   H3181     1.0  0.66711  0.91200  0.56044  1.0000
  H   H3182     1.0  0.63281  0.89527  0.56088  1.0000
  C   C2666     1.0  0.54722  0.78759  0.57491  1.0000
  C   C2667     1.0  0.53427  0.79903  0.58558  1.0000
  C   C2668     1.0  0.51958  0.78800  0.59648  1.0000
  C   C2669     1.0  0.51828  0.76531  0.59700  1.0000
  C   C2670     1.0  0.53169  0.75370  0.58656  1.0000
  C   C2671     1.0  0.54597  0.76488  0.57548  1.0000
  H   H3183     1.0  0.53549  0.81637  0.58544  1.0000
  H   H3184     1.0  0.81523  0.66888  0.70763  1.0000
  H   H3185     1.0  0.53069  0.73624  0.58684  1.0000
  H   H3186     1.0  0.55595  0.75594  0.56724  1.0000
  S   S737      1.0  0.98940  0.72432  0.63914  1.0000
  C   C2672     1.0  0.97168  0.76082  0.59742  1.0000
  C   C2673     1.0  0.63459  0.82681  0.47609  1.0000
  C   C2674     1.0  0.57228  0.85439  0.47756  1.0000
  H   H3187     1.0  0.96194  0.68018  0.58639  1.0000
  C   C2675     1.0  0.82869  0.90963  0.58018  1.0000
  C   C2676     1.0  0.80586  0.91342  0.57857  1.0000
  C   C2677     1.0  0.78884  0.91805  0.59007  1.0000
  C   C2678     1.0  0.79457  0.91886  0.60329  1.0000
  C   C2679     1.0  0.81741  0.91528  0.60486  1.0000
  C   C2680     1.0  0.83442  0.91076  0.59334  1.0000
  H   H3188     1.0  0.80128  0.91267  0.56841  1.0000
  H   H3189     1.0  0.77130  0.92083  0.58875  1.0000
  H   H3190     1.0  0.82194  0.91596  0.61505  1.0000
  H   H3191     1.0  0.85195  0.90827  0.59460  1.0000
  C   C2681     1.0  0.93672  0.79771  0.59797  1.0000
  C   C2682     1.0  0.95256  0.79584  0.58564  1.0000
  H   H3192     1.0  0.60274  0.72455  0.62652  1.0000
  S   S738      1.0  0.95684  0.91314  0.58034  1.0000
  H   H3193     1.0  0.84606  0.71524  0.64639  1.0000
  C   C2683     1.0  0.93840  0.78107  0.61003  1.0000
  H   H3194     1.0  0.95140  0.80854  0.57628  1.0000
  C   C2684     1.0  0.58715  0.73852  0.60278  1.0000
  H   H3195     1.0  0.92621  0.78245  0.61962  1.0000
  H   H3196     1.0  0.82984  0.69258  0.65072  1.0000
  C   C2685     1.0  0.92487  0.90609  0.49653  1.0000
  C   C2686     1.0  0.92977  0.89534  0.51003  1.0000
  C   C2687     1.0  0.94110  0.87337  0.51176  1.0000
  C   C2688     1.0  0.94879  0.86272  0.49977  1.0000
  C   C2689     1.0  0.94423  0.87356  0.48623  1.0000
  H   H3197     1.0  0.91566  0.92292  0.49530  1.0000
  H   H3198     1.0  0.92479  0.90404  0.51911  1.0000
  H   H3199     1.0  0.95781  0.84579  0.50101  1.0000
  H   H3200     1.0  0.59812  0.81281  0.64186  1.0000
  C   C2690     1.0  0.96649  0.93827  0.57149  1.0000
  H   H3201     1.0  0.61706  0.78825  0.63664  1.0000
  C   C2691     1.0  0.49751  0.93230  0.55941  1.0000
  H   H3202     1.0  0.98198  0.77596  0.57572  1.0000
  C   C2692     1.0  0.66845  0.84879  0.62111  1.0000
  H   H3203     1.0  0.97776  0.80058  0.61088  1.0000
  H   H3204     1.0  0.49784  0.96419  0.51823  1.0000
  C   C2693     1.0  0.50215  0.83848  0.56516  1.0000
  C   C2694     1.0  0.64171  0.84078  0.60803  1.0000
  C   C2695     1.0  0.57397  0.79040  0.62075  1.0000
  H   H3205     1.0  0.50939  0.79697  0.60463  1.0000
  H   H3206     1.0  0.56949  0.78391  0.63193  1.0000
  H   H3207     1.0  0.65659  0.78104  0.64187  1.0000
  C   C2696     1.0  0.84535  0.69832  0.64412  1.0000
  C   C2697     1.0  0.94299  0.65588  0.65959  1.0000
  H   H3208     1.0  0.85027  0.67207  0.66885  1.0000
  C   C2698     1.0  0.97524  0.83515  0.60216  1.0000
  C   C2699     1.0  0.65975  0.85145  0.60847  1.0000
  H   H3209     1.0  0.56430  0.82798  0.49487  1.0000
  H   H3210     1.0  0.87639  0.69226  0.61803  1.0000
  H   H3211     1.0  0.51525  0.79842  0.55703  1.0000
  H   H3212     1.0  0.61672  0.81271  0.66815  1.0000
  H   H3213     1.0  0.61632  0.74825  0.61823  1.0000
  C   C2700     1.0  0.77532  0.66629  0.67597  1.0000
  H   H3214     1.0  0.59184  0.77633  0.58738  1.0000
  Fe  Fe370     1.0  0.49596  0.67736  0.64238  1.0000
  H   H3215     1.0  0.52080  0.83455  0.56258  1.0000
  C   C2701     1.0  0.49865  0.83799  0.54069  1.0000
  C   C2702     1.0  0.86567  0.67887  0.66286  1.0000
  H   H3216     1.0  0.51515  0.80645  0.53324  1.0000
  H   H3217     1.0  0.60561  0.78926  0.65489  1.0000
  H   H3218     1.0  0.92618  0.65315  0.68139  1.0000
  H   H3219     1.0  0.49775  0.85699  0.56406  1.0000
  C   C2703     1.0  0.98376  0.85508  0.60074  1.0000
  S   S739      1.0  0.49953  0.75203  0.61067  1.0000
  H   H3220     1.0  0.58716  0.72020  0.60653  1.0000
  Fe  Fe371     1.0  0.69500  0.96536  0.62179  1.0000
  C   C2704     1.0  0.58580  0.80911  0.59228  1.0000
  H   H3221     1.0  0.95712  0.75008  0.61916  1.0000
  C   C2705     1.0  0.57038  0.84392  0.49185  1.0000
  C   C2706     1.0  0.56503  0.93441  0.59558  1.0000
  H   H3222     1.0  0.63849  0.82918  0.66119  1.0000
  C   C2707     1.0  0.56020  0.74580  0.62335  1.0000
  H   H3223     1.0  0.52752  0.82312  0.50894  1.0000
  H   H3224     1.0  0.96010  0.95732  0.48949  1.0000
  H   H3225     1.0  0.68224  0.85743  0.62151  1.0000
  H   H3226     1.0  0.56703  0.82453  0.62480  1.0000
  H   H3227     1.0  0.86252  0.66196  0.63197  1.0000
  H   H3228     1.0  0.94207  0.94738  0.55716  1.0000
  C   C2708     1.0  0.58067  0.77581  0.61044  1.0000
  C   C2709     1.0  0.93184  0.89510  0.48464  1.0000
  C   C2710     1.0  0.96364  0.97268  0.55434  1.0000
  C   C2711     1.0  0.63347  0.96299  0.57788  1.0000
  H   H3229     1.0  0.90913  0.70778  0.60386  1.0000
  H   H3230     1.0  0.56025  0.72739  0.62618  1.0000
  N   N178      1.0  0.84559  0.84326  0.61065  1.0000
  C   C2712     1.0  0.85187  0.81903  0.61588  1.0000
  C   C2713     1.0  0.85224  0.84685  0.59489  1.0000
  C   C2714     1.0  0.85898  0.85610  0.61656  1.0000
  C   C2715     1.0  0.82124  0.85025  0.61537  1.0000
  C   C2716     1.0  0.81223  0.84744  0.63014  1.0000
  C   C2717     1.0  0.80587  0.85995  0.60570  1.0000
  C   C2718     1.0  0.78931  0.85385  0.63490  1.0000
  C   C2719     1.0  0.78296  0.86619  0.61060  1.0000
  C   C2720     1.0  0.77472  0.86324  0.62515  1.0000
  H   H3231     1.0  0.84970  0.81510  0.62770  1.0000
  H   H3232     1.0  0.84148  0.80887  0.61215  1.0000
  H   H3233     1.0  0.86992  0.81299  0.61203  1.0000
  H   H3234     1.0  0.84312  0.83737  0.58970  1.0000
  H   H3235     1.0  0.87056  0.84114  0.59172  1.0000
  H   H3236     1.0  0.84917  0.86490  0.59025  1.0000
  H   H3237     1.0  0.85672  0.85268  0.62840  1.0000
  H   H3238     1.0  0.87739  0.85191  0.61276  1.0000
  H   H3239     1.0  0.85409  0.87444  0.61334  1.0000
  H   H3240     1.0  0.82288  0.84046  0.63814  1.0000
  H   H3241     1.0  0.81111  0.86342  0.59431  1.0000
  H   H3242     1.0  0.78278  0.85182  0.64622  1.0000
  H   H3243     1.0  0.77158  0.87409  0.60309  1.0000
  H   H3244     1.0  0.75706  0.86865  0.62888  1.0000
  N   N179      1.0  0.86592  0.68247  0.64719  1.0000
  H   H3245     1.0  0.66400  0.79694  0.65354  1.0000
  H   H3246     1.0  0.63523  0.86474  0.48265  1.0000
  H   H3247     1.0  0.61461  0.95148  0.56532  1.0000
  C   C2721     1.0  0.88612  0.69145  0.63876  1.0000
  C   C2722     1.0  0.90340  0.69651  0.64512  1.0000
  C   C2723     1.0  0.63246  0.82713  0.62020  1.0000
  C   C2724     1.0  0.92198  0.70543  0.63679  1.0000
  C   C2725     1.0  0.90747  0.70461  0.61540  1.0000
  C   C2726     1.0  0.92404  0.70945  0.62197  1.0000
  H   H3248     1.0  0.64996  0.97325  0.59281  1.0000
  H   H3249     1.0  0.57886  0.95493  0.56054  1.0000
  H   H3250     1.0  0.55959  0.94097  0.60581  1.0000
  C   C2727     1.0  0.59380  0.95808  0.58571  1.0000
  C   C2728     1.0  0.97302  0.91546  0.51609  1.0000
  H   H3251     1.0  0.57786  0.84097  0.59957  1.0000
  C   C2729     1.0  0.64104  0.82396  0.63328  1.0000
  H   H3252     1.0  0.71638  0.67857  0.65890  1.0000
  H   H3253     1.0  0.84287  0.70018  0.63283  1.0000
  H   H3254     1.0  0.90323  0.69350  0.65652  1.0000
  H   H3255     1.0  0.61172  0.83775  0.65526  1.0000
  H   H3256     1.0  0.93502  0.70900  0.64189  1.0000
  H   H3257     1.0  0.88028  0.66647  0.66601  1.0000
  H   H3258     1.0  0.93855  0.71628  0.61559  1.0000
  H   H3259     1.0  0.59587  0.74962  0.63417  1.0000
  H   H3260     1.0  0.59016  0.81643  0.58119  1.0000
  C   C2730     1.0  0.65934  0.83520  0.63330  1.0000
  C   C2731     1.0  0.78751  0.98194  0.62399  1.0000
  C   C2732     1.0  0.95595  0.76276  0.60981  1.0000
  C   C2733     1.0  0.98498  0.81560  0.61014  1.0000
  C   C2734     1.0  0.58672  0.78589  0.59605  1.0000
  N   N180      1.0  0.86185  0.88327  0.52547  1.0000
  C   C2735     1.0  0.85673  0.86383  0.53659  1.0000
  C   C2736     1.0  0.87964  0.89329  0.52935  1.0000
  C   C2737     1.0  0.84112  0.90023  0.52571  1.0000
  C   C2738     1.0  0.87015  0.87601  0.51141  1.0000
  C   C2739     1.0  0.86164  0.88719  0.49876  1.0000
  C   C2740     1.0  0.88841  0.85825  0.50987  1.0000
  H   H3261     1.0  0.64867  0.96148  0.57005  1.0000
  C   C2741     1.0  0.89721  0.85174  0.49660  1.0000
  C   C2742     1.0  0.75764  0.96990  0.64234  1.0000
  H   H3262     1.0  0.87198  0.85151  0.53853  1.0000
  H   H3263     1.0  0.84945  0.86912  0.54712  1.0000
  H   H3264     1.0  0.84448  0.85493  0.53356  1.0000
  H   H3265     1.0  0.88442  0.90750  0.52102  1.0000
  H   H3266     1.0  0.89507  0.88087  0.53074  1.0000
  H   H3267     1.0  0.87408  0.89999  0.53951  1.0000
  H   H3268     1.0  0.82720  0.89395  0.52245  1.0000
  H   H3269     1.0  0.83492  0.90461  0.53661  1.0000
  H   H3270     1.0  0.84423  0.91629  0.51871  1.0000
  H   H3271     1.0  0.84823  0.90126  0.49876  1.0000
  H   H3272     1.0  0.89671  0.84979  0.51880  1.0000
  H   H3273     1.0  0.66675  0.83357  0.64280  1.0000
  C   C2743     1.0  0.51809  0.83375  0.51646  1.0000
  H   H3274     1.0  0.96906  0.91115  0.52761  1.0000
  H   H3275     1.0  0.49719  0.83181  0.57664  1.0000
  C   C2744     1.0  0.95618  0.95215  0.56054  1.0000
  H   H3276     1.0  0.86580  0.69477  0.66672  1.0000
  H   H3277     1.0  0.58785  0.92727  0.56992  1.0000
  H   H3278     1.0  0.91148  0.83844  0.49566  1.0000
  C   C2745     1.0  0.77106  0.67410  0.71747  1.0000
  H   H3279     1.0  0.66687  0.86203  0.59902  1.0000
  C   C2746     1.0  0.57471  0.94240  0.57017  1.0000
  H   H3280     1.0  0.64656  0.82631  0.48357  1.0000
  H   H3281     1.0  0.55108  0.97883  0.59305  1.0000
  H   H3282     1.0  0.61800  0.83614  0.48020  1.0000
  H   H3283     1.0  0.52019  0.86401  0.50124  1.0000
  C   C2747     1.0  0.49673  0.80402  0.55918  1.0000
  H   H3284     1.0  0.67989  0.66553  0.66827  1.0000
  C   C2748     1.0  0.59998  0.74317  0.62384  1.0000
  C   C2749     1.0  0.88879  0.69574  0.62362  1.0000
  H   H3285     1.0  0.59396  0.90005  0.48097  1.0000
  H   H3286     1.0  0.64308  0.77923  0.66014  1.0000
  H   H3287     1.0  0.74000  0.97410  0.64768  1.0000
  H   H3288     1.0  0.57430  0.74398  0.59556  1.0000
  C   C2750     1.0  0.59502  0.96553  0.59856  1.0000
  H   H3289     1.0  0.63473  0.84335  0.59820  1.0000
  C   C2751     1.0  0.57876  0.82296  0.60262  1.0000
  H   H3290     1.0  0.54602  0.75281  0.61731  1.0000
  H   H3291     1.0  0.75307  0.96937  0.61580  1.0000
  N   N181      1.0  0.57257  0.95171  0.58355  1.0000
  H   H3292     1.0  0.61862  0.81933  0.61905  1.0000
  C   C2752     1.0  0.61365  0.95717  0.57534  1.0000
  H   H3293     1.0  0.63171  0.80930  0.47660  1.0000
  H   H3294     1.0  0.76690  0.67183  0.70716  1.0000
  N   N182      1.0  0.63186  0.80961  0.64641  1.0000
  C   C2753     1.0  0.61230  0.79962  0.64476  1.0000
  C   C2754     1.0  0.64963  0.79094  0.65064  1.0000
  C   C2755     1.0  0.62435  0.82291  0.65822  1.0000
  H   H3295     1.0  0.96093  0.83490  0.59707  1.0000
  C   C2756     1.0  0.58734  0.88438  0.48405  1.0000
  C   C2757     1.0  0.51385  0.85681  0.51207  1.0000
  H   H3296     1.0  0.57884  0.92010  0.59723  1.0000
  C   C2758     1.0  0.96988  0.77736  0.58534  1.0000
  N   N183      1.0  0.78828  0.65567  0.72281  1.0000
  H   H3297     1.0  0.95627  0.65520  0.63741  1.0000
  H   H3298     1.0  0.98820  0.80012  0.64416  1.0000
  H   H3299     1.0  0.52175  0.65184  0.55793  1.0000
  H   H3300     1.0  0.55047  0.92747  0.59363  1.0000
  S   S740      1.0  0.80352  0.66017  0.66794  1.0000
  C   C2759     1.0  0.98167  0.97920  0.55889  1.0000
  H   H3301     1.0  0.49903  0.88860  0.51836  1.0000
  H   H3302     1.0  0.55874  0.93706  0.56910  1.0000
  H   H3303     1.0  0.98138  0.78209  0.63349  1.0000
  H   H3304     1.0  0.79110  0.96546  0.62013  1.0000
  C   C2760     1.0  0.69480  0.65349  0.66575  1.0000
  C   C2761     1.0  0.97806  0.67066  0.58278  1.0000
  C   C2762     1.0  0.50190  0.87061  0.52170  1.0000
  H   H3305     1.0  0.53864  0.96763  0.58113  1.0000
  H   H3306     1.0  0.77706  0.69060  0.71569  1.0000
  C   C2763     1.0  0.80755  0.65327  0.71102  1.0000
  H   H3307     1.0  0.49136  0.79764  0.57068  1.0000
  C   C2764     1.0  0.96361  0.93599  0.50911  1.0000
  H   H3308     1.0  0.79873  0.98081  0.63200  1.0000
  C   C2765     1.0  0.55482  0.97168  0.58298  1.0000
  H   H3309     1.0  0.85012  0.65298  0.64983  1.0000
  H   H3310     1.0  0.95245  0.94773  0.51531  1.0000
  H   H3311     1.0  0.97613  0.87021  0.59455  1.0000
  H   H3312     1.0  0.76883  0.96747  0.65049  1.0000
  C   C2766     1.0  0.61505  0.97096  0.60105  1.0000
  C   C2767     1.0  0.63427  0.96957  0.59076  1.0000
  H   H3313     1.0  0.58057  0.96693  0.60685  1.0000
  C   C2768     1.0  0.71543  0.66081  0.66044  1.0000
  C   C2769     1.0  0.98178  0.92566  0.48582  1.0000
  H   H3314     1.0  0.52432  0.97778  0.55442  1.0000
  C   C2770     1.0  0.74150  0.65454  0.69068  1.0000
  H   H3315     1.0  0.61586  0.97601  0.61108  1.0000
  C   C2771     1.0  0.76419  0.64955  0.68474  1.0000
  H   H3316     1.0  0.75044  0.65232  0.65417  1.0000
  Fe  Fe372     1.0  0.98764  0.68746  0.64524  1.0000
  H   H3317     1.0  0.94964  0.86492  0.47714  1.0000
  N   N184      1.0  0.49117  0.82881  0.55581  1.0000
  C   C2772     1.0  0.98705  0.90013  0.50823  1.0000
  H   H3318     1.0  0.80227  0.64966  0.70135  1.0000
  H   H3319     1.0  0.54621  0.65287  0.86767  1.0000
  H   H3320     1.0  0.63091  0.79312  0.79843  1.0000
  H   H3321     1.0  0.83924  0.66939  0.75002  1.0000
  H   H3322     1.0  0.52987  0.86369  0.88804  1.0000
  H   H3323     1.0  0.65308  0.92257  0.87805  1.0000
  C   C2773     1.0  0.51894  0.80508  0.86240  1.0000
  Fe  Fe373     1.0  0.73402  0.95909  0.86420  1.0000
  S   S741      1.0  0.73067  0.92303  0.86272  1.0000
  S   S742      1.0  0.72944  0.96696  0.88657  1.0000
  Fe  Fe374     1.0  0.68921  0.84446  0.81645  1.0000
  S   S743      1.0  0.68997  0.81392  0.83340  1.0000
  S   S744      1.0  0.69067  0.88078  0.81870  1.0000
  Fe  Fe375     1.0  0.68286  0.81689  0.79376  1.0000
  S   S745      1.0  0.68324  0.78455  0.80924  1.0000
  S   S746      1.0  0.68056  0.82163  0.77004  1.0000
  Fe  Fe376     1.0  0.66123  0.80567  0.82467  1.0000
  S   S747      1.0  0.62933  0.79727  0.83946  1.0000
  Fe  Fe377     1.0  0.71192  0.79557  0.81645  1.0000
  S   S748      1.0  0.74622  0.77590  0.81973  1.0000
  S   S749      1.0  0.65890  0.83744  0.80874  1.0000
  S   S750      1.0  0.71297  0.82662  0.79996  1.0000
  H   H3324     1.0  0.97868  0.96736  0.96514  1.0000
  Fe  Fe378     1.0  0.87300  0.66858  0.80329  1.0000
  H   H3325     1.0  0.56861  0.81253  0.80339  1.0000
  S   S751      1.0  0.90405  0.68234  0.80606  1.0000
  H   H3326     1.0  0.61837  0.95842  0.97070  1.0000
  C   C2774     1.0  0.62602  0.70236  0.85522  1.0000
  H   H3327     1.0  0.67353  0.94426  0.88915  1.0000
  Fe  Fe379     1.0  0.82398  0.66748  0.80058  1.0000
  S   S752      1.0  0.78732  0.68230  0.79982  1.0000
  H   H3328     1.0  0.59446  0.73039  0.77320  1.0000
  S   S753      1.0  0.85339  0.67871  0.78473  1.0000
  C   C2775     1.0  0.96067  0.94457  0.93852  1.0000
  H   H3329     1.0  0.93293  0.75546  0.81690  1.0000
  S   S754      1.0  0.96838  0.72166  0.88160  1.0000
  C   C2776     1.0  0.52906  0.92804  0.95311  1.0000
  Fe  Fe380     1.0  0.96276  0.73133  0.85872  1.0000
  S   S755      1.0  0.92838  0.73120  0.85267  1.0000
  C   C2777     1.0  0.53474  0.92931  0.96619  1.0000
  N   N185      1.0  0.98014  0.74919  0.80778  1.0000
  H   H3330     1.0  0.63189  0.98052  0.96021  1.0000
  C   C2778     1.0  0.62907  0.74099  0.86546  1.0000
  C   C2779     1.0  0.95449  0.96626  0.93124  1.0000
  H   H3331     1.0  0.66702  0.95300  0.84241  1.0000
  Fe  Fe381     1.0  0.51400  0.69849  0.86959  1.0000
  S   S756      1.0  0.52852  0.68890  0.84817  1.0000
  Fe  Fe382     1.0  0.53601  0.72421  0.84227  1.0000
  S   S757      1.0  0.56966  0.72959  0.82866  1.0000
  S   S758      1.0  0.52362  0.73313  0.86415  1.0000
  C   C2780     1.0  0.97430  0.66053  0.89801  1.0000
  C   C2781     1.0  0.97180  0.75883  0.82110  1.0000
  C   C2782     1.0  0.50122  0.96078  0.92426  1.0000
  C   C2783     1.0  0.51197  0.80067  0.87706  1.0000
  C   C2784     1.0  0.97059  0.97713  0.92152  1.0000
  C   C2785     1.0  0.65754  0.97524  0.85861  1.0000
  H   H3332     1.0  0.76053  0.66208  0.74805  1.0000
  C   C2786     1.0  0.62454  0.80792  0.79088  1.0000
  H   H3333     1.0  0.71275  0.74401  0.72986  1.0000
  C   C2787     1.0  0.51892  0.82713  0.85554  1.0000
  C   C2788     1.0  0.91006  0.69344  0.82043  1.0000
  C   C2789     1.0  0.89324  0.70517  0.82935  1.0000
  C   C2790     1.0  0.89911  0.71619  0.83939  1.0000
  C   C2791     1.0  0.92177  0.71521  0.84086  1.0000
  C   C2792     1.0  0.93849  0.70254  0.83243  1.0000
  C   C2793     1.0  0.93269  0.69202  0.82215  1.0000
  H   H3334     1.0  0.87579  0.70656  0.82812  1.0000
  H   H3335     1.0  0.88600  0.72588  0.84587  1.0000
  H   H3336     1.0  0.95592  0.70137  0.83357  1.0000
  H   H3337     1.0  0.94585  0.68307  0.81527  1.0000
  H   H3338     1.0  0.71042  0.78315  0.78046  1.0000
  H   H3339     1.0  0.51903  0.88182  0.87318  1.0000
  H   H3340     1.0  0.65730  0.74472  0.84871  1.0000
  H   H3341     1.0  0.96604  0.72687  0.91770  1.0000
  H   H3342     1.0  0.66776  0.79922  0.72638  1.0000
  S   S759      1.0  0.98196  0.77600  0.89355  1.0000
  C   C2794     1.0  0.66895  0.79382  0.73758  1.0000
  H   H3343     1.0  0.90943  0.65313  0.84033  1.0000
  C   C2795     1.0  0.51582  0.91227  0.95212  1.0000
  C   C2796     1.0  0.92212  0.74217  0.80121  1.0000
  C   C2797     1.0  0.75713  0.74957  0.81452  1.0000
  C   C2798     1.0  0.74330  0.73621  0.81114  1.0000
  C   C2799     1.0  0.75276  0.71558  0.80666  1.0000
  C   C2800     1.0  0.77603  0.70804  0.80575  1.0000
  C   C2801     1.0  0.78980  0.72125  0.80932  1.0000
  C   C2802     1.0  0.78035  0.74194  0.81369  1.0000
  H   H3344     1.0  0.72531  0.74166  0.81216  1.0000
  H   H3345     1.0  0.74200  0.70530  0.80404  1.0000
  H   H3346     1.0  0.80773  0.71556  0.80870  1.0000
  H   H3347     1.0  0.79111  0.75212  0.81643  1.0000
  C   C2803     1.0  0.67529  0.80195  0.76026  1.0000
  C   C2804     1.0  0.67414  0.80853  0.74563  1.0000
  C   C2805     1.0  0.49697  0.94455  0.91697  1.0000
  C   C2806     1.0  0.66474  0.77237  0.74413  1.0000
  C   C2807     1.0  0.66618  0.76569  0.75872  1.0000
  C   C2808     1.0  0.67152  0.78033  0.76675  1.0000
  H   H3348     1.0  0.67699  0.82523  0.74052  1.0000
  H   H3349     1.0  0.66287  0.74915  0.76389  1.0000
  H   H3350     1.0  0.67223  0.77501  0.77800  1.0000
  C   C2809     1.0  0.61320  0.77806  0.83645  1.0000
  C   C2810     1.0  0.59186  0.77666  0.84471  1.0000
  C   C2811     1.0  0.57843  0.76169  0.84255  1.0000
  C   C2812     1.0  0.58630  0.74797  0.83213  1.0000
  C   C2813     1.0  0.60773  0.74920  0.82397  1.0000
  C   C2814     1.0  0.62115  0.76420  0.82611  1.0000
  H   H3351     1.0  0.58568  0.78727  0.85278  1.0000
  H   H3352     1.0  0.56195  0.76089  0.84887  1.0000
  H   H3353     1.0  0.61395  0.73856  0.81591  1.0000
  H   H3354     1.0  0.63771  0.76486  0.81987  1.0000
  H   H3355     1.0  0.82708  0.96847  0.90776  1.0000
  C   C2815     1.0  0.71999  0.91167  0.85011  1.0000
  C   C2816     1.0  0.71118  0.92511  0.83844  1.0000
  C   C2817     1.0  0.70233  0.91535  0.82898  1.0000
  C   C2818     1.0  0.70238  0.89203  0.83093  1.0000
  C   C2819     1.0  0.71135  0.87860  0.84256  1.0000
  C   C2820     1.0  0.72002  0.88839  0.85209  1.0000
  H   H3356     1.0  0.71124  0.94300  0.83666  1.0000
  H   H3357     1.0  0.69556  0.92590  0.81999  1.0000
  H   H3358     1.0  0.71151  0.86068  0.84424  1.0000
  H   H3359     1.0  0.72677  0.87778  0.86106  1.0000
  H   H3360     1.0  0.91506  0.72605  0.78501  1.0000
  C   C2821     1.0  0.59852  0.78673  0.78533  1.0000
  C   C2822     1.0  0.53966  0.65125  0.89047  1.0000
  S   S760      1.0  0.97798  0.76281  0.85630  1.0000
  H   H3361     1.0  0.56272  0.68678  0.86714  1.0000
  H   H3362     1.0  0.93730  0.97455  0.93319  1.0000
  C   C2823     1.0  0.57713  0.70292  0.88605  1.0000
  H   H3363     1.0  0.57568  0.77371  0.80431  1.0000
  N   N186      1.0  0.80063  0.91207  0.87971  1.0000
  C   C2824     1.0  0.81410  0.91006  0.89133  1.0000
  C   C2825     1.0  0.80917  0.92902  0.86783  1.0000
  C   C2826     1.0  0.77691  0.92039  0.88536  1.0000
  C   C2827     1.0  0.80171  0.89082  0.87435  1.0000
  C   C2828     1.0  0.78857  0.88992  0.86385  1.0000
  C   C2829     1.0  0.81557  0.87064  0.87922  1.0000
  C   C2830     1.0  0.78886  0.87004  0.85879  1.0000
  C   C2831     1.0  0.81587  0.85084  0.87398  1.0000
  C   C2832     1.0  0.80248  0.85052  0.86384  1.0000
  H   H3364     1.0  0.83239  0.90506  0.88766  1.0000
  H   H3365     1.0  0.81256  0.92641  0.89514  1.0000
  H   H3366     1.0  0.80828  0.89787  0.90076  1.0000
  H   H3367     1.0  0.82699  0.92343  0.86335  1.0000
  H   H3368     1.0  0.80836  0.94541  0.87140  1.0000
  H   H3369     1.0  0.79925  0.93237  0.85892  1.0000
  H   H3370     1.0  0.76911  0.90726  0.89329  1.0000
  H   H3371     1.0  0.77550  0.93524  0.89067  1.0000
  H   H3372     1.0  0.76627  0.92586  0.87684  1.0000
  H   H3373     1.0  0.77780  0.90462  0.85951  1.0000
  H   H3374     1.0  0.82630  0.86968  0.88708  1.0000
  H   H3375     1.0  0.77834  0.86982  0.85092  1.0000
  H   H3376     1.0  0.82650  0.83560  0.87784  1.0000
  H   H3377     1.0  0.80264  0.83513  0.85987  1.0000
  H   H3378     1.0  0.51633  0.96843  0.92079  1.0000
  C   C2833     1.0  0.50456  0.81824  0.88494  1.0000
  H   H3379     1.0  0.83088  0.66033  0.72846  1.0000
  S   S761      1.0  0.50299  0.73707  0.83453  1.0000
  S   S762      1.0  0.60474  0.97980  0.93721  1.0000
  C   C2834     1.0  0.98286  0.93344  0.93596  1.0000
  C   C2835     1.0  0.63412  0.96359  0.88122  1.0000
  C   C2836     1.0  0.58377  0.75103  0.78962  1.0000
  N   N187      1.0  0.49353  0.88096  0.96290  1.0000
  C   C2837     1.0  0.72368  0.77209  0.73541  1.0000
  H   H3380     1.0  0.61778  0.75700  0.75757  1.0000
  H   H3381     1.0  0.52201  0.85569  0.95838  1.0000
  S   S763      1.0  0.76644  0.97355  0.85758  1.0000
  H   H3382     1.0  0.50344  0.84259  0.90680  1.0000
  H   H3383     1.0  0.62513  0.68792  0.85060  1.0000
  H   H3384     1.0  0.96820  0.67774  0.89421  1.0000
  H   H3385     1.0  0.53466  0.93959  0.94369  1.0000
  H   H3386     1.0  0.65094  0.96214  0.92713  1.0000
  H   H3387     1.0  0.60501  0.82700  0.76832  1.0000
  N   N188      1.0  0.59192  0.69486  0.87342  1.0000
  H   H3388     1.0  0.58849  0.66086  0.88349  1.0000
  C   C2838     1.0  0.58686  0.81180  0.80361  1.0000
  H   H3389     1.0  0.94815  0.93631  0.94608  1.0000
  C   C2839     1.0  0.58510  0.77110  0.79399  1.0000
  C   C2840     1.0  0.50423  0.84097  0.87826  1.0000
  H   H3390     1.0  0.80947  0.67439  0.77074  1.0000
  C   C2841     1.0  0.80531  0.67071  0.76108  1.0000
  C   C2842     1.0  0.57749  0.69549  0.86258  1.0000
  H   H3391     1.0  0.63115  0.94986  0.89035  1.0000
  C   C2843     1.0  0.96195  0.74372  0.80143  1.0000
  H   H3392     1.0  0.58690  0.70290  0.89469  1.0000
  C   C2844     1.0  0.72004  0.74992  0.73761  1.0000
  H   H3393     1.0  0.62996  0.75647  0.86903  1.0000
  C   C2845     1.0  0.67461  0.95658  0.87911  1.0000
  S   S764      1.0  0.78955  0.97541  0.89243  1.0000
  H   H3394     1.0  0.54490  0.94167  0.96689  1.0000
  C   C2846     1.0  0.64300  0.71516  0.84881  1.0000
  C   C2847     1.0  0.51173  0.84485  0.86331  1.0000
  C   C2848     1.0  0.79454  0.66058  0.73587  1.0000
  H   H3395     1.0  0.96306  0.74690  0.82952  1.0000
  C   C2849     1.0  0.59547  0.74600  0.77653  1.0000
  H   H3396     1.0  0.50894  0.93972  0.90793  1.0000
  C   C2850     1.0  0.65566  0.93511  0.86819  1.0000
  C   C2851     1.0  0.51438  0.87395  0.88442  1.0000
  C   C2852     1.0  0.95049  0.72730  0.78310  1.0000
  C   C2853     1.0  0.96726  0.73342  0.78900  1.0000
  C   C2854     1.0  0.78327  0.66852  0.76044  1.0000
  H   H3397     1.0  0.57376  0.73918  0.79655  1.0000
  N   N189      1.0  0.74420  0.77448  0.77011  1.0000
  C   C2855     1.0  0.72660  0.77289  0.78287  1.0000
  C   C2856     1.0  0.76550  0.76066  0.77389  1.0000
  C   C2857     1.0  0.74802  0.79822  0.76643  1.0000
  C   C2858     1.0  0.73682  0.76618  0.75857  1.0000
  C   C2859     1.0  0.73178  0.78027  0.74573  1.0000
  C   C2860     1.0  0.73326  0.74355  0.76034  1.0000
  H   H3398     1.0  0.96008  0.77482  0.81927  1.0000
  H   H3399     1.0  0.67958  0.97721  0.90753  1.0000
  H   H3400     1.0  0.64220  0.93508  0.86187  1.0000
  H   H3401     1.0  0.72327  0.75547  0.78681  1.0000
  H   H3402     1.0  0.73142  0.77896  0.79187  1.0000
  H   H3403     1.0  0.76350  0.74300  0.77839  1.0000
  H   H3404     1.0  0.77172  0.76701  0.78229  1.0000
  H   H3405     1.0  0.77897  0.76055  0.76441  1.0000
  H   H3406     1.0  0.73216  0.80980  0.76455  1.0000
  H   H3407     1.0  0.75381  0.80376  0.77531  1.0000
  H   H3408     1.0  0.76108  0.80078  0.75684  1.0000
  H   H3409     1.0  0.73322  0.79786  0.74358  1.0000
  H   H3410     1.0  0.73627  0.73197  0.76995  1.0000
  H   H3411     1.0  0.62682  0.82321  0.79468  1.0000
  C   C2861     1.0  0.77787  0.66359  0.74803  1.0000
  H   H3412     1.0  0.98770  0.71526  0.81831  1.0000
  H   H3413     1.0  0.67224  0.92859  0.86220  1.0000
  H   H3414     1.0  0.63419  0.97845  0.88622  1.0000
  H   H3415     1.0  0.98060  0.78131  0.79439  1.0000
  C   C2862     1.0  0.61008  0.70843  0.86708  1.0000
  C   C2863     1.0  0.61204  0.72830  0.87199  1.0000
  H   H3416     1.0  0.51183  0.86165  0.85748  1.0000
  H   H3417     1.0  0.95493  0.71880  0.77389  1.0000
  H   H3418     1.0  0.71926  0.78327  0.72589  1.0000
  C   C2864     1.0  0.64454  0.73441  0.85395  1.0000
  N   N190      1.0  0.65543  0.95782  0.87148  1.0000
  S   S765      1.0  0.52140  0.67704  0.89042  1.0000
  H   H3419     1.0  0.52428  0.83046  0.84411  1.0000
  H   H3420     1.0  0.61939  0.96712  0.87546  1.0000
  H   H3421     1.0  0.59190  0.79843  0.81241  1.0000
  H   H3422     1.0  0.58660  0.68748  0.85332  1.0000
  C   C2865     1.0  0.64652  0.97796  0.92043  1.0000
  H   H3423     1.0  0.51167  0.78348  0.88232  1.0000
  C   C2866     1.0  0.97175  0.70947  0.92280  1.0000
  C   C2867     1.0  0.59373  0.82720  0.77877  1.0000
  H   H3424     1.0  0.59428  0.84352  0.78201  1.0000
  H   H3425     1.0  0.60040  0.73466  0.88067  1.0000
  H   H3426     1.0  0.57103  0.71307  0.85826  1.0000
  C   C2868     1.0  0.93875  0.74814  0.80730  1.0000
  H   H3427     1.0  0.90462  0.74485  0.80619  1.0000
  H   H3428     1.0  0.98584  0.76278  0.82558  1.0000
  N   N191      1.0  0.60072  0.80798  0.78968  1.0000
  H   H3429     1.0  0.96555  0.69841  0.91696  1.0000
  C   C2869     1.0  0.60173  0.67123  0.87800  1.0000
  H   H3430     1.0  0.96294  0.70716  0.93402  1.0000
  H   H3431     1.0  0.58901  0.82781  0.80662  1.0000
  S   S766      1.0  0.65617  0.75386  0.73488  1.0000
  H   H3432     1.0  0.72151  0.71857  0.75182  1.0000
  H   H3433     1.0  0.69089  0.95150  0.87235  1.0000
  C   C2870     1.0  0.82203  0.66796  0.74936  1.0000
  S   S767      1.0  0.84275  0.66019  0.81939  1.0000
  H   H3434     1.0  0.63578  0.80755  0.78048  1.0000
  C   C2871     1.0  0.60860  0.76101  0.76775  1.0000
  H   H3435     1.0  0.51169  0.91206  0.94174  1.0000
  H   H3436     1.0  0.49667  0.85220  0.95254  1.0000
  N   N192      1.0  0.49626  0.86009  0.88617  1.0000
  H   H3437     1.0  0.57630  0.82711  0.77693  1.0000
  H   H3438     1.0  0.67555  0.97302  0.88196  1.0000
  C   C2872     1.0  0.81690  0.66281  0.73694  1.0000
  C   C2873     1.0  0.66404  0.96998  0.84456  1.0000
  C   C2874     1.0  0.61024  0.78103  0.77207  1.0000
  H   H3439     1.0  0.62099  0.79188  0.76494  1.0000
  C   C2875     1.0  0.50687  0.86482  0.95377  1.0000
  H   H3440     1.0  0.51281  0.87323  0.94282  1.0000
  H   H3441     1.0  0.56398  0.69204  0.89074  1.0000
  H   H3442     1.0  0.98487  0.97938  0.94676  1.0000
  H   H3443     1.0  0.65472  0.71046  0.83959  1.0000
  C   C2876     1.0  0.72489  0.73565  0.75002  1.0000
  C   C2877     1.0  0.50768  0.89736  0.96430  1.0000
  H   H3444     1.0  0.52404  0.79136  0.85633  1.0000
  C   C2878     1.0  0.92798  0.73155  0.78926  1.0000
  H   H3445     1.0  0.98448  0.72965  0.78389  1.0000
  H   H3446     1.0  0.56778  0.72003  0.88317  1.0000
  H   H3447     1.0  0.97968  0.81478  0.90656  1.0000
  H   H3448     1.0  0.61378  0.67015  0.88552  1.0000
  H   H3449     1.0  0.50911  0.88801  0.89073  1.0000
  Fe  Fe383     1.0  0.49412  0.70250  0.84246  1.0000
  Fe  Fe384     1.0  0.98723  0.75098  0.87816  1.0000
  H   H3450     1.0  0.61080  0.66287  0.86888  1.0000
  H   H3451     1.0  0.49869  0.81349  0.89618  1.0000
  H   H3452     1.0  0.75484  0.67526  0.72492  1.0000
  H   H3453     1.0  0.77041  0.67059  0.76968  1.0000
  H   H3454     1.0  0.98733  0.75008  0.92135  1.0000
  H   H3455     1.0  0.94292  0.65504  0.91150  1.0000
  S   S768      1.0  0.99011  0.90664  0.94577  1.0000
  C   C2879     1.0  0.62709  0.97244  0.97147  1.0000
  C   C2880     1.0  0.98479  0.98204  0.95784  1.0000
  H   H3456     1.0  0.67285  0.98228  0.82216  1.0000
