data_image0
_chemical_formula_structural       H2SHSHFeSFeSCHFeS2HCFeSCSH2C6H5C5H4C6H4SHC4H3C2HC4H2CNC2H2C2H3CHNHCHC6H6FeH3CHSCHCH5C3HCHCHC2HCNC3H2NSH3CSC2HCHCHCH5FeHCH3NHCHCH3C2HC3HCH2CHCSNHCHC2FeS2FeS2FeSFeS3FeS2FeS2Fe2S3FeS2FeSCFeSFeS3FeS2FeS2FeSFeS3HSC6H4C6H4C6H4C6H4C3H2C6H4C6H4C6HCH3C2H2C2H4CH2CHNCH2C3H8CH5CHCH2C2H4C3HCHC2H2C2HCH4C2H2NC9H14NC9H8NHCH2CH2CHCHC2H10NH4FeC3HCHSH3C2H3NCHCHNC3HCH5CHSH3CHCHC2SHSFeSFeSCHFeS2H2FeSCSC7H3C7H5N2C5H3C6H7CH2CH4FeNC9H12CHCH2SH3CHC3H2CSNC2HCH5CHCHC2SH5FeHCFeS2FeS2FeSFeS2FeS2FeSHFeSFeS3FeS2FeS2FeSFeS4HFeS2FeSHFeSFeS3C6H4C6H4C6H2CHC6H4C6H4C6H5C2H2C3HNC6HCH12CH2NC6HC2SH4CHNH4C2H2CHNSH3CHCH2CH5CHNCHC7H4CH2CH6C3H5NH3CH3CHCHCNHCNC2HCHCHC2HSH3C3H3FeH2CSC4HCHC3H3CH6CHCH3CH2C3H4C2HNC5HCHC2HFeHC4H3CH3SH3CHCSHCH2FeS2FeS2Fe2S3FeS2FeSHFeSFeS3HFeS2FeS2FeSFeS3FeS2FeS2FeSFeHS2C6H4C5H3C6H3C6H4C6H4C6H4C6H4C6H7SH9CH5CH3CHCH2CH2NC7HCH14NC9H15CH2CHCH5SH2SC2FeC3HCH3NHCSH2SCHCH2C2NCHC3H2NC2H3CHCNHC8H5CH2NH2CHSHSHCH2C2H2C3HC2SH2CH2CHC4H4CHCHCFe2H4CSHFeSHFeSFeSH2FeCSFeHSC3HS2H2C5H3C7H5C2H2C6H4C6H4FeCHCHNC8N2CHCFeH7SH2CH3CHCHSH2CH2CHNHCHC3SH2CH3CH2C2H3C3H3CH4CHC4SH3SCHFeSCFeS2FeSFeS3H2FeS2FeS2Fe2S3FeS2FeS2FeSFeHS2FeS2FeS2FeSFeS3C5H3C6H4C8H2C6H4C6H3C6H4C6H4C6H3C2HFeC2H2SC3H4CHFeHCH2C2NC2HC3HCH5SHCHSCH7C3H7CHNC4H2CH7NHCH2CH3CNC3H3NC9H16CHCH2C2H2NH5SC2NHCH3CH6CHCH2C2H2CH4CHSHCHCH2CH2CSH4NCH4C2H3CH3FeS2FeS2FeCFeHS2CSC2SFeSFeSH2C3H2CH4C6H6C2H2C2H3C6H3C6H4NH3C4HNCH6CH4CH2CHCHCHC2H2NHCHSC2SCH4C2NCHC4H7C2HSC2H2NCH2FeHC2HCH5C2HCHFeNSFeHS3H2S2FeSC2SHFeSFeSHC4H2C5H4C6H3CH2CHCH2C6H4C6H3NSHCHCHC2HCH7CHCH4NH2C3HCHC2H5NC5H3C2HCSCH3C2H6FeCHFeSHFeS2FeSFeS3FeS2FeSHFeSFeS3FeS2FeS2FeSFeHS2FeS2FeS2FeHFeS3C6SH2C6H4C6H2SHC6H4C6SH2C6H4C6H4C6H8C2H3CH4CHCNCH4NC9H15C2H2CNC9H16C6H8C2HCSHC2NH10NHNHCH2NCHCHCSH3NH3C4SCH6CHC2HCH5C2HCH3SH2CFeH3CH2CHCH4C4HCH4SC2S2FeSFeSHC2SHFeS2FeSFeS2CHC6H3C7H3CHCHCH2C6FeH2C7H4CHCH2C2H2C2NCH2CFeHCH5NCH4CH2SCH4C2H4CH2SHCNC6H4CH4CNC2HC3H5FeS2FeS2FeSFeS3HFeS2FeSCFeSFeS3FeS2FeS2FeSFeHS2FeS2FeS2FeSFeHS2C6H4C6H3C6H3C6H4C7H3C6H4C6H4C6H3NC6HCH3CH4CHSH4NC9H16NHCH2SHSH2CNH2NC9H14NC9H18CH4CHC3HC2H2CHCH2CSHC2HCSH3CHC2H8CNH3CH2C3H2SHCHCH3CFeHC3SC2H4C3H4C3HSFeS2FeS2FeSFeHS2FeS2FeSHFeSFeS3FeS2FeS2Fe2S3FeS2FeS2FeHFeS3C4H2C6H4C5HC6H4C6H4C6H4C6H4C6H2CNC9H16CH10C2SCHCHSH3CH4NCH3CHC2HCHCHSC2HCHNC9H14NC9H14CH3CHSHC2H2CHCH3C2H4C2H3CSC2HN2CHCHCH4CHNC2H3CH5SCHC2HFe2S2H3FeSCSHFeCSFeCS2CHCS2HC6HCFeHC6H4C6H4C6H4NC9H15C3NSCH5CH2CH2C2H2CH2C3HFeH3FeSNCH2CHCHCH5C2HS2CH4CHCH3SH3FeSHFeS2FeSFeS3H2FeS2FeSHFeSFeS3FeS2FeS2FeHFeS3FeS2FeS2Fe2S3C4H3C6H4C4SHC6H4C6FeH3C6H4C6NH3C6H2CHNC9H14NC8H15NC9H2C2H10NC9HCH7CH5SNHCH3CH3CHCH2SH3SCH2SH2C7HC2H5NCHC2NH2C2HCH2C3HCH2CHC2HSH6NSH4CS2HCH4CH4CH4CHC3H6C4H4SFeS2FeSFeSH2FeHSFeHSH3CS2CNC6H4C6H4C6H4C6SH3NH2C8H3FeH2CHCH4C2NC9H14SCH2CHCH2NHCH3CH3CH5C3H2C2
_chemical_formula_sum              "H1728 S384 Fe192 C1440 N96"
_cell_length_a       102.423
_cell_length_b       30.4902
_cell_length_c       67.9708
_cell_angle_alpha    82.7311
_cell_angle_beta     83.9391
_cell_angle_gamma    83.3274

_space_group_name_H-M_alt    "P 1"
_space_group_IT_number       1

loop_
  _space_group_symop_operation_xyz
  'x, y, z'

loop_
  _atom_site_type_symbol
  _atom_site_label
  _atom_site_symmetry_multiplicity
  _atom_site_fract_x
  _atom_site_fract_y
  _atom_site_fract_z
  _atom_site_occupancy
  H   H1        1.0  0.21254  0.18232  0.01224  1.0000
  H   H2        1.0  0.04033  0.20067  0.18959  1.0000
  S   S1        1.0  0.22967  0.09700  0.11807  1.0000
  H   H3        1.0  0.00399  0.26610  0.21669  1.0000
  S   S2        1.0  0.21875  0.20131  0.10866  1.0000
  H   H4        1.0  0.00073  0.94800  0.18805  1.0000
  Fe  Fe1       1.0  0.22615  0.15711  0.13531  1.0000
  S   S3        1.0  0.21808  0.14835  0.16859  1.0000
  Fe  Fe2       1.0  0.22411  0.14291  0.09064  1.0000
  S   S4        1.0  0.21033  0.12609  0.06838  1.0000
  C   C1        1.0  0.99871  0.31304  0.06339  1.0000
  H   H5        1.0  0.23360  0.26621  0.13061  1.0000
  Fe  Fe3       1.0  0.01740  0.13301  0.09310  1.0000
  S   S5        1.0  0.01777  0.07234  0.11604  1.0000
  S   S6        1.0  0.02259  0.12788  0.05974  1.0000
  H   H6        1.0  0.02156  0.30839  0.17384  1.0000
  C   C2        1.0  0.11685  0.16416  0.23636  1.0000
  Fe  Fe4       1.0  0.02235  0.11681  0.13814  1.0000
  S   S7        1.0  0.03831  0.09754  0.15990  1.0000
  C   C3        1.0  0.01465  0.98945  0.21153  1.0000
  S   S8        1.0  0.02405  0.17504  0.11432  1.0000
  H   H7        1.0  0.00338  0.87589  0.02760  1.0000
  H   H8        1.0  0.21932  0.95785  0.01670  1.0000
  C   C4        1.0  0.03810  0.09829  0.22813  1.0000
  C   C5        1.0  0.04992  0.09064  0.21612  1.0000
  C   C6        1.0  0.04978  0.09085  0.19533  1.0000
  C   C7        1.0  0.03786  0.09869  0.18620  1.0000
  C   C8        1.0  0.02605  0.10650  0.19819  1.0000
  C   C9        1.0  0.02619  0.10634  0.21897  1.0000
  H   H9        1.0  0.05917  0.08448  0.22286  1.0000
  H   H10       1.0  0.05899  0.08467  0.18626  1.0000
  H   H11       1.0  0.01679  0.11224  0.19154  1.0000
  H   H12       1.0  0.01699  0.11243  0.22807  1.0000
  H   H13       1.0  0.00499  0.30733  0.18545  1.0000
  C   C10       1.0  0.22485  0.08537  0.01394  1.0000
  C   C11       1.0  0.03147  0.14979  0.02048  1.0000
  C   C12       1.0  0.03272  0.15598  0.04035  1.0000
  C   C13       1.0  0.04192  0.18375  0.04409  1.0000
  C   C14       1.0  0.04969  0.20513  0.02812  1.0000
  H   H14       1.0  0.10765  0.14939  0.23705  1.0000
  H   H15       1.0  0.02435  0.12861  0.01738  1.0000
  H   H16       1.0  0.04320  0.18838  0.05925  1.0000
  H   H17       1.0  0.05674  0.22666  0.03117  1.0000
  C   C15       1.0  0.19911  0.22414  0.22157  1.0000
  C   C16       1.0  0.20442  0.17964  0.22460  1.0000
  C   C17       1.0  0.21010  0.15721  0.20824  1.0000
  C   C18       1.0  0.21055  0.17867  0.18857  1.0000
  C   C19       1.0  0.20497  0.22291  0.18553  1.0000
  C   C20       1.0  0.19940  0.24544  0.20189  1.0000
  H   H18       1.0  0.20431  0.16260  0.23957  1.0000
  H   H19       1.0  0.21427  0.12296  0.21087  1.0000
  H   H20       1.0  0.20477  0.23967  0.17056  1.0000
  H   H21       1.0  0.19521  0.27968  0.19926  1.0000
  S   S9        1.0  0.19191  0.25479  0.24158  1.0000
  H   H22       1.0  0.01368  0.05498  0.16925  1.0000
  C   C21       1.0  0.22416  0.10010  0.03301  1.0000
  C   C22       1.0  0.21191  0.10978  0.04368  1.0000
  C   C23       1.0  0.20041  0.10588  0.03457  1.0000
  C   C24       1.0  0.20109  0.09221  0.01529  1.0000
  H   H23       1.0  0.04137  0.35313  0.02573  1.0000
  H   H24       1.0  0.23313  0.10347  0.03948  1.0000
  H   H25       1.0  0.19085  0.11336  0.04254  1.0000
  C   C25       1.0  0.03348  0.99061  0.23012  1.0000
  C   C26       1.0  0.00264  0.22228  0.18226  1.0000
  H   H26       1.0  0.06443  0.04005  0.00666  1.0000
  C   C27       1.0  0.03675  0.98452  0.19471  1.0000
  C   C28       1.0  0.11792  0.19694  0.24844  1.0000
  C   C29       1.0  0.02388  0.22432  0.16386  1.0000
  C   C30       1.0  0.03436  0.31190  0.00667  1.0000
  H   H27       1.0  0.05242  0.98685  0.21331  1.0000
  H   H28       1.0  0.03750  0.99388  0.24396  1.0000
  C   C31       1.0  0.22898  0.27222  0.14571  1.0000
  N   N1        1.0  0.15435  0.21604  0.23645  1.0000
  C   C32       1.0  0.03921  0.17125  0.00453  1.0000
  C   C33       1.0  0.24355  0.95629  0.04759  1.0000
  H   H29       1.0  0.23178  0.32592  0.00387  1.0000
  H   H30       1.0  0.21795  0.02129  0.06938  1.0000
  C   C34       1.0  0.15860  0.23857  0.21656  1.0000
  C   C35       1.0  0.04844  0.19890  0.00826  1.0000
  H   H31       1.0  0.03288  0.00910  0.15430  1.0000
  H   H32       1.0  0.02231  0.97870  0.14328  1.0000
  H   H33       1.0  0.01342  0.99592  0.24298  1.0000
  C   C36       1.0  0.02549  0.28159  0.00500  1.0000
  H   H34       1.0  0.15127  0.26691  0.21194  1.0000
  N   N2        1.0  0.01522  0.24288  0.18043  1.0000
  H   H35       1.0  0.01046  0.24358  0.01903  1.0000
  C   C37       1.0  0.22124  0.22872  0.02617  1.0000
  H   H36       1.0  0.99968  0.02921  0.18151  1.0000
  C   C38       1.0  0.12769  0.14980  0.22375  1.0000
  C   C39       1.0  0.00820  0.02528  0.17011  1.0000
  C   C40       1.0  0.13972  0.16754  0.22349  1.0000
  C   C41       1.0  0.01634  0.28627  0.03968  1.0000
  C   C42       1.0  0.03431  0.32996  0.02449  1.0000
  C   C43       1.0  0.00925  0.94543  0.17656  1.0000
  H   H37       1.0  0.00407  0.20859  0.04995  1.0000
  H   H38       1.0  0.02131  0.22309  0.07011  1.0000
  H   H39       1.0  0.04383  0.98318  0.18180  1.0000
  H   H40       1.0  0.01309  0.25039  0.24896  1.0000
  H   H41       1.0  0.00391  0.02603  0.15564  1.0000
  H   H42       1.0  0.16831  0.25194  0.21652  1.0000
  Fe  Fe5       1.0  0.23999  0.21499  0.10086  1.0000
  H   H43       1.0  0.23439  0.06453  0.07483  1.0000
  H   H44       1.0  0.00405  0.99115  0.21180  1.0000
  H   H45       1.0  0.00839  0.29870  0.15991  1.0000
  C   C44       1.0  0.14128  0.19990  0.23612  1.0000
  H   H46       1.0  0.03334  0.23965  0.16098  1.0000
  S   S10       1.0  0.99738  0.26531  0.12702  1.0000
  C   C45       1.0  0.21728  0.98977  0.04345  1.0000
  H   H47       1.0  0.23440  0.07716  0.00611  1.0000
  C   C46       1.0  0.23882  0.00266  0.22758  1.0000
  H   H48       1.0  0.01917  0.23063  0.14962  1.0000
  H   H49       1.0  0.00820  0.24293  0.08751  1.0000
  H   H50       1.0  0.24118  0.99390  0.11029  1.0000
  H   H51       1.0  0.22055  0.20878  0.04061  1.0000
  H   H52       1.0  0.21974  0.29474  0.14372  1.0000
  C   C47       1.0  0.22667  0.26905  0.02403  1.0000
  C   C48       1.0  0.22355  0.99946  0.05944  1.0000
  C   C49       1.0  0.22412  0.96400  0.02943  1.0000
  H   H53       1.0  0.02611  0.18761  0.16693  1.0000
  C   C50       1.0  0.01990  0.99200  0.22950  1.0000
  H   H54       1.0  0.00501  0.94257  0.16237  1.0000
  C   C51       1.0  0.02702  0.97995  0.15722  1.0000
  H   H55       1.0  0.03392  0.94911  0.15938  1.0000
  C   C52       1.0  0.01243  0.29140  0.17472  1.0000
  C   C53       1.0  0.01666  0.26848  0.02124  1.0000
  H   H56       1.0  0.16615  0.15490  0.22985  1.0000
  C   C54       1.0  0.02292  0.98573  0.19354  1.0000
  N   N3        1.0  0.01707  0.98404  0.17464  1.0000
  C   C55       1.0  0.04187  0.98666  0.21280  1.0000
  C   C56       1.0  0.01381  0.24890  0.21719  1.0000
  C   C57       1.0  0.23598  0.98617  0.09772  1.0000
  H   H57       1.0  0.23126  0.01425  0.21753  1.0000
  H   H58       1.0  0.02117  0.27638  0.07874  1.0000
  N   N4        1.0  0.00718  0.27325  0.05726  1.0000
  S   S11       1.0  0.00112  0.13645  0.14790  1.0000
  H   H59       1.0  0.00562  0.94653  0.00868  1.0000
  H   H60       1.0  0.12680  0.12428  0.21435  1.0000
  H   H61       1.0  0.01548  0.91382  0.18068  1.0000
  C   C58       1.0  0.03913  0.20542  0.22044  1.0000
  S   S12       1.0  0.24477  0.15997  0.08139  1.0000
  C   C59       1.0  0.23718  0.94699  0.03159  1.0000
  C   C60       1.0  0.03404  0.21317  0.20187  1.0000
  H   H62       1.0  0.00452  0.33766  0.06826  1.0000
  C   C61       1.0  0.01895  0.24040  0.23573  1.0000
  H   H63       1.0  0.23922  0.20815  0.17826  1.0000
  C   C62       1.0  0.12992  0.21466  0.24844  1.0000
  H   H64       1.0  0.14787  0.15513  0.21355  1.0000
  C   C63       1.0  0.23692  0.98328  0.06196  1.0000
  H   H65       1.0  0.00420  0.18619  0.18760  1.0000
  H   H66       1.0  0.20720  0.00370  0.04152  1.0000
  H   H67       1.0  0.14757  0.27856  0.24790  1.0000
  H   H68       1.0  0.23445  0.95026  0.10036  1.0000
  H   H69       1.0  0.15992  0.21575  0.20482  1.0000
  Fe  Fe6       1.0  0.00241  0.19231  0.12310  1.0000
  H   H70       1.0  0.22281  0.32674  0.17489  1.0000
  C   C64       1.0  0.02111  0.23487  0.19972  1.0000
  H   H71       1.0  0.05007  0.01110  0.01090  1.0000
  H   H72       1.0  0.23019  0.28052  0.03680  1.0000
  H   H73       1.0  0.19212  0.08929  0.00867  1.0000
  N   N5        1.0  0.24359  0.99682  0.07819  1.0000
  H   H74       1.0  0.23228  0.35825  0.14389  1.0000
  C   C65       1.0  0.21659  0.21390  0.00983  1.0000
  H   H75       1.0  0.22733  0.27128  0.18514  1.0000
  C   C66       1.0  0.02542  0.31759  0.04076  1.0000
  H   H76       1.0  0.22614  0.00576  0.09894  1.0000
  H   H77       1.0  0.04885  0.18755  0.22190  1.0000
  H   H78       1.0  0.22610  0.23976  0.15320  1.0000
  C   C67       1.0  0.16426  0.17782  0.24154  1.0000
  C   C68       1.0  0.01482  0.25315  0.07408  1.0000
  H   H79       1.0  0.02584  0.33231  0.05429  1.0000
  C   C69       1.0  0.22751  0.29456  0.00549  1.0000
  C   C70       1.0  0.03155  0.21836  0.23736  1.0000
  C   C71       1.0  0.99832  0.24033  0.05368  1.0000
  H   H80       1.0  0.17403  0.18889  0.24323  1.0000
  C   C72       1.0  0.21334  0.08123  0.00489  1.0000
  H   H81       1.0  0.24245  0.92703  0.02057  1.0000
  H   H82       1.0  0.99827  0.22574  0.16775  1.0000
  C   C73       1.0  0.24432  0.04543  0.07463  1.0000
  H   H83       1.0  0.06588  0.98310  0.00219  1.0000
  C   C74       1.0  0.23138  0.30094  0.17651  1.0000
  S   S13       1.0  0.24412  0.28625  0.09032  1.0000
  N   N6        1.0  0.23819  0.29131  0.15689  1.0000
  H   H84       1.0  0.23825  0.31290  0.18582  1.0000
  C   C75       1.0  0.24130  0.33438  0.14552  1.0000
  H   H85       1.0  0.24562  0.33003  0.13005  1.0000
  C   C76       1.0  0.05928  0.01480  0.00080  1.0000
  C   C77       1.0  0.23719  0.01415  0.24695  1.0000
  Fe  Fe7       1.0  0.19519  0.56695  0.45174  1.0000
  S   S14       1.0  0.18834  0.63142  0.43358  1.0000
  S   S15       1.0  0.20692  0.56555  0.47944  1.0000
  Fe  Fe8       1.0  0.19133  0.51079  0.41693  1.0000
  S   S16       1.0  0.18503  0.57252  0.39742  1.0000
  S   S17       1.0  0.19235  0.44063  0.40655  1.0000
  Fe  Fe9       1.0  0.20124  0.60422  0.40823  1.0000
  S   S18       1.0  0.21530  0.64186  0.38586  1.0000
  Fe  Fe10      1.0  0.17250  0.59390  0.42450  1.0000
  S   S19       1.0  0.15249  0.62350  0.41400  1.0000
  S   S20       1.0  0.20858  0.54093  0.42609  1.0000
  S   S21       1.0  0.17835  0.53065  0.44421  1.0000
  Fe  Fe11      1.0  0.18845  0.17904  0.31513  1.0000
  S   S22       1.0  0.19981  0.23602  0.30075  1.0000
  S   S23       1.0  0.19462  0.10798  0.32819  1.0000
  Fe  Fe12      1.0  0.16174  0.22637  0.30473  1.0000
  S   S24       1.0  0.17120  0.28649  0.28987  1.0000
  S   S25       1.0  0.13923  0.22583  0.30787  1.0000
  Fe  Fe13      1.0  0.18680  0.23860  0.27555  1.0000
  Fe  Fe14      1.0  0.18340  0.28022  0.31619  1.0000
  S   S26       1.0  0.18522  0.34712  0.32851  1.0000
  S   S27       1.0  0.17645  0.17930  0.28906  1.0000
  S   S28       1.0  0.17289  0.22262  0.33186  1.0000
  Fe  Fe15      1.0  0.07968  0.08506  0.29409  1.0000
  S   S29       1.0  0.07204  0.06597  0.32595  1.0000
  S   S30       1.0  0.10169  0.09014  0.28472  1.0000
  Fe  Fe16      1.0  0.05247  0.08651  0.27827  1.0000
  S   S31       1.0  0.04296  0.06822  0.30935  1.0000
  C   C78       1.0  0.03054  0.36493  0.33981  1.0000
  Fe  Fe17      1.0  0.05491  0.11718  0.31903  1.0000
  S   S32       1.0  0.04808  0.16245  0.34299  1.0000
  Fe  Fe18      1.0  0.06059  0.01794  0.31421  1.0000
  S   S33       1.0  0.05634  0.94742  0.32793  1.0000
  S   S34       1.0  0.06329  0.13972  0.28792  1.0000
  S   S35       1.0  0.06938  0.03287  0.28243  1.0000
  Fe  Fe19      1.0  0.07293  0.65939  0.43621  1.0000
  S   S36       1.0  0.06411  0.71914  0.45129  1.0000
  S   S37       1.0  0.09191  0.62292  0.44782  1.0000
  Fe  Fe20      1.0  0.04892  0.66229  0.41247  1.0000
  S   S38       1.0  0.03904  0.72300  0.42581  1.0000
  S   S39       1.0  0.03558  0.64160  0.39115  1.0000
  Fe  Fe21      1.0  0.05889  0.74915  0.42048  1.0000
  S   S40       1.0  0.06365  0.82101  0.40996  1.0000
  Fe  Fe22      1.0  0.04509  0.68757  0.45515  1.0000
  S   S41       1.0  0.02849  0.68150  0.48053  1.0000
  S   S42       1.0  0.06863  0.69061  0.40531  1.0000
  S   S43       1.0  0.05409  0.62583  0.44193  1.0000
  H   H86       1.0  0.10590  0.84445  0.40058  1.0000
  S   S44       1.0  0.02085  0.45180  0.37602  1.0000
  C   C79       1.0  0.03147  0.58827  0.38776  1.0000
  C   C80       1.0  0.03863  0.54904  0.39538  1.0000
  C   C81       1.0  0.03512  0.50749  0.39190  1.0000
  C   C82       1.0  0.02422  0.50467  0.38128  1.0000
  C   C83       1.0  0.01686  0.54386  0.37413  1.0000
  C   C84       1.0  0.02060  0.58542  0.37711  1.0000
  H   H87       1.0  0.04703  0.55074  0.40354  1.0000
  H   H88       1.0  0.04091  0.47736  0.39742  1.0000
  H   H89       1.0  0.22956  0.71058  0.36304  1.0000
  H   H90       1.0  0.01503  0.61559  0.37109  1.0000
  C   C85       1.0  0.05930  0.91188  0.35039  1.0000
  C   C86       1.0  0.06605  0.92427  0.36536  1.0000
  C   C87       1.0  0.06731  0.89601  0.38339  1.0000
  C   C88       1.0  0.06205  0.85468  0.38664  1.0000
  C   C89       1.0  0.05553  0.84197  0.37153  1.0000
  C   C90       1.0  0.05412  0.87045  0.35361  1.0000
  H   H91       1.0  0.07020  0.95574  0.36314  1.0000
  H   H92       1.0  0.07238  0.90630  0.39493  1.0000
  H   H93       1.0  0.05140  0.81041  0.37373  1.0000
  H   H94       1.0  0.04889  0.86035  0.34219  1.0000
  C   C91       1.0  0.03288  0.19648  0.34436  1.0000
  C   C92       1.0  0.03042  0.22594  0.35895  1.0000
  C   C93       1.0  0.01829  0.25262  0.36101  1.0000
  C   C94       1.0  0.00844  0.24955  0.34865  1.0000
  C   C95       1.0  0.01088  0.21996  0.33409  1.0000
  C   C96       1.0  0.02311  0.19388  0.33178  1.0000
  H   H95       1.0  0.03790  0.22761  0.36887  1.0000
  H   H96       1.0  0.01638  0.27443  0.37260  1.0000
  H   H97       1.0  0.21571  0.36379  0.32543  1.0000
  H   H98       1.0  0.02488  0.17115  0.32055  1.0000
  C   C97       1.0  0.12906  0.18707  0.30160  1.0000
  C   C98       1.0  0.13415  0.15150  0.29099  1.0000
  C   C99       1.0  0.12567  0.12197  0.28610  1.0000
  C   C100      1.0  0.11199  0.12767  0.29170  1.0000
  C   C101      1.0  0.10690  0.16322  0.30235  1.0000
  C   C102      1.0  0.11540  0.19273  0.30722  1.0000
  H   H99       1.0  0.14455  0.14731  0.28621  1.0000
  H   H100      1.0  0.12968  0.09478  0.27774  1.0000
  H   H101      1.0  0.09643  0.16806  0.30675  1.0000
  H   H102      1.0  0.11134  0.22022  0.31538  1.0000
  C   C103      1.0  0.23087  0.09461  0.34944  1.0000
  C   C104      1.0  0.21924  0.11340  0.34091  1.0000
  C   C105      1.0  0.20962  0.08624  0.33826  1.0000
  H   H103      1.0  0.00739  0.07221  0.42919  1.0000
  H   H104      1.0  0.21769  0.14884  0.33652  1.0000
  C   C106      1.0  0.18974  0.41568  0.38479  1.0000
  C   C107      1.0  0.19016  0.36899  0.38598  1.0000
  C   C108      1.0  0.18860  0.34745  0.36918  1.0000
  C   C109      1.0  0.18674  0.37221  0.35068  1.0000
  C   C110      1.0  0.18623  0.41896  0.34952  1.0000
  C   C111      1.0  0.18761  0.44052  0.36637  1.0000
  H   H105      1.0  0.19177  0.34915  0.40005  1.0000
  H   H106      1.0  0.18902  0.31160  0.37051  1.0000
  H   H107      1.0  0.18481  0.43868  0.33538  1.0000
  H   H108      1.0  0.18717  0.47632  0.36495  1.0000
  C   C112      1.0  0.13575  0.62201  0.42376  1.0000
  C   C113      1.0  0.13213  0.60459  0.44334  1.0000
  C   C114      1.0  0.11866  0.60505  0.45041  1.0000
  C   C115      1.0  0.10869  0.62303  0.43806  1.0000
  C   C116      1.0  0.11232  0.63992  0.41841  1.0000
  C   C117      1.0  0.12578  0.63954  0.41134  1.0000
  H   H109      1.0  0.13967  0.59114  0.45309  1.0000
  H   H110      1.0  0.11594  0.59170  0.46562  1.0000
  H   H111      1.0  0.10476  0.65274  0.40865  1.0000
  H   H112      1.0  0.12849  0.65317  0.39617  1.0000
  C   C118      1.0  0.22117  0.68968  0.39272  1.0000
  C   C119      1.0  0.22817  0.71769  0.37835  1.0000
  C   C120      1.0  0.12683  0.77827  0.39989  1.0000
  C   C121      1.0  0.21325  0.52360  0.37027  1.0000
  C   C122      1.0  0.14502  0.73822  0.41684  1.0000
  C   C123      1.0  0.13620  0.72427  0.43278  1.0000
  H   H113      1.0  0.08796  0.77234  0.39574  1.0000
  C   C124      1.0  0.05533  0.25994  0.31518  1.0000
  H   H114      1.0  0.00574  0.67601  0.45814  1.0000
  H   H115      1.0  0.03716  0.29904  0.32019  1.0000
  H   H116      1.0  0.21404  0.67800  0.42366  1.0000
  C   C125      1.0  0.09483  0.75823  0.43188  1.0000
  C   C126      1.0  0.21935  0.69934  0.41244  1.0000
  H   H117      1.0  0.10430  0.83838  0.42735  1.0000
  H   H118      1.0  0.09711  0.76831  0.44620  1.0000
  C   C127      1.0  0.22865  0.81407  0.48529  1.0000
  C   C128      1.0  0.14036  0.76530  0.40045  1.0000
  H   H119      1.0  0.13988  0.70219  0.44525  1.0000
  H   H120      1.0  0.15546  0.72707  0.41703  1.0000
  H   H121      1.0  0.10120  0.72832  0.39565  1.0000
  H   H122      1.0  0.08421  0.76957  0.43059  1.0000
  C   C129      1.0  0.09884  0.76464  0.39635  1.0000
  H   H123      1.0  0.13194  0.12134  0.34086  1.0000
  H   H124      1.0  0.02460  0.33620  0.34355  1.0000
  C   C130      1.0  0.04224  0.34143  0.36872  1.0000
  H   H125      1.0  0.09584  0.72121  0.43293  1.0000
  N   N7        1.0  0.10326  0.77792  0.41466  1.0000
  C   C131      1.0  0.11753  0.76390  0.41571  1.0000
  H   H126      1.0  0.15212  0.12323  0.35163  1.0000
  H   H127      1.0  0.03106  0.37504  0.32346  1.0000
  C   C132      1.0  0.22455  0.73640  0.41778  1.0000
  C   C133      1.0  0.02049  0.60827  0.44350  1.0000
  C   C134      1.0  0.01086  0.07935  0.41360  1.0000
  H   H128      1.0  0.13008  0.23879  0.25874  1.0000
  H   H129      1.0  0.22028  0.49957  0.32960  1.0000
  H   H130      1.0  0.22839  0.03457  0.25198  1.0000
  H   H131      1.0  0.16101  0.15819  0.25578  1.0000
  H   H132      1.0  0.02335  0.10783  0.35821  1.0000
  H   H133      1.0  0.01129  0.55468  0.41682  1.0000
  H   H134      1.0  0.23004  0.78781  0.45711  1.0000
  H   H135      1.0  0.14728  0.77574  0.38803  1.0000
  C   C135      1.0  0.21817  0.43293  0.32549  1.0000
  H   H136      1.0  0.00979  0.16391  0.37604  1.0000
  H   H137      1.0  0.21988  0.45950  0.39850  1.0000
  H   H138      1.0  0.21456  0.55084  0.37913  1.0000
  H   H139      1.0  0.23171  0.84595  0.47861  1.0000
  H   H140      1.0  0.02069  0.01471  0.41227  1.0000
  C   C136      1.0  0.21801  0.38903  0.33408  1.0000
  H   H141      1.0  0.23867  0.77649  0.37259  1.0000
  C   C137      1.0  0.00347  0.64619  0.42384  1.0000
  H   H142      1.0  0.00326  0.21705  0.32461  1.0000
  H   H143      1.0  0.21952  0.34398  0.36083  1.0000
  C   C138      1.0  0.22055  0.46588  0.33684  1.0000
  C   C139      1.0  0.01989  0.09847  0.37359  1.0000
  H   H144      1.0  0.22307  0.74344  0.43308  1.0000
  H   H145      1.0  0.12697  0.97432  0.32038  1.0000
  H   H146      1.0  0.14922  0.99358  0.32274  1.0000
  H   H147      1.0  0.23039  0.50225  0.39790  1.0000
  C   C140      1.0  0.22017  0.37793  0.35406  1.0000
  C   C141      1.0  0.21178  0.04023  0.34405  1.0000
  C   C142      1.0  0.23336  0.75498  0.38371  1.0000
  H   H148      1.0  0.20439  0.01897  0.34206  1.0000
  C   C143      1.0  0.23302  0.04860  0.35525  1.0000
  H   H149      1.0  0.05095  0.01230  0.35691  1.0000
  C   C144      1.0  0.00097  0.64455  0.45937  1.0000
  C   C145      1.0  0.10083  0.82697  0.41406  1.0000
  H   H150      1.0  0.03776  0.30950  0.37214  1.0000
  H   H151      1.0  0.11023  0.09931  0.33896  1.0000
  C   C146      1.0  0.03367  0.97716  0.38396  1.0000
  C   C147      1.0  0.12264  0.73652  0.43229  1.0000
  H   H152      1.0  0.09012  0.83870  0.41383  1.0000
  C   C148      1.0  0.22344  0.02142  0.35245  1.0000
  H   H153      1.0  0.21613  0.44149  0.31006  1.0000
  H   H154      1.0  0.10342  0.78222  0.38250  1.0000
  H   H155      1.0  0.12370  0.79936  0.38689  1.0000
  H   H156      1.0  0.02365  0.04504  0.34371  1.0000
  C   C149      1.0  0.23164  0.76426  0.40352  1.0000
  C   C150      1.0  0.22384  0.74019  0.48154  1.0000
  H   H157      1.0  0.11639  0.72300  0.44487  1.0000
  H   H158      1.0  0.15211  0.14281  0.32533  1.0000
  N   N8        1.0  0.14614  0.49066  0.40025  1.0000
  C   C151      1.0  0.15976  0.49546  0.40450  1.0000
  C   C152      1.0  0.14157  0.52919  0.38609  1.0000
  C   C153      1.0  0.13752  0.49301  0.41919  1.0000
  C   C154      1.0  0.14608  0.44867  0.39142  1.0000
  C   C155      1.0  0.13943  0.41233  0.40119  1.0000
  C   C156      1.0  0.15315  0.44271  0.37265  1.0000
  C   C157      1.0  0.13987  0.37278  0.39256  1.0000
  C   C158      1.0  0.15342  0.40320  0.36411  1.0000
  C   C159      1.0  0.14686  0.36823  0.37408  1.0000
  H   H159      1.0  0.16018  0.52634  0.41147  1.0000
  H   H160      1.0  0.16369  0.46676  0.41483  1.0000
  H   H161      1.0  0.16675  0.49721  0.39084  1.0000
  H   H162      1.0  0.14842  0.53355  0.37236  1.0000
  H   H163      1.0  0.14090  0.56108  0.39272  1.0000
  H   H164      1.0  0.13163  0.52567  0.38163  1.0000
  H   H165      1.0  0.13764  0.52536  0.42514  1.0000
  H   H166      1.0  0.12704  0.49000  0.41708  1.0000
  H   H167      1.0  0.14093  0.46698  0.43109  1.0000
  H   H168      1.0  0.13392  0.41342  0.41559  1.0000
  H   H169      1.0  0.15875  0.46826  0.36456  1.0000
  H   H170      1.0  0.13486  0.34529  0.40033  1.0000
  H   H171      1.0  0.15895  0.39926  0.34979  1.0000
  H   H172      1.0  0.14733  0.33741  0.36749  1.0000
  N   N9        1.0  0.15656  0.07188  0.33197  1.0000
  C   C160      1.0  0.16357  0.04159  0.34718  1.0000
  C   C161      1.0  0.16394  0.06785  0.31215  1.0000
  C   C162      1.0  0.15692  0.11809  0.33653  1.0000
  C   C163      1.0  0.14299  0.05957  0.33184  1.0000
  C   C164      1.0  0.13149  0.08848  0.33678  1.0000
  C   C165      1.0  0.14097  0.01753  0.32642  1.0000
  C   C166      1.0  0.11886  0.07624  0.33578  1.0000
  C   C167      1.0  0.12829  0.00597  0.32519  1.0000
  C   C168      1.0  0.11726  0.03543  0.32970  1.0000
  H   H173      1.0  0.17379  0.05050  0.34784  1.0000
  H   H174      1.0  0.15826  0.04316  0.36228  1.0000
  H   H175      1.0  0.16463  0.00641  0.34404  1.0000
  H   H176      1.0  0.17385  0.07999  0.31120  1.0000
  H   H177      1.0  0.15850  0.08755  0.30012  1.0000
  H   H178      1.0  0.16579  0.03296  0.30866  1.0000
  H   H179      1.0  0.16722  0.12646  0.33638  1.0000
  H   H180      1.0  0.08359  0.26485  0.33628  1.0000
  N   N10       1.0  0.04391  0.35489  0.34694  1.0000
  H   H181      1.0  0.03478  0.55086  0.48643  1.0000
  C   C169      1.0  0.04728  0.29405  0.32380  1.0000
  H   H182      1.0  0.03940  0.95223  0.37491  1.0000
  H   H183      1.0  0.15176  0.23283  0.26665  1.0000
  C   C170      1.0  0.06836  0.24958  0.31964  1.0000
  H   H184      1.0  0.05976  0.39415  0.35019  1.0000
  H   H185      1.0  0.02477  0.39285  0.34694  1.0000
  C   C171      1.0  0.05219  0.31921  0.33715  1.0000
  H   H186      1.0  0.05242  0.40678  0.32696  1.0000
  C   C172      1.0  0.05034  0.39677  0.34321  1.0000
  H   H187      1.0  0.04399  0.42481  0.34958  1.0000
  C   C173      1.0  0.07348  0.27348  0.33267  1.0000
  C   C174      1.0  0.06553  0.30770  0.34137  1.0000
  H   H188      1.0  0.00854  0.54222  0.36578  1.0000
  H   H189      1.0  0.07440  0.22223  0.31333  1.0000
  H   H190      1.0  0.02423  0.96319  0.38952  1.0000
  H   H191      1.0  0.23720  0.45001  0.38983  1.0000
  H   H192      1.0  0.06986  0.32457  0.35173  1.0000
  H   H193      1.0  0.05176  0.33702  0.37555  1.0000
  H   H194      1.0  0.03947  0.97879  0.39676  1.0000
  H   H195      1.0  0.03567  0.36672  0.37662  1.0000
  H   H196      1.0  0.22498  0.98600  0.35689  1.0000
  H   H197      1.0  0.23871  0.54120  0.36812  1.0000
  N   N11       1.0  0.03139  0.02126  0.37204  1.0000
  H   H198      1.0  0.02526  0.63933  0.44337  1.0000
  H   H199      1.0  0.04966  0.04326  0.37801  1.0000
  H   H200      1.0  0.04371  0.06840  0.35499  1.0000
  H   H201      1.0  0.03070  0.98875  0.34575  1.0000
  Fe  Fe23      1.0  0.00086  0.43137  0.37071  1.0000
  C   C175      1.0  0.02484  0.01441  0.35436  1.0000
  C   C176      1.0  0.04447  0.03696  0.36523  1.0000
  C   C177      1.0  0.02323  0.05504  0.38317  1.0000
  H   H202      1.0  0.01487  0.00336  0.35881  1.0000
  C   C178      1.0  0.01219  0.13098  0.38370  1.0000
  H   H203      1.0  0.05127  0.24011  0.30561  1.0000
  S   S45       1.0  0.23821  0.80967  0.41142  1.0000
  H   H204      1.0  0.23824  0.11587  0.35154  1.0000
  H   H205      1.0  0.02537  0.59208  0.43050  1.0000
  H   H206      1.0  0.00783  0.67836  0.42274  1.0000
  C   C179      1.0  0.23643  0.51527  0.35915  1.0000
  C   C180      1.0  0.00769  0.12147  0.40366  1.0000
  H   H207      1.0  0.02293  0.58637  0.45724  1.0000
  H   H208      1.0  0.21062  0.53981  0.35543  1.0000
  H   H209      1.0  0.10744  0.02707  0.32811  1.0000
  N   N12       1.0  0.22522  0.49139  0.36898  1.0000
  C   C181      1.0  0.01853  0.04646  0.40361  1.0000
  H   H210      1.0  0.23433  0.53320  0.34437  1.0000
  C   C182      1.0  0.22834  0.47483  0.38966  1.0000
  H   H211      1.0  0.22355  0.39981  0.38115  1.0000
  N   N13       1.0  0.00602  0.61795  0.44276  1.0000
  C   C183      1.0  0.22250  0.41061  0.36559  1.0000
  C   C184      1.0  0.22289  0.45572  0.35723  1.0000
  C   C185      1.0  0.00379  0.54697  0.42872  1.0000
  H   H212      1.0  0.01262  0.52439  0.48803  1.0000
  C   C186      1.0  0.99995  0.57585  0.44361  1.0000
  H   H213      1.0  0.22307  0.71470  0.47202  1.0000
  H   H214      1.0  0.00798  0.63029  0.41055  1.0000
  H   H215      1.0  0.20462  0.50689  0.37757  1.0000
  H   H216      1.0  0.00322  0.62631  0.47408  1.0000
  H   H217      1.0  0.24550  0.49180  0.35698  1.0000
  C   C187      1.0  0.22774  0.78125  0.47312  1.0000
  H   H218      1.0  0.03540  0.21047  0.25180  1.0000
  S   S46       1.0  0.03755  0.09912  0.25446  1.0000
  H   H219      1.0  0.24555  0.00811  0.27499  1.0000
  H   H220      1.0  0.00179  0.14695  0.41146  1.0000
  H   H221      1.0  0.00092  0.48666  0.41692  1.0000
  C   C188      1.0  0.99793  0.50779  0.42869  1.0000
  H   H222      1.0  0.10951  0.20743  0.25848  1.0000
  C   C189      1.0  0.15443  0.24806  0.25119  1.0000
  H   H223      1.0  0.16436  0.25956  0.25112  1.0000
  C   C190      1.0  0.21930  0.58150  0.51192  1.0000
  C   C191      1.0  0.20722  0.58548  0.50322  1.0000
  S   S47       1.0  0.22702  0.59582  0.61804  1.0000
  H   H224      1.0  0.20130  0.73584  0.55685  1.0000
  S   S48       1.0  0.21819  0.70028  0.60625  1.0000
  Fe  Fe24      1.0  0.22425  0.65751  0.63419  1.0000
  S   S49       1.0  0.21127  0.65352  0.66435  1.0000
  Fe  Fe25      1.0  0.22279  0.63990  0.58959  1.0000
  S   S50       1.0  0.20875  0.62914  0.56630  1.0000
  C   C192      1.0  0.23804  0.46773  0.61869  1.0000
  H   H225      1.0  0.22886  0.80354  0.54678  1.0000
  Fe  Fe26      1.0  0.01541  0.64449  0.60101  1.0000
  S   S51       1.0  0.01980  0.58995  0.62577  1.0000
  S   S52       1.0  0.03159  0.64789  0.57498  1.0000
  H   H226      1.0  0.24496  0.55359  0.58461  1.0000
  H   H227      1.0  0.21602  0.78497  0.56429  1.0000
  Fe  Fe27      1.0  0.01378  0.64067  0.64727  1.0000
  S   S53       1.0  0.02653  0.65720  0.67075  1.0000
  C   C193      1.0  0.02872  0.54704  0.50049  1.0000
  S   S54       1.0  0.01076  0.69639  0.62230  1.0000
  C   C194      1.0  0.99970  0.48947  0.56050  1.0000
  C   C195      1.0  0.01293  0.53808  0.53744  1.0000
  C   C196      1.0  0.01788  0.67246  0.51968  1.0000
  C   C197      1.0  0.01827  0.66551  0.54057  1.0000
  C   C198      1.0  0.03040  0.65881  0.54881  1.0000
  C   C199      1.0  0.04209  0.65950  0.53590  1.0000
  C   C200      1.0  0.04170  0.66690  0.51502  1.0000
  H   H228      1.0  0.20323  0.71085  0.53448  1.0000
  H   H229      1.0  0.00921  0.66554  0.55028  1.0000
  H   H230      1.0  0.05154  0.65436  0.54206  1.0000
  C   C201      1.0  0.20431  0.74226  0.54057  1.0000
  C   C202      1.0  0.03901  0.58792  0.73156  1.0000
  C   C203      1.0  0.03038  0.56872  0.72113  1.0000
  C   C204      1.0  0.02637  0.58941  0.70262  1.0000
  C   C205      1.0  0.03091  0.62983  0.69429  1.0000
  C   C206      1.0  0.03949  0.64919  0.70477  1.0000
  C   C207      1.0  0.04359  0.62833  0.72320  1.0000
  H   H231      1.0  0.02679  0.53745  0.72739  1.0000
  H   H232      1.0  0.01982  0.57395  0.69475  1.0000
  H   H233      1.0  0.04313  0.68034  0.69845  1.0000
  H   H234      1.0  0.05033  0.64342  0.73086  1.0000
  H   H235      1.0  0.07386  0.66309  0.60976  1.0000
  N   N14       1.0  0.23920  0.48990  0.58113  1.0000
  N   N15       1.0  0.00429  0.53450  0.55634  1.0000
  C   C208      1.0  0.22006  0.59535  0.53089  1.0000
  C   C209      1.0  0.20865  0.61258  0.54180  1.0000
  C   C210      1.0  0.19660  0.61694  0.53305  1.0000
  C   C211      1.0  0.19589  0.60394  0.51391  1.0000
  C   C212      1.0  0.00842  0.52816  0.51959  1.0000
  H   H236      1.0  0.22945  0.59223  0.53706  1.0000
  H   H237      1.0  0.18767  0.63019  0.54120  1.0000
  H   H238      1.0  0.02990  0.56233  0.54849  1.0000
  C   C213      1.0  0.20714  0.70879  0.72590  1.0000
  C   C214      1.0  0.19791  0.68250  0.72092  1.0000
  C   C215      1.0  0.19938  0.66603  0.70213  1.0000
  C   C216      1.0  0.21001  0.67574  0.68785  1.0000
  C   C217      1.0  0.21924  0.70203  0.69284  1.0000
  C   C218      1.0  0.21782  0.71825  0.71169  1.0000
  H   H239      1.0  0.18955  0.67514  0.73143  1.0000
  H   H240      1.0  0.19211  0.64597  0.69852  1.0000
  H   H241      1.0  0.22746  0.70999  0.68216  1.0000
  H   H242      1.0  0.22504  0.73858  0.71522  1.0000
  H   H243      1.0  0.07972  0.61099  0.62320  1.0000
  H   H244      1.0  0.21173  0.82265  0.54298  1.0000
  H   H245      1.0  0.20832  0.57985  0.74669  1.0000
  C   C219      1.0  0.03342  0.55721  0.51767  1.0000
  H   H246      1.0  0.00427  0.53780  0.58798  1.0000
  H   H247      1.0  0.22258  0.48889  0.56389  1.0000
  C   C220      1.0  0.22142  0.76479  0.51496  1.0000
  H   H248      1.0  0.04303  0.56939  0.51679  1.0000
  H   H249      1.0  0.01613  0.71526  0.74200  1.0000
  H   H250      1.0  0.01825  0.65631  0.74271  1.0000
  H   H251      1.0  0.20087  0.51128  0.62410  1.0000
  Fe  Fe28      1.0  0.23976  0.70993  0.59949  1.0000
  N   N16       1.0  0.05859  0.62520  0.62543  1.0000
  C   C221      1.0  0.05680  0.60888  0.60629  1.0000
  C   C222      1.0  0.04875  0.66419  0.62799  1.0000
  C   C223      1.0  0.07203  0.63993  0.62358  1.0000
  C   C224      1.0  0.05692  0.59135  0.64296  1.0000
  C   C225      1.0  0.05215  0.54977  0.64186  1.0000
  C   C226      1.0  0.05972  0.60008  0.66203  1.0000
  C   C227      1.0  0.05042  0.51907  0.65882  1.0000
  C   C228      1.0  0.05820  0.56876  0.67879  1.0000
  C   C229      1.0  0.05347  0.52851  0.67723  1.0000
  H   H252      1.0  0.06384  0.57923  0.60348  1.0000
  H   H253      1.0  0.04657  0.60043  0.60591  1.0000
  H   H254      1.0  0.05829  0.63474  0.59334  1.0000
  H   H255      1.0  0.03855  0.65431  0.62975  1.0000
  H   H256      1.0  0.04935  0.69021  0.61496  1.0000
  H   H257      1.0  0.04988  0.67999  0.64152  1.0000
  H   H258      1.0  0.07364  0.65831  0.63608  1.0000
  H   H259      1.0  0.04941  0.54045  0.62819  1.0000
  H   H260      1.0  0.06268  0.63178  0.66431  1.0000
  H   H261      1.0  0.04647  0.48805  0.65777  1.0000
  H   H262      1.0  0.06021  0.57642  0.69327  1.0000
  H   H263      1.0  0.05189  0.50506  0.69043  1.0000
  C   C230      1.0  0.21120  0.49831  0.62251  1.0000
  H   H264      1.0  0.05078  0.66742  0.50533  1.0000
  C   C231      1.0  0.02570  0.55293  0.53591  1.0000
  H   H265      1.0  0.18651  0.60722  0.50763  1.0000
  H   H266      1.0  0.01369  0.57671  0.57262  1.0000
  S   S55       1.0  0.24569  0.67091  0.62830  1.0000
  H   H267      1.0  0.22471  0.71002  0.56120  1.0000
  H   H268      1.0  0.00845  0.67755  0.51349  1.0000
  H   H269      1.0  0.99873  0.51734  0.51958  1.0000
  C   C232      1.0  0.22717  0.71806  0.54491  1.0000
  H   H270      1.0  0.22671  0.68692  0.53823  1.0000
  C   C233      1.0  0.23230  0.47010  0.56678  1.0000
  C   C234      1.0  0.01625  0.53241  0.50143  1.0000
  C   C235      1.0  0.23985  0.53768  0.57417  1.0000
  H   H271      1.0  0.19707  0.76857  0.53394  1.0000
  H   H272      1.0  0.21775  0.69946  0.50790  1.0000
  C   C236      1.0  0.23187  0.48542  0.60116  1.0000
  S   S56       1.0  0.24397  0.65185  0.58172  1.0000
  N   N17       1.0  0.21796  0.75527  0.53669  1.0000
  C   C237      1.0  0.21866  0.79350  0.54800  1.0000
  C   C238      1.0  0.01088  0.54218  0.57390  1.0000
  H   H273      1.0  0.22988  0.55621  0.57319  1.0000
  C   C239      1.0  0.02958  0.67331  0.50676  1.0000
  H   H274      1.0  0.00816  0.46308  0.55999  1.0000
  H   H275      1.0  0.01983  0.51828  0.57600  1.0000
  H   H276      1.0  0.21210  0.47959  0.65396  1.0000
  H   H277      1.0  0.21299  0.51666  0.59122  1.0000
  H   H278      1.0  0.23806  0.47013  0.55194  1.0000
  C   C240      1.0  0.22559  0.80617  0.50591  1.0000
  H   H279      1.0  0.23058  0.43512  0.57236  1.0000
  C   C241      1.0  0.22075  0.73190  0.50212  1.0000
  H   H280      1.0  0.23756  0.72646  0.54263  1.0000
  C   C242      1.0  0.21824  0.50090  0.60369  1.0000
  C   C243      1.0  0.21752  0.48066  0.63936  1.0000
  S   S57       1.0  0.24444  0.77727  0.58333  1.0000
  H   H281      1.0  0.24536  0.54290  0.55920  1.0000
  H   H282      1.0  0.22652  0.83309  0.51440  1.0000
  H   H283      1.0  0.22878  0.53325  0.74233  1.0000
  H   H284      1.0  0.23587  0.45239  0.65062  1.0000
  H   H285      1.0  0.22938  0.60741  0.73712  1.0000
  Fe  Fe29      1.0  0.99827  0.58016  0.62728  1.0000
  H   H286      1.0  0.22817  0.56751  0.50387  1.0000
  C   C244      1.0  0.23090  0.46540  0.63744  1.0000
  Fe  Fe30      1.0  0.16739  0.72105  0.80665  1.0000
  S   S58       1.0  0.17787  0.77933  0.79119  1.0000
  S   S59       1.0  0.14502  0.71861  0.81238  1.0000
  Fe  Fe31      1.0  0.19288  0.67283  0.82129  1.0000
  S   S60       1.0  0.20505  0.72688  0.80704  1.0000
  S   S61       1.0  0.19894  0.60859  0.84033  1.0000
  Fe  Fe32      1.0  0.18855  0.77528  0.81912  1.0000
  S   S62       1.0  0.19331  0.83761  0.83276  1.0000
  Fe  Fe33      1.0  0.19359  0.72680  0.78022  1.0000
  S   S63       1.0  0.17714  0.72047  0.83493  1.0000
  S   S64       1.0  0.18242  0.66935  0.79413  1.0000
  Fe  Fe34      1.0  0.19310  0.01330  0.92071  1.0000
  S   S65       1.0  0.18195  0.07647  0.90745  1.0000
  S   S66       1.0  0.19122  0.94438  0.91008  1.0000
  Fe  Fe35      1.0  0.20155  0.06290  0.95512  1.0000
  S   S67       1.0  0.19073  0.12764  0.94334  1.0000
  H   H287      1.0  0.21730  0.24247  0.86816  1.0000
  Fe  Fe36      1.0  0.17432  0.08759  0.93885  1.0000
  S   S68       1.0  0.15314  0.10624  0.95159  1.0000
  Fe  Fe37      1.0  0.19941  0.11082  0.91315  1.0000
  S   S69       1.0  0.20787  0.16296  0.88974  1.0000
  S   S70       1.0  0.18465  0.02318  0.95237  1.0000
  S   S71       1.0  0.21110  0.04735  0.92466  1.0000
  Fe  Fe38      1.0  0.07938  0.18302  0.92213  1.0000
  S   S72       1.0  0.07427  0.25127  0.93204  1.0000
  S   S73       1.0  0.09968  0.15457  0.90932  1.0000
  Fe  Fe39      1.0  0.05022  0.16378  0.92644  1.0000
  S   S74       1.0  0.04326  0.23072  0.93646  1.0000
  S   S75       1.0  0.03440  0.11605  0.92874  1.0000
  Fe  Fe40      1.0  0.05775  0.25877  0.91193  1.0000
  S   S76       1.0  0.05036  0.31376  0.88797  1.0000
  Fe  Fe41      1.0  0.06015  0.21725  0.95565  1.0000
  S   S77       1.0  0.05812  0.22793  0.98862  1.0000
  S   S78       1.0  0.06352  0.19192  0.90082  1.0000
  S   S79       1.0  0.06650  0.14894  0.94688  1.0000
  S   S80       1.0  0.01424  0.01816  0.86197  1.0000
  H   H288      1.0  0.02401  0.27940  0.84478  1.0000
  Fe  Fe42      1.0  0.08291  0.60244  0.78940  1.0000
  S   S81       1.0  0.07452  0.61434  0.82017  1.0000
  S   S82       1.0  0.10459  0.60853  0.77852  1.0000
  Fe  Fe43      1.0  0.05610  0.57977  0.77799  1.0000
  S   S83       1.0  0.04611  0.58875  0.80876  1.0000
  H   H289      1.0  0.22368  0.16004  0.92295  1.0000
  Fe  Fe44      1.0  0.05688  0.64978  0.80582  1.0000
  S   S84       1.0  0.04851  0.72132  0.80790  1.0000
  Fe  Fe45      1.0  0.06467  0.55135  0.82048  1.0000
  S   S85       1.0  0.06864  0.50208  0.84822  1.0000
  S   S86       1.0  0.06598  0.64232  0.77463  1.0000
  S   S87       1.0  0.07393  0.53801  0.78998  1.0000
  C   C245      1.0  0.02111  0.77480  0.85928  1.0000
  C   C246      1.0  0.02607  0.72964  0.86078  1.0000
  C   C247      1.0  0.03448  0.71248  0.84514  1.0000
  C   C248      1.0  0.03804  0.74061  0.82801  1.0000
  C   C249      1.0  0.03315  0.78570  0.82657  1.0000
  C   C250      1.0  0.02471  0.80271  0.84211  1.0000
  H   H290      1.0  0.02335  0.70785  0.87404  1.0000
  H   H291      1.0  0.03822  0.67766  0.84642  1.0000
  H   H292      1.0  0.03582  0.80765  0.81334  1.0000
  H   H293      1.0  0.02106  0.83749  0.84081  1.0000
  C   C251      1.0  0.05601  0.36527  0.87677  1.0000
  C   C252      1.0  0.06558  0.38544  0.88465  1.0000
  C   C253      1.0  0.06924  0.42723  0.87572  1.0000
  C   C254      1.0  0.06359  0.44918  0.85863  1.0000
  C   C255      1.0  0.05417  0.42870  0.85058  1.0000
  C   C256      1.0  0.05035  0.38724  0.85969  1.0000
  H   H294      1.0  0.06996  0.36930  0.89785  1.0000
  H   H295      1.0  0.07643  0.44286  0.88225  1.0000
  H   H296      1.0  0.04969  0.44506  0.83750  1.0000
  H   H297      1.0  0.04291  0.37219  0.85347  1.0000
  C   C257      1.0  0.02957  0.08709  0.91012  1.0000
  C   C258      1.0  0.03576  0.09000  0.89074  1.0000
  C   C259      1.0  0.03117  0.06776  0.87626  1.0000
  C   C260      1.0  0.02050  0.04191  0.88109  1.0000
  C   C261      1.0  0.01456  0.03806  0.90064  1.0000
  C   C262      1.0  0.01902  0.06081  0.91502  1.0000
  H   H298      1.0  0.04397  0.10966  0.88683  1.0000
  H   H299      1.0  0.03578  0.07106  0.86115  1.0000
  C   C263      1.0  0.01941  0.19287  0.84123  1.0000
  H   H300      1.0  0.01416  0.05855  0.92998  1.0000
  C   C264      1.0  0.13862  0.12307  0.93920  1.0000
  C   C265      1.0  0.12664  0.13344  0.95066  1.0000
  C   C266      1.0  0.11473  0.14491  0.94167  1.0000
  C   C267      1.0  0.11463  0.14571  0.92107  1.0000
  C   C268      1.0  0.12663  0.13583  0.90956  1.0000
  C   C269      1.0  0.13858  0.12481  0.91853  1.0000
  H   H301      1.0  0.12657  0.13232  0.96664  1.0000
  H   H302      1.0  0.10559  0.15231  0.95072  1.0000
  H   H303      1.0  0.12665  0.13608  0.89363  1.0000
  H   H304      1.0  0.14771  0.11715  0.90951  1.0000
  C   C270      1.0  0.19211  0.86732  0.85441  1.0000
  C   C271      1.0  0.18734  0.84937  0.87350  1.0000
  C   C272      1.0  0.18723  0.87325  0.89016  1.0000
  C   C273      1.0  0.19157  0.91608  0.88816  1.0000
  C   C274      1.0  0.19605  0.93445  0.86902  1.0000
  C   C275      1.0  0.19643  0.91015  0.85242  1.0000
  H   H305      1.0  0.18385  0.81683  0.87550  1.0000
  H   H306      1.0  0.18373  0.85836  0.90477  1.0000
  H   H307      1.0  0.19946  0.96714  0.86700  1.0000
  H   H308      1.0  0.20013  0.92476  0.83785  1.0000
  C   C276      1.0  0.13447  0.68429  0.80366  1.0000
  C   C277      1.0  0.13792  0.66345  0.78637  1.0000
  C   C278      1.0  0.12870  0.64018  0.77896  1.0000
  C   C279      1.0  0.11599  0.63706  0.78881  1.0000
  C   C280      1.0  0.11272  0.65642  0.80649  1.0000
  C   C281      1.0  0.12184  0.68036  0.81371  1.0000
  H   H309      1.0  0.14755  0.66638  0.77839  1.0000
  H   H310      1.0  0.13139  0.62505  0.76533  1.0000
  H   H311      1.0  0.10313  0.65328  0.81450  1.0000
  H   H312      1.0  0.11906  0.69638  0.82708  1.0000
  H   H313      1.0  0.20728  0.52231  0.85900  1.0000
  C   C282      1.0  0.22630  0.60148  0.83604  1.0000
  C   C283      1.0  0.21489  0.58122  0.84320  1.0000
  H   H314      1.0  0.01774  0.60847  0.77275  1.0000
  H   H315      1.0  0.22548  0.63501  0.82855  1.0000
  C   C284      1.0  0.23112  0.26417  0.88593  1.0000
  C   C285      1.0  0.22212  0.23556  0.88180  1.0000
  C   C286      1.0  0.21916  0.19840  0.89536  1.0000
  H   H316      1.0  0.23307  0.29321  0.87562  1.0000
  N   N18       1.0  0.15120  0.98762  0.90817  1.0000
  C   C287      1.0  0.15348  0.93912  0.90684  1.0000
  C   C288      1.0  0.15916  0.01095  0.89139  1.0000
  C   C289      1.0  0.15623  0.99600  0.92692  1.0000
  C   C290      1.0  0.13700  0.00289  0.90699  1.0000
  C   C291      1.0  0.13087  0.99918  0.88956  1.0000
  C   C292      1.0  0.12892  0.02184  0.92274  1.0000
  H   H317      1.0  0.04311  0.22317  0.84525  1.0000
  C   C293      1.0  0.22902  0.53181  0.79266  1.0000
  H   H318      1.0  0.02519  0.21343  0.83036  1.0000
  H   H319      1.0  0.15130  0.93042  0.89222  1.0000
  H   H320      1.0  0.16397  0.92618  0.90857  1.0000
  H   H321      1.0  0.14726  0.92052  0.91871  1.0000
  H   H322      1.0  0.15713  0.00275  0.87663  1.0000
  H   H323      1.0  0.16995  0.00166  0.89232  1.0000
  H   H324      1.0  0.15724  0.04769  0.89135  1.0000
  H   H325      1.0  0.15114  0.97801  0.94026  1.0000
  H   H326      1.0  0.16693  0.98453  0.92730  1.0000
  H   H327      1.0  0.15514  0.03214  0.92860  1.0000
  H   H328      1.0  0.13635  0.98461  0.87709  1.0000
  H   H329      1.0  0.13268  0.02686  0.93647  1.0000
  C   C294      1.0  0.01235  0.16240  0.83418  1.0000
  H   H330      1.0  0.03385  0.67426  0.78674  1.0000
  H   H331      1.0  0.20115  0.57688  0.77211  1.0000
  N   N19       1.0  0.08567  0.76629  0.79793  1.0000
  C   C295      1.0  0.08376  0.73283  0.78468  1.0000
  C   C296      1.0  0.08296  0.74625  0.81883  1.0000
  C   C297      1.0  0.07573  0.80500  0.79389  1.0000
  C   C298      1.0  0.09910  0.78095  0.79502  1.0000
  C   C299      1.0  0.10255  0.81239  0.80680  1.0000
  C   C300      1.0  0.22687  0.55028  0.77283  1.0000
  H   H332      1.0  0.23534  0.10692  0.88113  1.0000
  C   C301      1.0  0.23729  0.25554  0.90362  1.0000
  C   C302      1.0  0.21717  0.23911  0.99078  1.0000
  S   S88       1.0  0.04352  0.56044  0.75503  1.0000
  H   H333      1.0  0.07355  0.72306  0.78703  1.0000
  H   H334      1.0  0.04153  0.32042  0.99423  1.0000
  H   H335      1.0  0.09077  0.71921  0.82298  1.0000
  H   H336      1.0  0.07334  0.73179  0.82126  1.0000
  C   C303      1.0  0.11009  0.03458  0.90322  1.0000
  H   H337      1.0  0.07568  0.83026  0.80434  1.0000
  N   N20       1.0  0.01611  0.68007  0.77168  1.0000
  H   H338      1.0  0.07760  0.82171  0.77848  1.0000
  H   H339      1.0  0.99876  0.75476  0.75866  1.0000
  H   H340      1.0  0.06551  0.79482  0.79556  1.0000
  H   H341      1.0  0.03789  0.16710  0.98932  1.0000
  C   C304      1.0  0.03053  0.68157  0.77155  1.0000
  C   C305      1.0  0.22509  0.68654  0.87504  1.0000
  H   H342      1.0  0.01047  0.16740  0.89105  1.0000
  H   H343      1.0  0.23627  0.47503  0.81218  1.0000
  C   C306      1.0  0.24409  0.15295  0.85833  1.0000
  H   H344      1.0  0.00627  0.01861  0.90450  1.0000
  N   N21       1.0  0.21724  0.72817  0.86763  1.0000
  S   S89       1.0  0.01040  0.79524  0.87897  1.0000
  H   H345      1.0  0.13018  0.49188  0.80772  1.0000
  H   H346      1.0  0.01388  0.99056  0.97854  1.0000
  H   H347      1.0  0.22474  0.72131  0.83731  1.0000
  C   C307      1.0  0.02268  0.27355  0.86130  1.0000
  H   H348      1.0  0.21719  0.77615  0.84129  1.0000
  C   C308      1.0  0.02653  0.22468  0.89109  1.0000
  H   H349      1.0  0.19782  0.75358  0.85896  1.0000
  H   H350      1.0  0.21178  0.60971  0.79697  1.0000
  C   C309      1.0  0.22291  0.27993  0.98901  1.0000
  H   H351      1.0  0.22853  0.62468  0.79121  1.0000
  H   H352      1.0  0.07469  0.05876  0.97403  1.0000
  H   H353      1.0  0.08534  0.74597  0.76867  1.0000
  H   H354      1.0  0.22685  0.77010  0.88382  1.0000
  H   H355      1.0  0.09999  0.04862  0.90150  1.0000
  C   C310      1.0  0.22338  0.74659  0.84801  1.0000
  H   H356      1.0  0.03020  0.19092  0.89787  1.0000
  N   N22       1.0  0.11199  0.50140  0.82656  1.0000
  C   C311      1.0  0.10386  0.49021  0.81142  1.0000
  H   H357      1.0  0.09370  0.48371  0.81777  1.0000
  C   C312      1.0  0.12417  0.51803  0.81577  1.0000
  C   C313      1.0  0.11460  0.46211  0.84137  1.0000
  C   C314      1.0  0.12754  0.44466  0.84610  1.0000
  C   C315      1.0  0.10396  0.44022  0.85172  1.0000
  C   C316      1.0  0.12958  0.40714  0.86004  1.0000
  C   C317      1.0  0.10611  0.40272  0.86556  1.0000
  C   C318      1.0  0.11890  0.38614  0.86968  1.0000
  H   H358      1.0  0.04775  0.23922  0.86746  1.0000
  H   H359      1.0  0.01606  0.62789  0.79652  1.0000
  H   H360      1.0  0.08242  0.77088  0.82968  1.0000
  H   H361      1.0  0.10848  0.46024  0.80454  1.0000
  C   C319      1.0  0.12182  0.77791  0.77907  1.0000
  H   H362      1.0  0.01632  0.23364  0.89770  1.0000
  H   H363      1.0  0.13625  0.45930  0.83926  1.0000
  C   C320      1.0  0.21608  0.53805  0.85335  1.0000
  H   H364      1.0  0.09491  0.52949  0.84408  1.0000
  H   H365      1.0  0.10264  0.56854  0.82608  1.0000
  H   H366      1.0  0.09384  0.45198  0.84921  1.0000
  H   H367      1.0  0.13952  0.39420  0.86339  1.0000
  H   H368      1.0  0.09778  0.38644  0.87312  1.0000
  H   H369      1.0  0.12052  0.35699  0.88042  1.0000
  C   C321      1.0  0.00110  0.96805  0.95975  1.0000
  C   C322      1.0  0.21962  0.64532  0.88011  1.0000
  C   C323      1.0  0.22063  0.18140  0.96894  1.0000
  H   H370      1.0  0.23963  0.21019  0.93026  1.0000
  H   H371      1.0  0.04504  0.18236  0.86652  1.0000
  H   H372      1.0  0.20938  0.64170  0.87878  1.0000
  H   H373      1.0  0.23974  0.61744  0.75565  1.0000
  H   H374      1.0  0.01204  0.28189  0.86606  1.0000
  N   N23       1.0  0.21220  0.22220  0.97377  1.0000
  H   H375      1.0  0.20297  0.69748  0.85428  1.0000
  H   H376      1.0  0.22232  0.26233  0.94965  1.0000
  H   H377      1.0  0.20826  0.24070  0.94298  1.0000
  C   C324      1.0  0.23855  0.46167  0.78156  1.0000
  H   H378      1.0  0.23097  0.18837  0.96414  1.0000
  H   H379      1.0  0.01720  0.69001  0.81117  1.0000
  H   H380      1.0  0.22613  0.55006  0.80527  1.0000
  C   C325      1.0  0.01114  0.16805  0.87505  1.0000
  H   H381      1.0  0.22392  0.30124  0.97510  1.0000
  C   C326      1.0  0.00899  0.71548  0.78301  1.0000
  H   H382      1.0  0.02830  0.29802  0.86684  1.0000
  C   C327      1.0  0.11530  0.82558  0.80487  1.0000
  N   N24       1.0  0.02726  0.22723  0.86903  1.0000
  H   H383      1.0  0.13033  0.53050  0.82599  1.0000
  C   C328      1.0  0.00618  0.96934  0.97789  1.0000
  N   N25       1.0  0.05633  0.02873  0.97984  1.0000
  C   C329      1.0  0.06907  0.03529  0.96782  1.0000
  C   C330      1.0  0.04804  0.07203  0.97947  1.0000
  H   H384      1.0  0.01296  0.15948  0.81837  1.0000
  C   C331      1.0  0.04946  0.99638  0.97130  1.0000
  H   H385      1.0  0.03826  0.06866  0.98803  1.0000
  C   C332      1.0  0.04620  0.00484  0.95128  1.0000
  H   H386      1.0  0.99828  0.11587  0.87805  1.0000
  C   C333      1.0  0.03982  0.97486  0.94272  1.0000
  C   C334      1.0  0.03656  0.93538  0.95378  1.0000
  H   H387      1.0  0.06771  0.04971  0.95221  1.0000
  S   S90       1.0  0.00192  0.91210  0.84655  1.0000
  H   H388      1.0  0.07545  0.00326  0.96717  1.0000
  H   H389      1.0  0.04614  0.08674  0.96413  1.0000
  H   H390      1.0  0.09045  0.70170  0.78753  1.0000
  C   C335      1.0  0.23873  0.68640  0.87726  1.0000
  C   C336      1.0  0.04591  0.95586  0.98224  1.0000
  C   C337      1.0  0.24647  0.64728  0.88359  1.0000
  H   H391      1.0  0.22313  0.57525  0.88992  1.0000
  H   H392      1.0  0.00560  0.74778  0.83013  1.0000
  H   H393      1.0  0.04859  0.03482  0.94198  1.0000
  Fe  Fe46      1.0  0.00008  0.96452  0.86767  1.0000
  H   H394      1.0  0.03746  0.98232  0.92736  1.0000
  H   H395      1.0  0.03167  0.91214  0.94701  1.0000
  C   C338      1.0  0.22554  0.18942  0.91283  1.0000
  S   S91       1.0  0.21497  0.06243  0.98065  1.0000
  C   C339      1.0  0.23880  0.57848  0.83902  1.0000
  C   C340      1.0  0.23460  0.21772  0.91685  1.0000
  C   C341      1.0  0.03959  0.92590  0.97349  1.0000
  C   C342      1.0  0.22857  0.51517  0.85643  1.0000
  H   H396      1.0  0.22936  0.48207  0.86440  1.0000
  C   C343      1.0  0.00475  0.13485  0.84746  1.0000
  H   H397      1.0  0.23316  0.75804  0.84902  1.0000
  C   C344      1.0  0.23997  0.53541  0.84935  1.0000
  C   C345      1.0  0.12492  0.80820  0.79110  1.0000
  C   C346      1.0  0.23484  0.48827  0.79686  1.0000
  H   H398      1.0  0.11030  0.54732  0.84850  1.0000
  H   H399      1.0  0.12184  0.54661  0.80432  1.0000
  H   H400      1.0  0.09547  0.82637  0.81786  1.0000
  C   C347      1.0  0.01064  0.71534  0.80351  1.0000
  H   H401      1.0  0.03626  0.65641  0.76264  1.0000
  H   H402      1.0  0.10257  0.51793  0.79919  1.0000
  H   H403      1.0  0.13494  0.81712  0.79013  1.0000
  H   H404      1.0  0.19783  0.71062  0.87934  1.0000
  H   H405      1.0  0.11327  0.01335  0.87401  1.0000
  H   H406      1.0  0.20590  0.28580  0.95797  1.0000
  C   C348      1.0  0.22743  0.60652  0.88658  1.0000
  H   H407      1.0  0.10982  0.05328  0.93264  1.0000
  C   C349      1.0  0.21903  0.62306  0.78493  1.0000
  H   H408      1.0  0.21685  0.16604  0.95693  1.0000
  H   H409      1.0  0.03273  0.24821  0.89595  1.0000
  H   H410      1.0  0.03705  0.89500  0.98198  1.0000
  C   C350      1.0  0.19843  0.21099  0.97913  1.0000
  H   H411      1.0  0.23689  0.15048  0.84802  1.0000
  H   H412      1.0  0.19781  0.18137  0.99044  1.0000
  C   C351      1.0  0.10914  0.76421  0.78095  1.0000
  C   C352      1.0  0.00053  0.75131  0.77418  1.0000
  C   C353      1.0  0.01278  0.63575  0.78128  1.0000
  H   H413      1.0  0.19391  0.20250  0.96608  1.0000
  H   H414      1.0  0.05287  0.09717  0.98592  1.0000
  H   H415      1.0  0.22102  0.15538  0.98188  1.0000
  H   H416      1.0  0.21103  0.79324  0.87670  1.0000
  C   C354      1.0  0.10466  0.53824  0.83676  1.0000
  C   C355      1.0  0.20338  0.72198  0.86498  1.0000
  H   H417      1.0  0.21230  0.74898  0.89683  1.0000
  N   N26       1.0  0.22087  0.59642  0.76780  1.0000
  C   C356      1.0  0.21686  0.76145  0.88187  1.0000
  C   C357      1.0  0.21218  0.25436  0.95540  1.0000
  C   C358      1.0  0.01923  0.19605  0.86193  1.0000
  C   C359      1.0  0.04135  0.21748  0.86171  1.0000
  C   C360      1.0  0.11565  0.03715  0.92080  1.0000
  H   H418      1.0  0.11785  0.84866  0.81438  1.0000
  C   C361      1.0  0.11764  0.01518  0.88770  1.0000
  H   H419      1.0  0.03347  0.71495  0.76538  1.0000
  C   C362      1.0  0.20772  0.59550  0.76072  1.0000
  C   C363      1.0  0.00399  0.13817  0.86779  1.0000
  H   H420      1.0  0.19202  0.23930  0.98508  1.0000
  Fe  Fe47      1.0  0.99949  0.86437  0.87424  1.0000
  H   H421      1.0  0.21499  0.65799  0.78043  1.0000
  C   C364      1.0  0.23634  0.47842  0.76201  1.0000
  C   C365      1.0  0.23053  0.52197  0.75766  1.0000
  C   C366      1.0  0.00412  0.74850  0.81451  1.0000
  C   C367      1.0  0.24085  0.60736  0.88811  1.0000
  H   H422      1.0  0.00487  0.98783  0.94641  1.0000
  H   H423      1.0  0.24298  0.42780  0.78487  1.0000
  H   H424      1.0  0.10765  0.73937  0.77163  1.0000
  C   C368      1.0  0.24321  0.12822  0.87700  1.0000
  H   H425      1.0  0.04799  0.94635  0.99753  1.0000
  H   H426      1.0  0.20267  0.62972  0.75759  1.0000
  H   H427      1.0  0.24355  0.71654  0.87398  1.0000
  S   S92       1.0  0.99929  0.91590  0.89539  1.0000
  H   H428      1.0  0.12949  0.76343  0.76885  1.0000
  H   H429      1.0  0.00195  0.63366  0.78242  1.0000
  H   H430      1.0  0.99967  0.11007  0.84208  1.0000
  C   C369      1.0  0.00134  0.94368  0.99512  1.0000
  H   H431      1.0  0.02589  0.26674  0.99123  1.0000
  C   C370      1.0  0.22938  0.62000  0.75177  1.0000
  S   S93       1.0  0.20624  0.72920  0.74979  1.0000
  H   H432      1.0  0.23905  0.45736  0.75018  1.0000
  C   C371      1.0  0.01299  0.68408  0.75061  1.0000
  H   H433      1.0  0.00227  0.68283  0.74957  1.0000
  H   H434      1.0  0.22593  0.65605  0.74910  1.0000
  Fe  Fe48      1.0  0.32726  0.47243  0.06024  1.0000
  S   S94       1.0  0.31446  0.53173  0.04673  1.0000
  S   S95       1.0  0.34927  0.47529  0.06193  1.0000
  Fe  Fe49      1.0  0.30337  0.42616  0.07883  1.0000
  S   S96       1.0  0.28908  0.48273  0.06749  1.0000
  S   S97       1.0  0.29893  0.36029  0.09656  1.0000
  Fe  Fe50      1.0  0.30200  0.48119  0.03835  1.0000
  Fe  Fe51      1.0  0.30270  0.52851  0.07686  1.0000
  S   S98       1.0  0.29552  0.59207  0.09206  1.0000
  S   S99       1.0  0.31581  0.42244  0.04963  1.0000
  S   S100      1.0  0.31587  0.47142  0.09043  1.0000
  Fe  Fe52      1.0  0.30837  0.75392  0.17729  1.0000
  S   S101      1.0  0.31309  0.81795  0.15898  1.0000
  S   S102      1.0  0.31204  0.68597  0.16456  1.0000
  Fe  Fe53      1.0  0.30262  0.80201  0.21650  1.0000
  S   S103      1.0  0.30787  0.86726  0.19993  1.0000
  H   H435      1.0  0.33702  0.63020  0.08576  1.0000
  Fe  Fe54      1.0  0.29574  0.85174  0.17646  1.0000
  S   S104      1.0  0.27709  0.89625  0.16893  1.0000
  Fe  Fe55      1.0  0.32494  0.82746  0.18422  1.0000
  S   S105      1.0  0.34585  0.84610  0.17334  1.0000
  S   S106      1.0  0.29023  0.78705  0.19312  1.0000
  S   S107      1.0  0.32060  0.76252  0.20226  1.0000
  H   H436      1.0  0.27254  0.96579  0.19559  1.0000
  Fe  Fe56      1.0  0.41984  0.33910  0.06056  1.0000
  S   S108      1.0  0.43465  0.28034  0.05491  1.0000
  S   S109      1.0  0.39934  0.33253  0.05201  1.0000
  Fe  Fe57      1.0  0.44061  0.38833  0.07517  1.0000
  S   S110      1.0  0.45674  0.33340  0.07035  1.0000
  S   S111      1.0  0.44333  0.45392  0.08618  1.0000
  Fe  Fe58      1.0  0.44822  0.33133  0.04125  1.0000
  S   S112      1.0  0.46027  0.31826  0.01198  1.0000
  Fe  Fe59      1.0  0.44171  0.28711  0.08446  1.0000
  S   S113      1.0  0.44919  0.23139  0.10796  1.0000
  S   S114      1.0  0.43301  0.38941  0.04506  1.0000
  S   S115      1.0  0.42595  0.34282  0.09108  1.0000
  Fe  Fe60      1.0  0.44071  0.92362  0.19186  1.0000
  S   S116      1.0  0.44417  0.99337  0.19591  1.0000
  S   S117      1.0  0.45925  0.87840  0.18408  1.0000
  Fe  Fe61      1.0  0.41141  0.93658  0.20687  1.0000
  S   S118      1.0  0.41291  0.00725  0.21231  1.0000
  S   S119      1.0  0.39310  0.89978  0.21739  1.0000
  Fe  Fe62      1.0  0.42497  0.01397  0.18243  1.0000
  S   S120      1.0  0.42036  0.07074  0.15771  1.0000
  Fe  Fe63      1.0  0.43211  0.98118  0.22543  1.0000
  H   H437      1.0  0.26325  0.27125  0.02379  1.0000
  S   S121      1.0  0.42226  0.94448  0.17624  1.0000
  S   S122      1.0  0.42981  0.91036  0.22211  1.0000
  C   C372      1.0  0.42867  0.11520  0.14426  1.0000
  C   C373      1.0  0.44164  0.12165  0.14702  1.0000
  C   C374      1.0  0.44777  0.15709  0.13569  1.0000
  C   C375      1.0  0.44103  0.18674  0.12158  1.0000
  C   C376      1.0  0.42806  0.18038  0.11892  1.0000
  C   C377      1.0  0.42196  0.14481  0.13013  1.0000
  H   H438      1.0  0.44690  0.09952  0.15793  1.0000
  H   H439      1.0  0.45777  0.16190  0.13802  1.0000
  H   H440      1.0  0.42272  0.20275  0.10816  1.0000
  H   H441      1.0  0.41194  0.14017  0.12784  1.0000
  C   C378      1.0  0.47843  0.49137  0.11535  1.0000
  C   C379      1.0  0.46825  0.43694  0.10001  1.0000
  C   C380      1.0  0.45718  0.46757  0.09686  1.0000
  C   C381      1.0  0.45699  0.51049  0.10245  1.0000
  C   C382      1.0  0.46761  0.52252  0.11148  1.0000
  H   H442      1.0  0.46869  0.40431  0.09519  1.0000
  H   H443      1.0  0.44852  0.53452  0.09993  1.0000
  H   H444      1.0  0.46725  0.55553  0.11591  1.0000
  C   C383      1.0  0.46695  0.76714  0.14341  1.0000
  C   C384      1.0  0.45518  0.79589  0.14286  1.0000
  C   C385      1.0  0.45257  0.83010  0.15530  1.0000
  C   C386      1.0  0.46174  0.83561  0.16840  1.0000
  C   C387      1.0  0.47351  0.80696  0.16890  1.0000
  C   C388      1.0  0.47611  0.77277  0.15650  1.0000
  H   H445      1.0  0.44361  0.85249  0.15451  1.0000
  H   H446      1.0  0.48069  0.81130  0.17890  1.0000
  H   H447      1.0  0.48521  0.75091  0.15699  1.0000
  C   C389      1.0  0.35858  0.86269  0.18597  1.0000
  C   C390      1.0  0.36967  0.87933  0.17467  1.0000
  C   C391      1.0  0.38015  0.89191  0.18395  1.0000
  C   C392      1.0  0.37978  0.88746  0.20475  1.0000
  C   C393      1.0  0.36877  0.87039  0.21605  1.0000
  C   C394      1.0  0.35819  0.85841  0.20677  1.0000
  H   H448      1.0  0.37009  0.88285  0.15858  1.0000
  H   H449      1.0  0.38853  0.90488  0.17501  1.0000
  H   H450      1.0  0.36837  0.86655  0.23213  1.0000
  H   H451      1.0  0.34980  0.84550  0.21571  1.0000
  C   C395      1.0  0.27540  0.94560  0.15233  1.0000
  C   C396      1.0  0.28587  0.95991  0.13912  1.0000
  C   C397      1.0  0.28387  0.99892  0.12582  1.0000
  C   C398      1.0  0.27147  0.02414  0.12586  1.0000
  C   C399      1.0  0.26106  0.01013  0.13927  1.0000
  C   C400      1.0  0.26301  0.97086  0.15236  1.0000
  H   H452      1.0  0.29544  0.94065  0.13897  1.0000
  H   H453      1.0  0.29196  0.00958  0.11545  1.0000
  H   H454      1.0  0.48984  0.57341  0.99966  1.0000
  H   H455      1.0  0.25487  0.95991  0.16253  1.0000
  C   C401      1.0  0.30022  0.61712  0.11249  1.0000
  C   C402      1.0  0.29345  0.65805  0.11722  1.0000
  C   C403      1.0  0.29688  0.67960  0.13296  1.0000
  C   C404      1.0  0.30714  0.66049  0.14439  1.0000
  C   C405      1.0  0.31384  0.61940  0.13977  1.0000
  C   C406      1.0  0.31047  0.59799  0.12395  1.0000
  H   H456      1.0  0.28550  0.67330  0.10857  1.0000
  H   H457      1.0  0.29154  0.71094  0.13626  1.0000
  H   H458      1.0  0.32174  0.60398  0.14847  1.0000
  H   H459      1.0  0.31579  0.56665  0.12062  1.0000
  C   C407      1.0  0.36316  0.43599  0.05802  1.0000
  C   C408      1.0  0.37512  0.44283  0.06501  1.0000
  C   C409      1.0  0.38634  0.41180  0.06301  1.0000
  C   C410      1.0  0.38570  0.37357  0.05395  1.0000
  C   C411      1.0  0.37382  0.36699  0.04663  1.0000
  C   C412      1.0  0.36260  0.39816  0.04856  1.0000
  H   H460      1.0  0.37567  0.47218  0.07220  1.0000
  H   H461      1.0  0.39543  0.41728  0.06868  1.0000
  H   H462      1.0  0.37325  0.33746  0.03959  1.0000
  H   H463      1.0  0.35352  0.39290  0.04281  1.0000
  C   C413      1.0  0.28355  0.34027  0.09528  1.0000
  C   C414      1.0  0.28201  0.29525  0.10146  1.0000
  C   C415      1.0  0.26998  0.27813  0.10005  1.0000
  C   C416      1.0  0.25936  0.30611  0.09266  1.0000
  C   C417      1.0  0.26085  0.35121  0.08672  1.0000
  C   C418      1.0  0.27289  0.36822  0.08797  1.0000
  H   H464      1.0  0.29021  0.27336  0.10708  1.0000
  H   H465      1.0  0.26895  0.24329  0.10464  1.0000
  H   H466      1.0  0.47810  0.82773  0.10268  1.0000
  H   H467      1.0  0.27391  0.40301  0.08332  1.0000
  H   H468      1.0  0.29133  0.90290  0.23474  1.0000
  H   H469      1.0  0.46007  0.87885  0.08835  1.0000
  H   H470      1.0  0.25150  0.02935  0.13948  1.0000
  S   S123      1.0  0.28982  0.80087  0.24666  1.0000
  H   H471      1.0  0.26390  0.98432  0.06615  1.0000
  H   H472      1.0  0.26184  0.98542  0.09234  1.0000
  H   H473      1.0  0.47919  0.99331  0.14507  1.0000
  H   H474      1.0  0.28114  0.99279  0.21156  1.0000
  H   H475      1.0  0.29896  0.31520  0.01617  1.0000
  H   H476      1.0  0.28031  0.16864  0.16609  1.0000
  H   H477      1.0  0.48717  0.42453  0.11216  1.0000
  H   H478      1.0  0.46548  0.48459  0.05468  1.0000
  H   H479      1.0  0.39678  0.80559  0.20144  1.0000
  C   C419      1.0  0.27381  0.32657  0.00847  1.0000
  H   H480      1.0  0.41632  0.71960  0.17543  1.0000
  H   H481      1.0  0.42066  0.83132  0.17058  1.0000
  H   H482      1.0  0.28224  0.27397  0.04134  1.0000
  H   H483      1.0  0.26702  0.30571  0.04973  1.0000
  H   H484      1.0  0.46192  0.72762  0.19174  1.0000
  C   C420      1.0  0.44427  0.21636  0.18335  1.0000
  H   H485      1.0  0.40213  0.74735  0.20289  1.0000
  H   H486      1.0  0.24828  0.35064  0.15301  1.0000
  H   H487      1.0  0.41858  0.30930  0.01653  1.0000
  C   C421      1.0  0.45920  0.27275  0.17306  1.0000
  H   H488      1.0  0.44448  0.78177  0.20366  1.0000
  C   C422      1.0  0.45540  0.23626  0.18616  1.0000
  H   H489      1.0  0.29535  0.37438  0.01064  1.0000
  H   H490      1.0  0.46811  0.28621  0.17554  1.0000
  C   C423      1.0  0.42043  0.83278  0.18689  1.0000
  H   H491      1.0  0.46121  0.22286  0.19840  1.0000
  H   H492      1.0  0.40289  0.78252  0.17920  1.0000
  N   N27       1.0  0.46122  0.98163  0.13351  1.0000
  C   C424      1.0  0.46167  0.02068  0.11810  1.0000
  C   C425      1.0  0.44733  0.97821  0.14160  1.0000
  C   C426      1.0  0.46860  0.99033  0.15007  1.0000
  C   C427      1.0  0.46643  0.94031  0.12470  1.0000
  C   C428      1.0  0.47685  0.91022  0.13243  1.0000
  C   C429      1.0  0.46059  0.92801  0.10842  1.0000
  C   C430      1.0  0.27205  0.38352  0.03060  1.0000
  H   H493      1.0  0.26130  0.38120  0.03437  1.0000
  C   C431      1.0  0.48012  0.46848  0.03093  1.0000
  H   H494      1.0  0.45818  0.05237  0.12451  1.0000
  H   H495      1.0  0.47190  0.02329  0.11099  1.0000
  H   H496      1.0  0.45519  0.01933  0.10612  1.0000
  H   H497      1.0  0.44664  0.94789  0.15250  1.0000
  H   H498      1.0  0.44071  0.97626  0.12987  1.0000
  H   H499      1.0  0.44314  0.00759  0.14929  1.0000
  H   H500      1.0  0.46679  0.35765  0.16310  1.0000
  H   H501      1.0  0.46452  0.02185  0.15620  1.0000
  H   H502      1.0  0.46790  0.96360  0.16285  1.0000
  H   H503      1.0  0.48161  0.91570  0.14521  1.0000
  H   H504      1.0  0.45246  0.94873  0.10202  1.0000
  H   H505      1.0  0.25371  0.94252  0.04819  1.0000
  H   H506      1.0  0.41038  0.39101  0.01770  1.0000
  H   H507      1.0  0.43457  0.27950  0.14205  1.0000
  N   N28       1.0  0.34100  0.35421  0.10932  1.0000
  C   C432      1.0  0.32956  0.34446  0.12396  1.0000
  C   C433      1.0  0.34481  0.39823  0.11244  1.0000
  C   C434      1.0  0.33648  0.35713  0.08915  1.0000
  C   C435      1.0  0.35252  0.32020  0.11093  1.0000
  C   C436      1.0  0.36453  0.32679  0.09902  1.0000
  C   C437      1.0  0.35215  0.27958  0.12375  1.0000
  C   C438      1.0  0.37552  0.29509  0.09998  1.0000
  C   C439      1.0  0.36324  0.24806  0.12463  1.0000
  C   C440      1.0  0.37489  0.25582  0.11279  1.0000
  H   H508      1.0  0.32543  0.31364  0.12142  1.0000
  H   H509      1.0  0.33226  0.34151  0.13953  1.0000
  H   H510      1.0  0.32120  0.37129  0.12255  1.0000
  H   H511      1.0  0.34959  0.39624  0.12653  1.0000
  H   H512      1.0  0.33616  0.42382  0.11318  1.0000
  H   H513      1.0  0.35173  0.41195  0.10007  1.0000
  H   H514      1.0  0.33404  0.32431  0.08588  1.0000
  H   H515      1.0  0.32745  0.38082  0.08754  1.0000
  H   H516      1.0  0.34402  0.36887  0.07734  1.0000
  H   H517      1.0  0.36549  0.35652  0.08875  1.0000
  H   H518      1.0  0.34343  0.27127  0.13319  1.0000
  H   H519      1.0  0.38456  0.30098  0.09062  1.0000
  H   H520      1.0  0.36279  0.21727  0.13449  1.0000
  H   H521      1.0  0.38345  0.23128  0.11345  1.0000
  H   H522      1.0  0.31029  0.74369  0.09866  1.0000
  C   C441      1.0  0.47506  0.85934  0.10844  1.0000
  H   H523      1.0  0.43694  0.35662  0.13520  1.0000
  H   H524      1.0  0.35455  0.67576  0.16225  1.0000
  C   C442      1.0  0.32726  0.73130  0.11560  1.0000
  H   H525      1.0  0.27782  0.87122  0.21492  1.0000
  C   C443      1.0  0.42195  0.31920  0.00060  1.0000
  H   H526      1.0  0.39670  0.33515  0.01185  1.0000
  H   H527      1.0  0.34876  0.75334  0.15798  1.0000
  H   H528      1.0  0.35982  0.75004  0.11399  1.0000
  H   H529      1.0  0.44582  0.32088  0.11780  1.0000
  H   H530      1.0  0.33922  0.66047  0.15611  1.0000
  S   S124      1.0  0.49216  0.62909  0.10450  1.0000
  H   H531      1.0  0.24951  0.05710  0.08620  1.0000
  H   H532      1.0  0.45397  0.41465  0.00237  1.0000
  S   S125      1.0  0.49162  0.50424  0.12778  1.0000
  C   C444      1.0  0.24997  0.25889  0.15981  1.0000
  C   C445      1.0  0.26037  0.96131  0.23368  1.0000
  Fe  Fe64      1.0  0.48807  0.67441  0.12881  1.0000
  C   C446      1.0  0.27359  0.23449  0.15322  1.0000
  C   C447      1.0  0.43687  0.23296  0.16750  1.0000
  C   C448      1.0  0.27881  0.95992  0.20823  1.0000
  H   H533      1.0  0.44145  0.18755  0.19328  1.0000
  C   C449      1.0  0.45850  0.36585  0.15354  1.0000
  H   H534      1.0  0.24977  0.05503  0.05995  1.0000
  H   H535      1.0  0.43002  0.84353  0.18970  1.0000
  H   H536      1.0  0.45008  0.37551  0.11800  1.0000
  N   N29       1.0  0.41798  0.78943  0.19830  1.0000
  H   H537      1.0  0.25824  0.15328  0.18228  1.0000
  C   C450      1.0  0.47874  0.44862  0.10947  1.0000
  S   S126      1.0  0.29016  0.48375  0.01096  1.0000
  H   H538      1.0  0.46105  0.39560  0.14311  1.0000
  H   H539      1.0  0.44945  0.37620  0.16312  1.0000
  S   S127      1.0  0.26920  0.07189  0.10844  1.0000
  C   C451      1.0  0.44170  0.75624  0.19571  1.0000
  H   H540      1.0  0.42410  0.40562  0.00055  1.0000
  C   C452      1.0  0.49573  0.76230  0.24337  1.0000
  H   H541      1.0  0.28323  0.24086  0.14589  1.0000
  H   H542      1.0  0.47895  0.53164  0.06864  1.0000
  C   C453      1.0  0.25018  0.97642  0.22103  1.0000
  C   C454      1.0  0.44054  0.26953  0.15437  1.0000
  N   N30       1.0  0.27246  0.93471  0.22612  1.0000
  C   C455      1.0  0.45184  0.29076  0.15680  1.0000
  H   H543      1.0  0.36727  0.72754  0.13639  1.0000
  C   C456      1.0  0.36070  0.72044  0.12539  1.0000
  C   C457      1.0  0.34223  0.74849  0.14649  1.0000
  C   C458      1.0  0.40441  0.78044  0.19528  1.0000
  H   H544      1.0  0.36584  0.69221  0.11778  1.0000
  H   H545      1.0  0.49271  0.76158  0.21253  1.0000
  N   N31       1.0  0.34752  0.71081  0.13506  1.0000
  C   C459      1.0  0.49275  0.47461  0.02191  1.0000
  C   C460      1.0  0.27758  0.30771  0.04411  1.0000
  H   H546      1.0  0.33249  0.74252  0.15467  1.0000
  H   H547      1.0  0.46772  0.28457  0.12335  1.0000
  H   H548      1.0  0.32361  0.75889  0.12386  1.0000
  C   C461      1.0  0.44684  0.34602  0.12787  1.0000
  H   H549      1.0  0.25266  0.37313  0.08103  1.0000
  C   C462      1.0  0.42600  0.72234  0.17974  1.0000
  N   N32       1.0  0.45636  0.32833  0.14268  1.0000
  H   H550      1.0  0.47691  0.30175  0.14156  1.0000
  C   C463      1.0  0.34906  0.67036  0.14963  1.0000
  C   C464      1.0  0.33901  0.70338  0.11970  1.0000
  C   C465      1.0  0.34245  0.66721  0.10820  1.0000
  C   C466      1.0  0.46897  0.31306  0.13157  1.0000
  C   C467      1.0  0.31946  0.72299  0.10105  1.0000
  C   C468      1.0  0.47532  0.48945  0.04767  1.0000
  C   C469      1.0  0.32299  0.68667  0.09036  1.0000
  C   C470      1.0  0.26589  0.29068  0.00983  1.0000
  H   H551      1.0  0.31658  0.67920  0.07976  1.0000
  H   H552      1.0  0.45715  0.67175  0.17092  1.0000
  H   H553      1.0  0.34118  0.78067  0.13674  1.0000
  H   H554      1.0  0.47262  0.33993  0.12042  1.0000
  H   H555      1.0  0.43221  0.32775  0.00069  1.0000
  C   C471      1.0  0.33448  0.65891  0.09389  1.0000
  H   H556      1.0  0.35444  0.64139  0.14287  1.0000
  H   H557      1.0  0.42732  0.80617  0.22324  1.0000
  N   N33       1.0  0.27909  0.34021  0.02600  1.0000
  H   H558      1.0  0.35122  0.64454  0.11042  1.0000
  H   H559      1.0  0.47406  0.44723  0.02502  1.0000
  C   C472      1.0  0.48315  0.51630  0.05557  1.0000
  H   H560      1.0  0.44810  0.79179  0.13267  1.0000
  S   S128      1.0  0.46994  0.72493  0.12744  1.0000
  H   H561      1.0  0.28239  0.31727  0.05664  1.0000
  S   S129      1.0  0.49031  0.61949  0.15412  1.0000
  H   H562      1.0  0.27316  0.40999  0.01782  1.0000
  C   C473      1.0  0.26894  0.89232  0.22060  1.0000
  H   H563      1.0  0.28814  0.94155  0.20240  1.0000
  H   H564      1.0  0.41746  0.76016  0.22888  1.0000
  C   C474      1.0  0.28245  0.92337  0.24081  1.0000
  C   C475      1.0  0.49613  0.52288  0.04693  1.0000
  H   H565      1.0  0.48779  0.59989  0.06258  1.0000
  H   H566      1.0  0.26477  0.29711  0.14154  1.0000
  C   C476      1.0  0.27197  0.19384  0.16461  1.0000
  C   C477      1.0  0.43628  0.69239  0.17256  1.0000
  C   C478      1.0  0.44915  0.69410  0.17702  1.0000
  H   H567      1.0  0.41256  0.85934  0.19091  1.0000
  C   C479      1.0  0.26281  0.26671  0.15082  1.0000
  C   C480      1.0  0.25956  0.18529  0.17377  1.0000
  S   S130      1.0  0.24710  0.17423  0.12823  1.0000
  H   H568      1.0  0.26220  0.89753  0.20853  1.0000
  H   H569      1.0  0.42843  0.21654  0.16499  1.0000
  C   C481      1.0  0.24871  0.21719  0.17144  1.0000
  H   H570      1.0  0.40994  0.81662  0.22548  1.0000
  H   H571      1.0  0.25096  0.96813  0.20590  1.0000
  C   C482      1.0  0.42842  0.75525  0.19161  1.0000
  H   H572      1.0  0.43433  0.66822  0.16311  1.0000
  C   C483      1.0  0.41824  0.79300  0.21987  1.0000
  C   C484      1.0  0.45183  0.72566  0.18874  1.0000
  C   C485      1.0  0.46485  0.88807  0.10049  1.0000
  C   C486      1.0  0.29341  0.34541  0.02178  1.0000
  H   H573      1.0  0.27595  0.39569  0.04340  1.0000
  H   H574      1.0  0.25745  0.93814  0.08236  1.0000
  H   H575      1.0  0.29787  0.35189  0.03526  1.0000
  H   H576      1.0  0.48942  0.79315  0.24470  1.0000
  C   C487      1.0  0.48110  0.87057  0.12424  1.0000
  H   H577      1.0  0.49643  0.45806  0.00890  1.0000
  C   C488      1.0  0.25726  0.97499  0.07971  1.0000
  H   H578      1.0  0.26415  0.87230  0.23364  1.0000
  C   C489      1.0  0.41382  0.39644  0.00154  1.0000
  Fe  Fe65      1.0  0.25007  0.11753  0.10967  1.0000
  Fe  Fe66      1.0  0.49591  0.57528  0.12953  1.0000
  H   H579      1.0  0.49583  0.53834  0.08626  1.0000
  H   H580      1.0  0.48882  0.84751  0.13068  1.0000
  H   H581      1.0  0.28593  0.95362  0.24522  1.0000
  H   H582      1.0  0.29812  0.06343  0.47460  1.0000
  C   C490      1.0  0.29992  0.04603  0.44464  1.0000
  S   S131      1.0  0.27336  0.83994  0.39142  1.0000
  H   H583      1.0  0.46806  0.77499  0.41341  1.0000
  Fe  Fe67      1.0  0.25416  0.95335  0.37465  1.0000
  S   S132      1.0  0.27630  0.94074  0.37233  1.0000
  H   H584      1.0  0.31069  0.82264  0.26958  1.0000
  Fe  Fe68      1.0  0.27365  0.87720  0.36040  1.0000
  S   S133      1.0  0.28884  0.85592  0.33498  1.0000
  Fe  Fe69      1.0  0.27403  0.90523  0.40340  1.0000
  S   S134      1.0  0.28822  0.91276  0.42666  1.0000
  H   H585      1.0  0.25642  0.01851  0.40399  1.0000
  H   H586      1.0  0.27186  0.12373  0.39992  1.0000
  Fe  Fe70      1.0  0.47294  0.90984  0.40039  1.0000
  C   C491      1.0  0.42014  0.97930  0.37077  1.0000
  S   S135      1.0  0.45591  0.90729  0.42504  1.0000
  Fe  Fe71      1.0  0.47621  0.91211  0.35422  1.0000
  H   H587      1.0  0.42634  0.87020  0.30922  1.0000
  S   S136      1.0  0.46565  0.89848  0.32781  1.0000
  C   C492      1.0  0.28078  0.03912  0.39266  1.0000
  C   C493      1.0  0.26261  0.68602  0.41811  1.0000
  C   C494      1.0  0.28500  0.96878  0.48758  1.0000
  H   H588      1.0  0.42267  0.98398  0.38587  1.0000
  S   S137      1.0  0.47514  0.85707  0.37967  1.0000
  S   S138      1.0  0.47252  0.96524  0.37498  1.0000
  H   H589      1.0  0.29916  0.02827  0.41578  1.0000
  H   H590      1.0  0.26542  0.96293  0.26425  1.0000
  C   C495      1.0  0.44519  0.88102  0.48466  1.0000
  C   C496      1.0  0.44495  0.89306  0.46391  1.0000
  C   C497      1.0  0.45673  0.89576  0.45130  1.0000
  C   C498      1.0  0.46876  0.88768  0.45979  1.0000
  C   C499      1.0  0.46902  0.87486  0.48044  1.0000
  H   H591      1.0  0.41207  0.95715  0.37274  1.0000
  H   H592      1.0  0.43557  0.89962  0.45757  1.0000
  H   H593      1.0  0.47788  0.89110  0.45044  1.0000
  C   C500      1.0  0.47688  0.73448  0.47162  1.0000
  C   C501      1.0  0.44701  0.97582  0.27278  1.0000
  C   C502      1.0  0.44911  0.92936  0.27504  1.0000
  C   C503      1.0  0.45513  0.90650  0.29170  1.0000
  C   C504      1.0  0.45932  0.92965  0.30617  1.0000
  C   C505      1.0  0.45772  0.97619  0.30346  1.0000
  C   C506      1.0  0.45145  0.99902  0.28701  1.0000
  H   H594      1.0  0.26671  0.79099  0.35797  1.0000
  H   H595      1.0  0.45634  0.87056  0.29356  1.0000
  H   H596      1.0  0.46114  0.99470  0.31409  1.0000
  H   H597      1.0  0.44997  0.03496  0.28534  1.0000
  H   H598      1.0  0.43332  0.87995  0.34117  1.0000
  C   C507      1.0  0.26164  0.77297  0.49705  1.0000
  C   C508      1.0  0.26258  0.02114  0.41623  1.0000
  H   H599      1.0  0.25992  0.09579  0.38992  1.0000
  H   H600      1.0  0.26770  0.98755  0.42024  1.0000
  C   C509      1.0  0.27129  0.83000  0.47414  1.0000
  C   C510      1.0  0.27361  0.96799  0.47774  1.0000
  C   C511      1.0  0.27432  0.95028  0.45937  1.0000
  C   C512      1.0  0.28653  0.93398  0.45028  1.0000
  C   C513      1.0  0.29789  0.93410  0.46030  1.0000
  C   C514      1.0  0.29714  0.95103  0.47888  1.0000
  H   H601      1.0  0.31027  0.03369  0.44493  1.0000
  H   H602      1.0  0.26540  0.94925  0.45233  1.0000
  H   H603      1.0  0.30739  0.92136  0.45355  1.0000
  H   H604      1.0  0.30601  0.95146  0.48616  1.0000
  C   C515      1.0  0.28978  0.81917  0.27064  1.0000
  C   C516      1.0  0.27768  0.82496  0.28249  1.0000
  C   C517      1.0  0.27709  0.83828  0.30177  1.0000
  C   C518      1.0  0.28868  0.84438  0.30984  1.0000
  C   C519      1.0  0.30076  0.83884  0.29795  1.0000
  C   C520      1.0  0.30130  0.82698  0.27840  1.0000
  H   H605      1.0  0.26868  0.81918  0.27666  1.0000
  H   H606      1.0  0.26769  0.84288  0.31052  1.0000
  H   H607      1.0  0.30981  0.84353  0.30394  1.0000
  H   H608      1.0  0.25884  0.74910  0.34886  1.0000
  Fe  Fe72      1.0  0.25137  0.85767  0.39282  1.0000
  C   C521      1.0  0.42895  0.90917  0.33261  1.0000
  H   H609      1.0  0.47703  0.83213  0.42776  1.0000
  C   C522      1.0  0.42773  0.95214  0.33910  1.0000
  H   H610      1.0  0.41609  0.01244  0.36390  1.0000
  N   N34       1.0  0.27840  0.72765  0.35803  1.0000
  C   C523      1.0  0.28050  0.69005  0.34574  1.0000
  C   C524      1.0  0.26852  0.76193  0.34928  1.0000
  C   C525      1.0  0.29114  0.74735  0.35657  1.0000
  C   C526      1.0  0.27343  0.71231  0.37874  1.0000
  C   C527      1.0  0.27915  0.72209  0.39567  1.0000
  C   C528      1.0  0.26210  0.68865  0.38248  1.0000
  C   C529      1.0  0.41857  0.98159  0.30747  1.0000
  C   C530      1.0  0.45537  0.75578  0.48818  1.0000
  N   N35       1.0  0.43177  0.96015  0.35855  1.0000
  N   N36       1.0  0.48259  0.76197  0.43506  1.0000
  C   C531      1.0  0.44189  0.99201  0.35533  1.0000
  H   H611      1.0  0.28716  0.66215  0.35263  1.0000
  C   C532      1.0  0.47322  0.75777  0.45319  1.0000
  Fe  Fe73      1.0  0.49467  0.95884  0.37590  1.0000
  H   H612      1.0  0.43840  0.02447  0.34725  1.0000
  H   H613      1.0  0.29900  0.72346  0.36315  1.0000
  H   H614      1.0  0.29477  0.75772  0.34080  1.0000
  H   H615      1.0  0.29013  0.77828  0.36397  1.0000
  H   H616      1.0  0.47840  0.86758  0.48673  1.0000
  H   H617      1.0  0.45693  0.80038  0.44004  1.0000
  H   H618      1.0  0.28578  0.00493  0.39611  1.0000
  S   S139      1.0  0.25208  0.92114  0.40638  1.0000
  H   H619      1.0  0.47316  0.71717  0.42048  1.0000
  H   H620      1.0  0.28383  0.86901  0.48575  1.0000
  C   C533      1.0  0.42231  0.98812  0.32599  1.0000
  H   H621      1.0  0.48375  0.75173  0.40397  1.0000
  H   H622      1.0  0.27113  0.67697  0.34362  1.0000
  H   H623      1.0  0.43025  0.89436  0.37414  1.0000
  C   C534      1.0  0.27966  0.05769  0.42738  1.0000
  H   H624      1.0  0.41499  0.00970  0.29729  1.0000
  C   C535      1.0  0.42496  0.90298  0.31417  1.0000
  H   H625      1.0  0.28503  0.70030  0.33043  1.0000
  S   S140      1.0  0.49480  0.90710  0.40258  1.0000
  H   H626      1.0  0.25687  0.68152  0.37046  1.0000
  H   H627      1.0  0.27491  0.03755  0.37987  1.0000
  C   C536      1.0  0.41985  0.93911  0.30160  1.0000
  H   H628      1.0  0.28761  0.74064  0.39440  1.0000
  H   H629      1.0  0.27851  0.90289  0.25437  1.0000
  C   C537      1.0  0.46804  0.73378  0.48881  1.0000
  H   H630      1.0  0.44062  0.92662  0.38476  1.0000
  N   N37       1.0  0.27225  0.05394  0.41018  1.0000
  H   H631      1.0  0.44499  0.99934  0.36969  1.0000
  C   C538      1.0  0.47659  0.75089  0.41757  1.0000
  H   H632      1.0  0.48992  0.81879  0.44414  1.0000
  C   C539      1.0  0.43749  0.91934  0.37036  1.0000
  C   C540      1.0  0.45725  0.87098  0.49298  1.0000
  C   C541      1.0  0.29335  0.04315  0.42789  1.0000
  S   S141      1.0  0.25147  0.89132  0.36107  1.0000
  H   H633      1.0  0.45085  0.97826  0.34645  1.0000
  H   H634      1.0  0.44577  0.91100  0.26425  1.0000
  C   C542      1.0  0.27373  0.70916  0.41502  1.0000
  H   H635      1.0  0.25712  0.10852  0.41486  1.0000
  H   H636      1.0  0.44650  0.90378  0.36220  1.0000
  H   H637      1.0  0.41730  0.93448  0.28696  1.0000
  C   C543      1.0  0.49519  0.73273  0.43676  1.0000
  H   H638      1.0  0.25566  0.02972  0.42922  1.0000
  H   H639      1.0  0.26414  0.98131  0.48436  1.0000
  C   C544      1.0  0.27792  0.84155  0.48937  1.0000
  C   C545      1.0  0.46025  0.78001  0.45314  1.0000
  H   H640      1.0  0.27190  0.77465  0.33374  1.0000
  H   H641      1.0  0.42116  0.02179  0.32975  1.0000
  H   H642      1.0  0.24801  0.65839  0.40434  1.0000
  C   C546      1.0  0.29311  0.06286  0.46136  1.0000
  C   C547      1.0  0.45144  0.77839  0.47033  1.0000
  C   C548      1.0  0.26320  0.79565  0.47794  1.0000
  H   H643      1.0  0.28839  0.06220  0.38735  1.0000
  H   H644      1.0  0.44167  0.79635  0.47002  1.0000
  H   H645      1.0  0.27242  0.84800  0.45930  1.0000
  C   C549      1.0  0.26501  0.09745  0.40351  1.0000
  H   H646      1.0  0.25825  0.67691  0.43309  1.0000
  H   H647      1.0  0.25807  0.78691  0.46605  1.0000
  H   H648      1.0  0.43605  0.87840  0.49409  1.0000
  H   H649      1.0  0.48658  0.71729  0.47331  1.0000
  C   C550      1.0  0.25687  0.67547  0.40188  1.0000
  H   H650      1.0  0.27805  0.71796  0.42769  1.0000
  C   C551      1.0  0.48584  0.80848  0.43109  1.0000
  C   C552      1.0  0.27303  0.07452  0.44474  1.0000
  C   C553      1.0  0.25833  0.97324  0.25344  1.0000
  C   C554      1.0  0.27969  0.07696  0.46143  1.0000
  S   S142      1.0  0.24767  0.02685  0.36632  1.0000
  H   H651      1.0  0.27437  0.08844  0.47480  1.0000
  H   H652      1.0  0.26255  0.08471  0.44576  1.0000
  H   H653      1.0  0.49338  0.69718  0.44036  1.0000
  S   S143      1.0  0.43824  0.00627  0.25321  1.0000
  C   C555      1.0  0.24689  0.99929  0.25987  1.0000
  H   H654      1.0  0.49329  0.81301  0.41810  1.0000
  Fe  Fe74      1.0  0.30627  0.29393  0.71714  1.0000
  S   S144      1.0  0.30963  0.36328  0.70364  1.0000
  C   C556      1.0  0.36565  0.02785  0.59022  1.0000
  Fe  Fe75      1.0  0.31177  0.25675  0.67554  1.0000
  S   S145      1.0  0.31494  0.32511  0.65987  1.0000
  S   S146      1.0  0.31489  0.19048  0.66103  1.0000
  Fe  Fe76      1.0  0.32705  0.33217  0.68520  1.0000
  S   S147      1.0  0.34560  0.36846  0.67510  1.0000
  Fe  Fe77      1.0  0.29741  0.35128  0.67967  1.0000
  S   S148      1.0  0.27952  0.40278  0.67614  1.0000
  S   S149      1.0  0.32463  0.26266  0.70023  1.0000
  S   S150      1.0  0.29340  0.28271  0.69363  1.0000
  H   H655      1.0  0.29800  0.05279  0.68616  1.0000
  H   H656      1.0  0.25798  0.47081  0.67322  1.0000
  Fe  Fe78      1.0  0.32452  0.97301  0.55125  1.0000
  S   S151      1.0  0.31167  0.03506  0.54082  1.0000
  S   S152      1.0  0.34623  0.97516  0.54018  1.0000
  Fe  Fe79      1.0  0.30108  0.93225  0.57497  1.0000
  S   S153      1.0  0.28704  0.99196  0.56663  1.0000
  S   S154      1.0  0.29460  0.87283  0.59572  1.0000
  Fe  Fe80      1.0  0.29714  0.98845  0.53551  1.0000
  Fe  Fe81      1.0  0.30299  0.03261  0.57285  1.0000
  S   S155      1.0  0.29849  0.09685  0.58835  1.0000
  S   S156      1.0  0.31055  0.92671  0.54383  1.0000
  S   S157      1.0  0.31641  0.97247  0.58332  1.0000
  Fe  Fe82      1.0  0.44283  0.42678  0.67529  1.0000
  S   S158      1.0  0.45047  0.48146  0.68857  1.0000
  S   S159      1.0  0.45543  0.39625  0.65003  1.0000
  Fe  Fe83      1.0  0.41706  0.43066  0.70200  1.0000
  S   S160      1.0  0.42296  0.48539  0.71772  1.0000
  S   S161      1.0  0.39867  0.39464  0.71287  1.0000
  Fe  Fe84      1.0  0.43005  0.51659  0.68694  1.0000
  S   S162      1.0  0.42553  0.59221  0.67956  1.0000
  Fe  Fe85      1.0  0.44311  0.44698  0.71832  1.0000
  H   H657      1.0  0.27677  0.04660  0.60547  1.0000
  S   S163      1.0  0.42276  0.46432  0.67135  1.0000
  S   S164      1.0  0.43682  0.38979  0.70484  1.0000
  Fe  Fe86      1.0  0.44343  0.84579  0.54632  1.0000
  S   S165      1.0  0.42961  0.90234  0.55746  1.0000
  S   S166      1.0  0.45837  0.85209  0.51869  1.0000
  Fe  Fe87      1.0  0.43961  0.78569  0.58686  1.0000
  S   S167      1.0  0.42598  0.83912  0.60043  1.0000
  S   S168      1.0  0.44735  0.71827  0.60310  1.0000
  Fe  Fe88      1.0  0.41662  0.84963  0.57141  1.0000
  S   S169      1.0  0.39423  0.85039  0.57680  1.0000
  Fe  Fe89      1.0  0.44003  0.88711  0.58544  1.0000
  S   S170      1.0  0.44483  0.94588  0.59990  1.0000
  S   S171      1.0  0.42975  0.79336  0.55829  1.0000
  S   S172      1.0  0.45443  0.83347  0.57389  1.0000
  C   C557      1.0  0.46002  0.95682  0.60753  1.0000
  C   C558      1.0  0.47099  0.92487  0.60842  1.0000
  C   C559      1.0  0.48257  0.93454  0.61581  1.0000
  C   C560      1.0  0.48339  0.97654  0.62181  1.0000
  C   C561      1.0  0.46092  0.99885  0.61337  1.0000
  H   H658      1.0  0.47053  0.89263  0.60370  1.0000
  H   H659      1.0  0.46719  0.75804  0.64954  1.0000
  H   H660      1.0  0.45251  0.02383  0.61266  1.0000
  C   C562      1.0  0.44049  0.68294  0.62368  1.0000
  C   C563      1.0  0.42929  0.69693  0.63591  1.0000
  C   C564      1.0  0.42481  0.66872  0.65282  1.0000
  C   C565      1.0  0.43121  0.62574  0.65749  1.0000
  C   C566      1.0  0.44228  0.61155  0.64509  1.0000
  C   C567      1.0  0.44694  0.64012  0.62846  1.0000
  H   H661      1.0  0.42409  0.72945  0.63235  1.0000
  H   H662      1.0  0.41620  0.68007  0.66220  1.0000
  H   H663      1.0  0.44738  0.57874  0.64844  1.0000
  H   H664      1.0  0.45561  0.62883  0.61917  1.0000
  C   C568      1.0  0.46134  0.33932  0.65156  1.0000
  C   C569      1.0  0.47063  0.32399  0.63657  1.0000
  C   C570      1.0  0.47496  0.27838  0.63679  1.0000
  C   C571      1.0  0.46976  0.24784  0.65183  1.0000
  C   C572      1.0  0.46069  0.26328  0.66702  1.0000
  C   C573      1.0  0.45662  0.30890  0.66704  1.0000
  C   C574      1.0  0.35648  0.07010  0.56181  1.0000
  C   C575      1.0  0.46008  0.92438  0.65970  1.0000
  H   H665      1.0  0.45662  0.23976  0.67867  1.0000
  H   H666      1.0  0.44962  0.32045  0.67874  1.0000
  C   C576      1.0  0.35949  0.94069  0.55070  1.0000
  C   C577      1.0  0.35732  0.90726  0.56638  1.0000
  C   C578      1.0  0.36810  0.88028  0.57423  1.0000
  C   C579      1.0  0.38116  0.88658  0.56664  1.0000
  C   C580      1.0  0.38334  0.92069  0.55123  1.0000
  C   C581      1.0  0.37254  0.94752  0.54328  1.0000
  H   H667      1.0  0.34734  0.90163  0.57225  1.0000
  H   H668      1.0  0.36633  0.85392  0.58613  1.0000
  H   H669      1.0  0.39333  0.92581  0.54523  1.0000
  H   H670      1.0  0.37431  0.97330  0.53113  1.0000
  C   C582      1.0  0.25805  0.80414  0.58802  1.0000
  C   C583      1.0  0.26791  0.78235  0.59954  1.0000
  C   C584      1.0  0.27898  0.80398  0.60194  1.0000
  C   C585      1.0  0.28035  0.84736  0.59273  1.0000
  C   C586      1.0  0.27039  0.86937  0.58143  1.0000
  C   C587      1.0  0.25929  0.84785  0.57912  1.0000
  H   H671      1.0  0.28659  0.78682  0.61083  1.0000
  H   H672      1.0  0.27119  0.90308  0.57459  1.0000
  H   H673      1.0  0.27136  0.94297  0.63657  1.0000
  C   C588      1.0  0.31032  0.16543  0.64049  1.0000
  C   C589      1.0  0.30196  0.18805  0.62666  1.0000
  C   C590      1.0  0.29855  0.16655  0.61089  1.0000
  C   C591      1.0  0.30348  0.12218  0.60849  1.0000
  C   C592      1.0  0.31192  0.09958  0.62225  1.0000
  C   C593      1.0  0.31527  0.12102  0.63808  1.0000
  H   H674      1.0  0.29803  0.22208  0.62818  1.0000
  H   H675      1.0  0.29200  0.18455  0.60046  1.0000
  H   H676      1.0  0.31585  0.06558  0.62078  1.0000
  H   H677      1.0  0.32175  0.10302  0.64860  1.0000
  C   C594      1.0  0.36025  0.37524  0.68603  1.0000
  C   C595      1.0  0.36296  0.35499  0.70501  1.0000
  C   C596      1.0  0.37471  0.36153  0.71293  1.0000
  C   C597      1.0  0.38391  0.38847  0.70209  1.0000
  C   C598      1.0  0.38120  0.40876  0.68309  1.0000
  C   C599      1.0  0.36948  0.40204  0.67513  1.0000
  H   H678      1.0  0.35600  0.33427  0.71361  1.0000
  H   H679      1.0  0.37666  0.34566  0.72764  1.0000
  H   H680      1.0  0.38809  0.42980  0.67457  1.0000
  H   H681      1.0  0.36753  0.41790  0.66043  1.0000
  C   C600      1.0  0.27562  0.44460  0.65652  1.0000
  C   C601      1.0  0.28360  0.44950  0.63855  1.0000
  C   C602      1.0  0.28046  0.48501  0.62388  1.0000
  C   C603      1.0  0.26926  0.51556  0.62698  1.0000
  C   C604      1.0  0.26107  0.50992  0.64470  1.0000
  C   C605      1.0  0.26426  0.47459  0.65940  1.0000
  H   H682      1.0  0.29217  0.42600  0.63597  1.0000
  H   H683      1.0  0.28678  0.48903  0.61013  1.0000
  H   H684      1.0  0.26659  0.76547  0.52684  1.0000
  C   C606      1.0  0.43317  0.30273  0.63740  1.0000
  C   C607      1.0  0.42554  0.23601  0.65611  1.0000
  H   H685      1.0  0.30269  0.80574  0.51102  1.0000
  Fe  Fe90      1.0  0.49205  0.15559  0.63650  1.0000
  C   C608      1.0  0.46907  0.97887  0.51878  1.0000
  C   C609      1.0  0.48370  0.99378  0.54264  1.0000
  H   H686      1.0  0.26725  0.87384  0.53622  1.0000
  H   H687      1.0  0.48716  0.29727  0.67140  1.0000
  S   S173      1.0  0.29570  0.27938  0.74860  1.0000
  C   C610      1.0  0.45804  0.84622  0.65629  1.0000
  C   C611      1.0  0.42476  0.28318  0.65332  1.0000
  C   C612      1.0  0.49314  0.32171  0.72401  1.0000
  H   H688      1.0  0.42704  0.36541  0.66454  1.0000
  H   H689      1.0  0.34750  0.08583  0.55479  1.0000
  H   H690      1.0  0.27236  0.09747  0.62771  1.0000
  H   H691      1.0  0.28303  0.88806  0.54139  1.0000
  C   C613      1.0  0.27771  0.87561  0.53009  1.0000
  H   H692      1.0  0.45692  0.95940  0.65596  1.0000
  Fe  Fe91      1.0  0.24801  0.61155  0.61096  1.0000
  H   H693      1.0  0.47594  0.98720  0.50542  1.0000
  C   C614      1.0  0.46589  0.94420  0.55226  1.0000
  H   H694      1.0  0.26707  0.74872  0.60648  1.0000
  H   H695      1.0  0.48347  0.85727  0.68395  1.0000
  C   C615      1.0  0.34261  0.02868  0.58660  1.0000
  C   C616      1.0  0.40175  0.30321  0.66397  1.0000
  N   N38       1.0  0.28016  0.00492  0.63299  1.0000
  C   C617      1.0  0.29308  0.98553  0.62424  1.0000
  C   C618      1.0  0.27349  0.96909  0.64555  1.0000
  H   H696      1.0  0.25164  0.86510  0.57034  1.0000
  C   C619      1.0  0.28230  0.03993  0.64523  1.0000
  C   C620      1.0  0.27761  0.08548  0.64062  1.0000
  C   C621      1.0  0.28965  0.02903  0.66210  1.0000
  H   H697      1.0  0.27961  0.95150  0.65727  1.0000
  C   C622      1.0  0.29212  0.06160  0.67360  1.0000
  H   H698      1.0  0.27672  0.15242  0.64826  1.0000
  H   H699      1.0  0.36409  0.09395  0.55894  1.0000
  H   H700      1.0  0.46003  0.92017  0.54695  1.0000
  H   H701      1.0  0.26435  0.51327  0.73661  1.0000
  H   H702      1.0  0.29855  0.01189  0.61525  1.0000
  S   S174      1.0  0.45856  0.43618  0.74119  1.0000
  H   H703      1.0  0.25809  0.47065  0.56543  1.0000
  C   C623      1.0  0.47077  0.91177  0.67095  1.0000
  H   H704      1.0  0.27033  0.99423  0.60761  1.0000
  S   S175      1.0  0.49307  0.11552  0.61048  1.0000
  C   C624      1.0  0.48245  0.00566  0.56238  1.0000
  H   H705      1.0  0.29377  0.99532  0.66631  1.0000
  H   H706      1.0  0.48924  0.04418  0.58307  1.0000
  H   H707      1.0  0.46280  0.95472  0.51442  1.0000
  H   H708      1.0  0.47558  0.99182  0.57395  1.0000
  H   H709      1.0  0.27357  0.79789  0.55055  1.0000
  H   H710      1.0  0.42847  0.29750  0.69017  1.0000
  H   H711      1.0  0.49185  0.21501  0.67678  1.0000
  C   C625      1.0  0.26930  0.48736  0.74648  1.0000
  C   C626      1.0  0.45525  0.82028  0.62522  1.0000
  C   C627      1.0  0.43733  0.81899  0.65122  1.0000
  H   H712      1.0  0.45126  0.85378  0.61865  1.0000
  H   H713      1.0  0.46612  0.81689  0.62133  1.0000
  H   H714      1.0  0.45110  0.79571  0.61756  1.0000
  H   H715      1.0  0.43258  0.79297  0.64525  1.0000
  H   H716      1.0  0.43441  0.81716  0.66752  1.0000
  H   H717      1.0  0.47108  0.71684  0.50287  1.0000
  H   H718      1.0  0.42233  0.57940  0.72566  1.0000
  C   C628      1.0  0.28006  0.11769  0.65232  1.0000
  H   H719      1.0  0.28807  0.76605  0.54003  1.0000
  N   N39       1.0  0.35379  0.05633  0.58348  1.0000
  C   C629      1.0  0.28734  0.10585  0.66871  1.0000
  C   C630      1.0  0.46886  0.83436  0.66811  1.0000
  C   C631      1.0  0.41800  0.29542  0.68776  1.0000
  C   C632      1.0  0.47257  0.00884  0.62030  1.0000
  H   H720      1.0  0.36496  0.08201  0.61600  1.0000
  H   H721      1.0  0.48188  0.26675  0.62494  1.0000
  C   C633      1.0  0.49025  0.03604  0.56786  1.0000
  H   H722      1.0  0.47306  0.04125  0.62492  1.0000
  H   H723      1.0  0.36011  0.04114  0.55350  1.0000
  H   H724      1.0  0.45820  0.56977  0.72043  1.0000
  H   H725      1.0  0.47433  0.34744  0.62455  1.0000
  H   H726      1.0  0.44355  0.56548  0.70922  1.0000
  H   H727      1.0  0.49092  0.90943  0.61688  1.0000
  H   H728      1.0  0.49087  0.90671  0.54431  1.0000
  N   N40       1.0  0.47604  0.96019  0.53654  1.0000
  H   H729      1.0  0.44872  0.29204  0.61402  1.0000
  C   C634      1.0  0.35017  0.09604  0.59419  1.0000
  H   H730      1.0  0.33972  0.01995  0.60275  1.0000
  H   H731      1.0  0.29191  0.95997  0.61435  1.0000
  C   C635      1.0  0.44284  0.23029  0.62913  1.0000
  H   H732      1.0  0.39972  0.26798  0.66784  1.0000
  H   H733      1.0  0.27768  0.90145  0.51702  1.0000
  H   H734      1.0  0.25238  0.53306  0.64717  1.0000
  C   C636      1.0  0.48317  0.34653  0.71371  1.0000
  N   N41       1.0  0.41554  0.30979  0.66664  1.0000
  C   C637      1.0  0.35254  0.14067  0.62106  1.0000
  C   C638      1.0  0.33536  0.16396  0.59917  1.0000
  C   C639      1.0  0.34187  0.17050  0.61538  1.0000
  H   H735      1.0  0.35742  0.14571  0.63388  1.0000
  H   H736      1.0  0.32683  0.18660  0.59514  1.0000
  H   H737      1.0  0.33839  0.19811  0.62388  1.0000
  N   N42       1.0  0.31995  0.48289  0.66267  1.0000
  C   C640      1.0  0.31605  0.44275  0.65558  1.0000
  C   C641      1.0  0.33342  0.48997  0.65319  1.0000
  C   C642      1.0  0.32084  0.47423  0.68451  1.0000
  C   C643      1.0  0.30989  0.52072  0.65801  1.0000
  C   C644      1.0  0.29670  0.51967  0.66681  1.0000
  C   C645      1.0  0.31258  0.55817  0.64403  1.0000
  C   C646      1.0  0.28685  0.55386  0.66192  1.0000
  C   C647      1.0  0.30259  0.59195  0.63910  1.0000
  C   C648      1.0  0.28974  0.58965  0.64793  1.0000
  H   H738      1.0  0.31456  0.44864  0.63944  1.0000
  H   H739      1.0  0.32369  0.41398  0.65768  1.0000
  H   H740      1.0  0.30672  0.43208  0.66370  1.0000
  H   H741      1.0  0.33379  0.49316  0.63665  1.0000
  H   H742      1.0  0.34077  0.46127  0.65747  1.0000
  H   H743      1.0  0.33697  0.51987  0.65785  1.0000
  H   H744      1.0  0.31157  0.46368  0.69276  1.0000
  H   H745      1.0  0.32867  0.44674  0.68836  1.0000
  H   H746      1.0  0.32319  0.50431  0.69058  1.0000
  H   H747      1.0  0.29378  0.49159  0.67703  1.0000
  H   H748      1.0  0.32225  0.56186  0.63644  1.0000
  H   H749      1.0  0.27680  0.55185  0.66851  1.0000
  H   H750      1.0  0.30475  0.61982  0.62813  1.0000
  H   H751      1.0  0.28195  0.61527  0.64367  1.0000
  H   H752      1.0  0.41174  0.31655  0.69808  1.0000
  H   H753      1.0  0.29950  0.96876  0.63573  1.0000
  C   C649      1.0  0.29803  0.83606  0.51758  1.0000
  H   H754      1.0  0.26396  0.98268  0.65308  1.0000
  C   C650      1.0  0.44785  0.56150  0.72380  1.0000
  H   H755      1.0  0.26200  0.03648  0.62180  1.0000
  H   H756      1.0  0.34513  0.99703  0.57984  1.0000
  C   C651      1.0  0.43456  0.21010  0.64429  1.0000
  C   C652      1.0  0.48125  0.33743  0.69474  1.0000
  H   H757      1.0  0.33372  0.04588  0.57976  1.0000
  H   H758      1.0  0.39949  0.31348  0.64828  1.0000
  N   N43       1.0  0.45192  0.81322  0.64702  1.0000
  H   H759      1.0  0.45139  0.74251  0.64695  1.0000
  H   H760      1.0  0.43278  0.85116  0.64407  1.0000
  H   H761      1.0  0.39452  0.32310  0.67368  1.0000
  H   H762      1.0  0.41007  0.37720  0.67340  1.0000
  H   H763      1.0  0.47584  0.93701  0.67598  1.0000
  S   S176      1.0  0.47359  0.19003  0.65162  1.0000
  C   C653      1.0  0.27193  0.02147  0.61630  1.0000
  C   C654      1.0  0.45649  0.76625  0.65392  1.0000
  N   N44       1.0  0.28394  0.83190  0.52473  1.0000
  H   H764      1.0  0.45014  0.21012  0.62044  1.0000
  C   C655      1.0  0.25296  0.46799  0.58074  1.0000
  H   H765      1.0  0.43346  0.33824  0.63414  1.0000
  H   H766      1.0  0.28946  0.81018  0.55458  1.0000
  H   H767      1.0  0.45447  0.75876  0.67033  1.0000
  C   C656      1.0  0.35672  0.10397  0.61065  1.0000
  H   H768      1.0  0.27284  0.44112  0.72441  1.0000
  H   H769      1.0  0.47286  0.80030  0.67169  1.0000
  H   H770      1.0  0.41423  0.37235  0.64764  1.0000
  H   H771      1.0  0.47687  0.37279  0.72045  1.0000
  H   H772      1.0  0.36817  0.99872  0.58155  1.0000
  H   H773      1.0  0.24843  0.45624  0.61846  1.0000
  C   C657      1.0  0.47508  0.86686  0.67528  1.0000
  H   H774      1.0  0.45870  0.97203  0.55704  1.0000
  C   C658      1.0  0.45382  0.89227  0.65240  1.0000
  H   H775      1.0  0.46252  0.00959  0.52172  1.0000
  H   H776      1.0  0.47344  0.35678  0.68680  1.0000
  C   C659      1.0  0.44205  0.27645  0.62556  1.0000
  C   C660      1.0  0.33935  0.12721  0.58879  1.0000
  H   H777      1.0  0.28962  0.13130  0.67725  1.0000
  H   H778      1.0  0.44868  0.75626  0.50166  1.0000
  C   C661      1.0  0.27404  0.44679  0.73956  1.0000
  H   H779      1.0  0.37450  0.04656  0.58818  1.0000
  H   H780      1.0  0.41932  0.21878  0.66766  1.0000
  H   H781      1.0  0.33361  0.12271  0.57685  1.0000
  H   H782      1.0  0.43535  0.17413  0.64711  1.0000
  C   C662      1.0  0.48521  0.92108  0.53147  1.0000
  H   H783      1.0  0.36404  0.01364  0.60608  1.0000
  S   S177      1.0  0.26588  0.56016  0.60835  1.0000
  H   H784      1.0  0.47984  0.89429  0.52740  1.0000
  C   C663      1.0  0.28373  0.79991  0.54316  1.0000
  H   H785      1.0  0.41571  0.26088  0.69280  1.0000
  C   C664      1.0  0.41682  0.35821  0.66281  1.0000
  H   H786      1.0  0.44599  0.90410  0.64294  1.0000
  H   H787      1.0  0.43649  0.64128  0.71363  1.0000
  C   C665      1.0  0.26831  0.78415  0.51239  1.0000
  H   H788      1.0  0.30392  0.84112  0.52984  1.0000
  H   H789      1.0  0.29932  0.86527  0.50624  1.0000
  C   C666      1.0  0.48930  0.30359  0.68594  1.0000
  S   S178      1.0  0.28345  0.99336  0.51035  1.0000
  H   H790      1.0  0.25319  0.43199  0.58632  1.0000
  H   H791      1.0  0.49494  0.00643  0.51368  1.0000
  H   H792      1.0  0.25908  0.48396  0.58986  1.0000
  H   H793      1.0  0.44797  0.52570  0.72967  1.0000
  N   N45       1.0  0.44015  0.59018  0.73797  1.0000
  C   C667      1.0  0.44019  0.63688  0.72872  1.0000
  H   H794      1.0  0.28399  0.38152  0.74681  1.0000
  H   H795      1.0  0.45035  0.64732  0.72699  1.0000
  H   H796      1.0  0.41948  0.60145  0.74886  1.0000
  H   H797      1.0  0.47041  0.92634  0.56558  1.0000
  C   C668      1.0  0.49323  0.01429  0.52886  1.0000
  C   C669      1.0  0.27685  0.81854  0.50889  1.0000
  H   H798      1.0  0.25520  0.74660  0.49997  1.0000
  H   H799      1.0  0.49246  0.92956  0.51858  1.0000
  H   H800      1.0  0.49451  0.32885  0.73883  1.0000
  C   C670      1.0  0.42637  0.57834  0.74036  1.0000
  H   H801      1.0  0.43376  0.66037  0.73768  1.0000
  H   H802      1.0  0.42582  0.54421  0.74831  1.0000
  H   H803      1.0  0.27656  0.23091  0.89070  1.0000
  Fe  Fe92      1.0  0.28118  0.36467  0.86035  1.0000
  S   S179      1.0  0.25916  0.37614  0.85968  1.0000
  S   S180      1.0  0.29618  0.34297  0.83494  1.0000
  Fe  Fe93      1.0  0.28009  0.39969  0.90246  1.0000
  S   S181      1.0  0.25801  0.41477  0.90370  1.0000
  S   S182      1.0  0.29378  0.40431  0.92688  1.0000
  Fe  Fe94      1.0  0.25822  0.34801  0.89223  1.0000
  C   C671      1.0  0.28034  0.41326  0.75216  1.0000
  Fe  Fe95      1.0  0.26102  0.44140  0.87101  1.0000
  H   H804      1.0  0.48068  0.36395  0.82576  1.0000
  S   S183      1.0  0.28023  0.33231  0.89203  1.0000
  S   S184      1.0  0.28316  0.43056  0.87062  1.0000
  C   C672      1.0  0.49530  0.27233  0.80356  1.0000
  S   S185      1.0  0.47881  0.48708  0.87682  1.0000
  C   C673      1.0  0.26310  0.18695  0.86677  1.0000
  C   C674      1.0  0.41239  0.37929  0.93482  1.0000
  S   S186      1.0  0.47239  0.38514  0.88053  1.0000
  Fe  Fe96      1.0  0.47471  0.44042  0.85552  1.0000
  S   S187      1.0  0.45859  0.45674  0.83386  1.0000
  Fe  Fe97      1.0  0.47851  0.42962  0.90116  1.0000
  S   S188      1.0  0.46881  0.44815  0.93134  1.0000
  H   H805      1.0  0.49366  0.61152  0.91004  1.0000
  H   H806      1.0  0.28032  0.53849  0.79500  1.0000
  C   C675      1.0  0.46707  0.41194  0.95387  1.0000
  C   C676      1.0  0.47130  0.36653  0.95477  1.0000
  C   C677      1.0  0.46926  0.33858  0.97275  1.0000
  H   H807      1.0  0.47311  0.53652  0.94548  1.0000
  H   H808      1.0  0.26016  0.26751  0.84447  1.0000
  C   C678      1.0  0.46088  0.42911  0.97120  1.0000
  H   H809      1.0  0.47603  0.35283  0.94156  1.0000
  H   H810      1.0  0.47249  0.30341  0.97323  1.0000
  H   H811      1.0  0.46973  0.29141  0.79339  1.0000
  H   H812      1.0  0.45748  0.46415  0.97062  1.0000
  C   C679      1.0  0.45877  0.44974  0.80818  1.0000
  C   C680      1.0  0.47047  0.43907  0.79639  1.0000
  C   C681      1.0  0.47016  0.43475  0.77601  1.0000
  C   C682      1.0  0.45817  0.44132  0.76708  1.0000
  C   C683      1.0  0.44647  0.45219  0.77882  1.0000
  C   C684      1.0  0.44679  0.45636  0.79923  1.0000
  H   H813      1.0  0.47979  0.43545  0.80285  1.0000
  H   H814      1.0  0.47000  0.30005  0.83805  1.0000
  H   H815      1.0  0.43718  0.45746  0.77221  1.0000
  H   H816      1.0  0.43768  0.46500  0.80815  1.0000
  H   H817      1.0  0.49594  0.33259  0.83086  1.0000
  H   H818      1.0  0.25692  0.64774  0.88490  1.0000
  C   C685      1.0  0.39933  0.34402  0.99565  1.0000
  C   C686      1.0  0.25391  0.18175  0.85319  1.0000
  H   H819      1.0  0.26816  0.16368  0.89729  1.0000
  H   H820      1.0  0.29747  0.42266  0.80213  1.0000
  C   C687      1.0  0.27193  0.43637  0.81396  1.0000
  C   C688      1.0  0.44545  0.58526  0.75769  1.0000
  H   H821      1.0  0.27369  0.28911  0.85315  1.0000
  H   H822      1.0  0.28691  0.39322  0.78077  1.0000
  H   H823      1.0  0.27570  0.21036  0.82970  1.0000
  C   C689      1.0  0.28087  0.47119  0.97551  1.0000
  C   C690      1.0  0.28131  0.45392  0.95703  1.0000
  C   C691      1.0  0.29268  0.42851  0.94979  1.0000
  C   C692      1.0  0.30356  0.42101  0.96133  1.0000
  C   C693      1.0  0.30312  0.43824  0.97981  1.0000
  C   C694      1.0  0.28144  0.20723  0.84288  1.0000
  H   H824      1.0  0.27285  0.46018  0.94844  1.0000
  H   H825      1.0  0.31244  0.40160  0.95592  1.0000
  H   H826      1.0  0.29984  0.47891  0.79224  1.0000
  C   C695      1.0  0.29588  0.29927  0.77215  1.0000
  C   C696      1.0  0.28467  0.29642  0.78603  1.0000
  C   C697      1.0  0.28444  0.31033  0.80514  1.0000
  C   C698      1.0  0.29562  0.32608  0.81087  1.0000
  C   C699      1.0  0.30685  0.32860  0.79705  1.0000
  C   C700      1.0  0.30693  0.31596  0.77774  1.0000
  H   H827      1.0  0.27608  0.28341  0.78190  1.0000
  H   H828      1.0  0.27570  0.30832  0.81544  1.0000
  H   H829      1.0  0.31559  0.34046  0.80130  1.0000
  H   H830      1.0  0.31568  0.31789  0.76738  1.0000
  N   N46       1.0  0.27945  0.46750  0.79988  1.0000
  H   H831      1.0  0.46673  0.34268  0.80384  1.0000
  H   H832      1.0  0.25112  0.11376  0.90534  1.0000
  H   H833      1.0  0.28181  0.37856  0.98721  1.0000
  C   C701      1.0  0.26394  0.30230  0.97423  1.0000
  C   C702      1.0  0.27089  0.49463  0.76601  1.0000
  C   C703      1.0  0.45883  0.40112  0.98920  1.0000
  C   C704      1.0  0.46296  0.35556  0.99002  1.0000
  H   H834      1.0  0.28940  0.22972  0.83870  1.0000
  N   N47       1.0  0.41304  0.35652  0.99150  1.0000
  C   C705      1.0  0.49083  0.56308  0.96870  1.0000
  H   H835      1.0  0.27363  0.35657  0.95798  1.0000
  H   H836      1.0  0.48484  0.26348  0.84112  1.0000
  H   H837      1.0  0.47453  0.54482  0.91926  1.0000
  H   H838      1.0  0.27317  0.44034  0.82969  1.0000
  H   H839      1.0  0.43754  0.37432  0.97386  1.0000
  H   H840      1.0  0.26031  0.29298  0.96107  1.0000
  C   C706      1.0  0.27144  0.33809  0.97249  1.0000
  H   H841      1.0  0.39192  0.37204  0.99096  1.0000
  H   H842      1.0  0.44445  0.39200  0.93855  1.0000
  H   H843      1.0  0.26119  0.44221  0.81213  1.0000
  H   H844      1.0  0.43778  0.62000  0.80414  1.0000
  C   C707      1.0  0.28211  0.21985  0.87685  1.0000
  H   H845      1.0  0.47269  0.25017  0.82625  1.0000
  H   H846      1.0  0.47954  0.33599  0.78398  1.0000
  C   C708      1.0  0.49431  0.58249  0.98474  1.0000
  H   H847      1.0  0.25989  0.27377  0.87036  1.0000
  C   C709      1.0  0.41713  0.36629  0.96995  1.0000
  H   H848      1.0  0.24760  0.59446  0.83369  1.0000
  C   C710      1.0  0.47473  0.31859  0.79778  1.0000
  H   H849      1.0  0.45802  0.57003  0.81099  1.0000
  C   C711      1.0  0.43028  0.37504  0.96339  1.0000
  C   C712      1.0  0.46175  0.55319  0.78101  1.0000
  H   H850      1.0  0.47062  0.53146  0.78416  1.0000
  H   H851      1.0  0.42982  0.63036  0.77103  1.0000
  N   N48       1.0  0.48447  0.30238  0.81246  1.0000
  H   H852      1.0  0.40546  0.38124  0.92365  1.0000
  C   C713      1.0  0.48905  0.34209  0.81909  1.0000
  H   H853      1.0  0.28769  0.18679  0.88053  1.0000
  S   S189      1.0  0.24800  0.29148  0.91052  1.0000
  C   C714      1.0  0.40822  0.36901  0.95499  1.0000
  C   C715      1.0  0.27505  0.51318  0.80503  1.0000
  S   S190      1.0  0.49619  0.42038  0.84743  1.0000
  C   C716      1.0  0.43434  0.38532  0.94320  1.0000
  H   H854      1.0  0.27200  0.49059  0.98092  1.0000
  H   H855      1.0  0.47929  0.42700  0.76702  1.0000
  H   H856      1.0  0.27524  0.40106  0.81204  1.0000
  H   H857      1.0  0.28958  0.24386  0.87205  1.0000
  C   C717      1.0  0.26641  0.26421  0.85707  1.0000
  C   C718      1.0  0.49246  0.23331  0.79612  1.0000
  N   N49       1.0  0.27313  0.21875  0.86114  1.0000
  C   C719      1.0  0.49622  0.57515  0.94889  1.0000
  H   H858      1.0  0.28623  0.17249  0.84502  1.0000
  C   C720      1.0  0.27747  0.46124  0.77915  1.0000
  C   C721      1.0  0.42542  0.38741  0.92894  1.0000
  C   C722      1.0  0.28201  0.42029  0.77163  1.0000
  C   C723      1.0  0.45468  0.57513  0.79615  1.0000
  H   H859      1.0  0.26688  0.52658  0.77045  1.0000
  H   H860      1.0  0.40758  0.42570  0.99482  1.0000
  H   H861      1.0  0.39797  0.36355  0.95846  1.0000
  H   H862      1.0  0.42862  0.39560  0.91331  1.0000
  H   H863      1.0  0.27704  0.51689  0.82054  1.0000
  H   H864      1.0  0.47316  0.59231  0.93295  1.0000
  H   H865      1.0  0.24691  0.57685  0.89261  1.0000
  C   C724      1.0  0.44325  0.60298  0.79228  1.0000
  C   C725      1.0  0.29172  0.46333  0.98713  1.0000
  H   H866      1.0  0.49326  0.48775  0.94758  1.0000
  S   S191      1.0  0.25586  0.50832  0.85295  1.0000
  C   C726      1.0  0.27621  0.35026  0.98933  1.0000
  C   C727      1.0  0.29366  0.45800  0.80321  1.0000
  H   H867      1.0  0.29552  0.46404  0.81847  1.0000
  H   H868      1.0  0.26419  0.52137  0.80462  1.0000
  N   N50       1.0  0.49228  0.55438  0.93213  1.0000
  C   C728      1.0  0.47767  0.55738  0.93256  1.0000
  H   H869      1.0  0.25406  0.20058  0.83861  1.0000
  H   H870      1.0  0.48389  0.53838  0.97192  1.0000
  Fe  Fe98      1.0  0.49417  0.36701  0.87332  1.0000
  H   H871      1.0  0.31159  0.43200  0.98839  1.0000
  C   C729      1.0  0.43874  0.60840  0.77330  1.0000
  C   C730      1.0  0.47769  0.27789  0.83015  1.0000
  H   H872      1.0  0.39804  0.31443  0.98829  1.0000
  C   C731      1.0  0.45722  0.55768  0.76208  1.0000
  H   H873      1.0  0.48244  0.22512  0.79667  1.0000
  H   H874      1.0  0.42246  0.28937  0.99256  1.0000
  H   H875      1.0  0.49410  0.55967  0.89986  1.0000
  H   H876      1.0  0.49529  0.49031  0.92111  1.0000
  H   H877      1.0  0.49404  0.36277  0.80649  1.0000
  C   C732      1.0  0.26188  0.16133  0.88577  1.0000
  C   C733      1.0  0.26114  0.27871  0.99287  1.0000
  H   H878      1.0  0.25526  0.25093  0.99418  1.0000
  C   C734      1.0  0.25210  0.13229  0.89065  1.0000
  H   H879      1.0  0.46297  0.53825  0.75136  1.0000
  Fe  Fe99      1.0  0.51339  0.64082  0.10452  1.0000
  N   N51       1.0  0.50424  0.55118  0.05574  1.0000
  S   S192      1.0  0.52934  0.63980  0.07826  1.0000
  Fe  Fe100     1.0  0.51173  0.63277  0.15097  1.0000
  H   H880      1.0  0.57228  0.60831  0.11797  1.0000
  S   S193      1.0  0.52485  0.64734  0.17444  1.0000
  S   S194      1.0  0.74282  0.76967  0.07972  1.0000
  S   S195      1.0  0.69829  0.74350  0.24005  1.0000
  H   H881      1.0  0.71930  0.33697  0.03990  1.0000
  H   H882      1.0  0.71546  0.41747  0.02845  1.0000
  S   S196      1.0  0.51747  0.58418  0.12844  1.0000
  S   S197      1.0  0.50907  0.69055  0.12681  1.0000
  Fe  Fe101     1.0  0.73667  0.70394  0.09591  1.0000
  S   S198      1.0  0.71537  0.69035  0.10290  1.0000
  C   C735      1.0  0.73490  0.68238  0.23573  1.0000
  C   C736      1.0  0.50542  0.53458  0.07705  1.0000
  S   S199      1.0  0.72604  0.58635  0.11470  1.0000
  H   H883      1.0  0.68142  0.74741  0.17818  1.0000
  Fe  Fe102     1.0  0.72099  0.62992  0.08622  1.0000
  S   S200      1.0  0.70743  0.62156  0.06186  1.0000
  Fe  Fe103     1.0  0.72202  0.64837  0.13072  1.0000
  S   S201      1.0  0.71168  0.63762  0.16283  1.0000
  H   H884      1.0  0.51034  0.50468  0.02194  1.0000
  C   C737      1.0  0.69578  0.59488  0.00880  1.0000
  C   C738      1.0  0.66287  0.70505  0.21994  1.0000
  C   C739      1.0  0.73140  0.51553  0.16894  1.0000
  C   C740      1.0  0.67568  0.72431  0.18794  1.0000
  H   H885      1.0  0.67195  0.76722  0.21040  1.0000
  H   H886      1.0  0.52376  0.57298  0.05317  1.0000
  C   C741      1.0  0.50574  0.70527  0.22336  1.0000
  C   C742      1.0  0.69678  0.61320  0.02670  1.0000
  C   C743      1.0  0.70714  0.59811  0.03885  1.0000
  C   C744      1.0  0.71652  0.56412  0.03266  1.0000
  C   C745      1.0  0.71536  0.54513  0.01498  1.0000
  H   H887      1.0  0.64190  0.67021  0.24414  1.0000
  H   H888      1.0  0.68940  0.63923  0.03124  1.0000
  H   H889      1.0  0.72451  0.55176  0.04175  1.0000
  H   H890      1.0  0.72567  0.49132  0.17883  1.0000
  C   C746      1.0  0.70250  0.71253  0.21910  1.0000
  C   C747      1.0  0.70813  0.73392  0.20111  1.0000
  C   C748      1.0  0.71127  0.71151  0.18393  1.0000
  C   C749      1.0  0.70866  0.66732  0.18433  1.0000
  C   C750      1.0  0.70318  0.64574  0.20241  1.0000
  C   C751      1.0  0.70019  0.66798  0.21966  1.0000
  H   H891      1.0  0.70997  0.76837  0.20036  1.0000
  H   H892      1.0  0.71543  0.72883  0.17023  1.0000
  H   H893      1.0  0.70095  0.61177  0.20296  1.0000
  C   C752      1.0  0.67438  0.68304  0.18207  1.0000
  H   H894      1.0  0.54620  0.69241  0.15368  1.0000
  H   H895      1.0  0.73486  0.70517  0.00452  1.0000
  C   C753      1.0  0.65804  0.76140  0.24380  1.0000
  H   H896      1.0  0.51786  0.56775  0.03001  1.0000
  C   C754      1.0  0.66182  0.66314  0.21350  1.0000
  H   H897      1.0  0.72649  0.58436  0.19136  1.0000
  H   H898      1.0  0.72757  0.53263  0.20662  1.0000
  C   C755      1.0  0.70500  0.56027  0.00285  1.0000
  C   C756      1.0  0.52982  0.56085  0.22527  1.0000
  C   C757      1.0  0.52533  0.58086  0.20693  1.0000
  C   C758      1.0  0.53034  0.61960  0.19734  1.0000
  C   C759      1.0  0.53998  0.63767  0.20631  1.0000
  C   C760      1.0  0.54454  0.61746  0.22457  1.0000
  H   H899      1.0  0.72257  0.51838  0.01072  1.0000
  H   H900      1.0  0.51794  0.56644  0.20029  1.0000
  H   H901      1.0  0.54399  0.66748  0.19904  1.0000
  H   H902      1.0  0.52577  0.53110  0.23257  1.0000
  C   C761      1.0  0.71682  0.31689  0.01138  1.0000
  C   C762      1.0  0.51857  0.70891  0.02559  1.0000
  C   C763      1.0  0.51831  0.69146  0.04589  1.0000
  C   C764      1.0  0.52905  0.66332  0.05287  1.0000
  C   C765      1.0  0.53996  0.65268  0.03926  1.0000
  C   C766      1.0  0.54021  0.67012  0.01898  1.0000
  H   H903      1.0  0.51028  0.73107  0.02040  1.0000
  H   H904      1.0  0.50989  0.70034  0.05614  1.0000
  H   H905      1.0  0.54834  0.63101  0.04443  1.0000
  N   N52       1.0  0.65735  0.71467  0.24018  1.0000
  S   S202      1.0  0.74188  0.64591  0.07825  1.0000
  H   H906      1.0  0.56178  0.52638  0.20196  1.0000
  C   C767      1.0  0.49757  0.74462  0.22522  1.0000
  H   H907      1.0  0.67907  0.67431  0.16780  1.0000
  C   C768      1.0  0.66746  0.65251  0.19482  1.0000
  H   H908      1.0  0.74479  0.69387  0.23098  1.0000
  C   C769      1.0  0.67010  0.73530  0.20660  1.0000
  C   C770      1.0  0.53936  0.57912  0.23434  1.0000
  H   H909      1.0  0.57480  0.63971  0.16492  1.0000
  C   C771      1.0  0.71514  0.39317  0.01818  1.0000
  H   H910      1.0  0.53694  0.64251  0.13336  1.0000
  H   H911      1.0  0.54797  0.60706  0.11799  1.0000
  H   H912      1.0  0.68768  0.60690  0.99989  1.0000
  H   H913      1.0  0.51219  0.55320  0.08388  1.0000
  H   H914      1.0  0.66668  0.62015  0.19028  1.0000
  H   H915      1.0  0.72404  0.54179  0.16240  1.0000
  H   H916      1.0  0.57640  0.58651  0.19486  1.0000
  C   C772      1.0  0.49780  0.59746  0.05442  1.0000
  H   H917      1.0  0.56344  0.69962  0.14957  1.0000
  C   C773      1.0  0.51786  0.55243  0.04578  1.0000
  H   H918      1.0  0.57854  0.64944  0.13009  1.0000
  H   H919      1.0  0.65286  0.78532  0.23269  1.0000
  H   H920      1.0  0.54873  0.66194  0.00877  1.0000
  H   H921      1.0  0.69574  0.65095  0.23319  1.0000
  N   N53       1.0  0.74090  0.53468  0.17960  1.0000
  H   H922      1.0  0.50730  0.69167  0.20916  1.0000
  H   H923      1.0  0.54576  0.66548  0.11116  1.0000
  C   C774      1.0  0.71729  0.34794  0.02462  1.0000
  C   C775      1.0  0.55085  0.57535  0.15802  1.0000
  C   C776      1.0  0.52954  0.69863  0.01202  1.0000
  H   H924      1.0  0.55308  0.71619  0.12988  1.0000
  C   C777      1.0  0.55207  0.54494  0.17512  1.0000
  H   H925      1.0  0.63736  0.72500  0.23205  1.0000
  C   C778      1.0  0.56939  0.58322  0.18437  1.0000
  C   C779      1.0  0.56122  0.54909  0.18836  1.0000
  H   H926      1.0  0.52333  0.51862  0.04637  1.0000
  H   H927      1.0  0.56926  0.66631  0.10905  1.0000
  H   H928      1.0  0.54324  0.57091  0.14885  1.0000
  H   H929      1.0  0.54553  0.51892  0.17852  1.0000
  H   H930      1.0  0.65687  0.63785  0.22304  1.0000
  N   N54       1.0  0.55755  0.64499  0.13611  1.0000
  C   C780      1.0  0.54660  0.63952  0.12421  1.0000
  C   C781      1.0  0.55502  0.69018  0.14258  1.0000
  C   C782      1.0  0.56996  0.64220  0.12276  1.0000
  C   C783      1.0  0.55882  0.61124  0.15373  1.0000
  C   C784      1.0  0.56830  0.61371  0.16727  1.0000
  H   H931      1.0  0.55203  0.63163  0.23110  1.0000
  H   H932      1.0  0.71851  0.28169  0.01647  1.0000
  H   H933      1.0  0.50920  0.49871  0.07900  1.0000
  C   C785      1.0  0.74185  0.75136  0.02129  1.0000
  C   C786      1.0  0.73934  0.73601  0.00375  1.0000
  H   H934      1.0  0.50362  0.61958  0.06107  1.0000
  C   C787      1.0  0.64326  0.70594  0.24376  1.0000
  S   S203      1.0  0.74293  0.66632  0.12460  1.0000
  C   C788      1.0  0.73355  0.55581  0.19656  1.0000
  H   H935      1.0  0.73659  0.49789  0.15653  1.0000
  H   H936      1.0  0.73930  0.73278  0.03564  1.0000
  H   H937      1.0  0.73162  0.66603  0.22360  1.0000
  C   C789      1.0  0.51205  0.68338  0.23966  1.0000
  C   C790      1.0  0.50067  0.50146  0.02967  1.0000
  H   H938      1.0  0.73660  0.46113  0.20635  1.0000
  H   H939      1.0  0.72794  0.71311  0.23709  1.0000
  H   H940      1.0  0.51836  0.65320  0.23739  1.0000
  H   H941      1.0  0.73895  0.59697  0.16050  1.0000
  H   H942      1.0  0.66845  0.76914  0.24336  1.0000
  H   H943      1.0  0.74042  0.56847  0.20557  1.0000
  Fe  Fe104     1.0  0.74656  0.60691  0.10748  1.0000
  C   C791      1.0  0.74668  0.57040  0.16561  1.0000
  H   H944      1.0  0.49679  0.61157  0.03867  1.0000
  Fe  Fe105     1.0  0.55614  0.57235  0.28192  1.0000
  S   S204      1.0  0.56619  0.63448  0.27974  1.0000
  H   H945      1.0  0.56489  0.95500  0.40778  1.0000
  Fe  Fe106     1.0  0.56259  0.54415  0.32573  1.0000
  S   S205      1.0  0.57270  0.60644  0.32633  1.0000
  S   S206      1.0  0.56196  0.49708  0.35522  1.0000
  Fe  Fe107     1.0  0.55578  0.64287  0.31021  1.0000
  S   S207      1.0  0.54502  0.71242  0.31174  1.0000
  Fe  Fe108     1.0  0.58236  0.59349  0.29604  1.0000
  S   S208      1.0  0.60429  0.59603  0.28468  1.0000
  S   S209      1.0  0.54495  0.58233  0.31180  1.0000
  S   S210      1.0  0.57309  0.52946  0.29605  1.0000
  Fe  Fe109     1.0  0.55476  0.24426  0.41377  1.0000
  S   S211      1.0  0.56762  0.18094  0.40826  1.0000
  S   S212      1.0  0.55061  0.29585  0.38669  1.0000
  Fe  Fe110     1.0  0.55004  0.21322  0.45896  1.0000
  S   S213      1.0  0.56321  0.14933  0.45658  1.0000
  H   H946      1.0  0.65836  0.03356  0.48509  1.0000
  Fe  Fe111     1.0  0.57709  0.18977  0.43571  1.0000
  S   S214      1.0  0.59933  0.19480  0.43328  1.0000
  Fe  Fe112     1.0  0.55273  0.14514  0.42921  1.0000
  S   S215      1.0  0.54621  0.07703  0.42661  1.0000
  S   S216      1.0  0.56478  0.25464  0.44033  1.0000
  S   S217      1.0  0.53900  0.20735  0.43254  1.0000
  Fe  Fe113     1.0  0.67202  0.69595  0.30734  1.0000
  S   S218      1.0  0.67552  0.76298  0.29103  1.0000
  S   S219      1.0  0.65014  0.68782  0.31626  1.0000
  Fe  Fe114     1.0  0.70163  0.67269  0.31152  1.0000
  S   S220      1.0  0.70642  0.73955  0.29589  1.0000
  S   S221      1.0  0.72054  0.62749  0.31687  1.0000
  Fe  Fe115     1.0  0.68891  0.76899  0.31484  1.0000
  S   S222      1.0  0.68476  0.83457  0.32972  1.0000
  Fe  Fe116     1.0  0.69269  0.72706  0.27382  1.0000
  H   H947      1.0  0.51866  0.61030  0.26639  1.0000
  S   S223      1.0  0.68493  0.70262  0.33169  1.0000
  S   S224      1.0  0.68844  0.65950  0.28880  1.0000
  Fe  Fe117     1.0  0.69216  0.09365  0.42083  1.0000
  S   S225      1.0  0.70666  0.03582  0.43002  1.0000
  S   S226      1.0  0.69768  0.15785  0.40279  1.0000
  Fe  Fe118     1.0  0.66863  0.04682  0.44014  1.0000
  S   S227      1.0  0.68182  0.98602  0.45118  1.0000
  S   S228      1.0  0.64656  0.04134  0.44655  1.0000
  Fe  Fe119     1.0  0.69467  0.03469  0.46000  1.0000
  H   H948      1.0  0.53994  0.67719  0.35375  1.0000
  Fe  Fe120     1.0  0.69242  0.99276  0.42019  1.0000
  S   S229      1.0  0.69991  0.93405  0.40169  1.0000
  S   S230      1.0  0.68071  0.09465  0.45101  1.0000
  S   S231      1.0  0.67871  0.05145  0.40906  1.0000
  C   C792      1.0  0.73790  0.21278  0.39979  1.0000
  C   C793      1.0  0.73665  0.16796  0.40694  1.0000
  C   C794      1.0  0.72434  0.15080  0.40833  1.0000
  C   C795      1.0  0.71323  0.17823  0.40224  1.0000
  C   C796      1.0  0.71453  0.22282  0.39485  1.0000
  C   C797      1.0  0.72678  0.24017  0.39377  1.0000
  S   S232      1.0  0.53846  0.23981  0.48654  1.0000
  H   H949      1.0  0.72351  0.11632  0.41390  1.0000
  H   H950      1.0  0.70600  0.24423  0.39001  1.0000
  C   C798      1.0  0.68898  0.86068  0.35024  1.0000
  C   C799      1.0  0.68105  0.89891  0.35595  1.0000
  C   C800      1.0  0.68402  0.92117  0.37179  1.0000
  C   C801      1.0  0.69514  0.90604  0.38213  1.0000
  C   C802      1.0  0.70308  0.86793  0.37637  1.0000
  C   C803      1.0  0.70002  0.84534  0.36069  1.0000
  H   H951      1.0  0.67249  0.91136  0.34809  1.0000
  H   H952      1.0  0.67775  0.95027  0.37588  1.0000
  H   H953      1.0  0.71173  0.85578  0.38408  1.0000
  H   H954      1.0  0.70631  0.81629  0.35657  1.0000
  C   C804      1.0  0.72263  0.57844  0.33369  1.0000
  C   C805      1.0  0.71241  0.56453  0.34752  1.0000
  C   C806      1.0  0.71462  0.52563  0.36082  1.0000
  C   C807      1.0  0.72697  0.50009  0.36027  1.0000
  C   C808      1.0  0.73718  0.51392  0.34639  1.0000
  C   C809      1.0  0.73502  0.55306  0.33323  1.0000
  H   H955      1.0  0.70285  0.58381  0.34805  1.0000
  H   H956      1.0  0.53110  0.42595  0.43915  1.0000
  S   S233      1.0  0.54416  0.55315  0.25797  1.0000
  H   H957      1.0  0.63691  0.14413  0.47689  1.0000
  C   C810      1.0  0.61226  0.15121  0.43654  1.0000
  C   C811      1.0  0.60981  0.10749  0.44343  1.0000
  C   C812      1.0  0.62044  0.07417  0.44617  1.0000
  C   C813      1.0  0.63358  0.08409  0.44189  1.0000
  C   C814      1.0  0.63603  0.12777  0.43490  1.0000
  C   C815      1.0  0.62542  0.16117  0.43234  1.0000
  H   H958      1.0  0.59974  0.09939  0.44675  1.0000
  H   H959      1.0  0.61844  0.04047  0.45161  1.0000
  H   H960      1.0  0.64610  0.13590  0.43159  1.0000
  H   H961      1.0  0.62741  0.19492  0.42705  1.0000
  C   C816      1.0  0.51621  0.03665  0.38793  1.0000
  C   C817      1.0  0.52076  0.07898  0.38393  1.0000
  C   C818      1.0  0.52948  0.09274  0.39613  1.0000
  C   C819      1.0  0.53395  0.06386  0.41228  1.0000
  C   C820      1.0  0.52928  0.02172  0.41641  1.0000
  C   C821      1.0  0.52035  0.00833  0.40446  1.0000
  S   S234      1.0  0.70599  0.02650  0.48816  1.0000
  H   H962      1.0  0.53305  0.12512  0.39269  1.0000
  H   H963      1.0  0.53271  0.99913  0.42883  1.0000
  C   C822      1.0  0.55895  0.44073  0.36337  1.0000
  C   C823      1.0  0.56118  0.42301  0.38305  1.0000
  C   C824      1.0  0.55872  0.37902  0.39047  1.0000
  C   C825      1.0  0.55410  0.35171  0.37821  1.0000
  C   C826      1.0  0.55180  0.36950  0.35856  1.0000
  C   C827      1.0  0.55420  0.41363  0.35117  1.0000
  H   H964      1.0  0.56470  0.44374  0.39272  1.0000
  H   H965      1.0  0.56019  0.36675  0.40577  1.0000
  H   H966      1.0  0.54813  0.34900  0.34893  1.0000
  H   H967      1.0  0.55236  0.42666  0.33604  1.0000
  C   C828      1.0  0.61689  0.62157  0.29384  1.0000
  C   C829      1.0  0.63001  0.61427  0.28534  1.0000
  C   C830      1.0  0.64032  0.63385  0.29205  1.0000
  C   C831      1.0  0.63763  0.66162  0.30719  1.0000
  C   C832      1.0  0.62452  0.66898  0.31566  1.0000
  C   C833      1.0  0.61422  0.64907  0.30909  1.0000
  H   H968      1.0  0.63221  0.59263  0.27372  1.0000
  H   H969      1.0  0.65036  0.62654  0.28583  1.0000
  H   H970      1.0  0.62228  0.69010  0.32747  1.0000
  H   H971      1.0  0.60421  0.65500  0.31580  1.0000
  C   C834      1.0  0.53524  0.73338  0.33223  1.0000
  C   C835      1.0  0.52813  0.77559  0.32923  1.0000
  C   C836      1.0  0.52028  0.79397  0.34504  1.0000
  C   C837      1.0  0.51959  0.77050  0.36411  1.0000
  C   C838      1.0  0.52673  0.72831  0.36715  1.0000
  C   C839      1.0  0.53447  0.70965  0.35125  1.0000
  H   H972      1.0  0.52866  0.79414  0.31456  1.0000
  H   H973      1.0  0.73835  0.65860  0.28516  1.0000
  H   H974      1.0  0.52629  0.70993  0.38186  1.0000
  H   H975      1.0  0.51917  0.61164  0.29218  1.0000
  H   H976      1.0  0.53750  0.66073  0.28256  1.0000
  H   H977      1.0  0.74182  0.58569  0.40319  1.0000
  H   H978      1.0  0.51689  0.97586  0.40788  1.0000
  H   H979      1.0  0.54337  0.32168  0.42710  1.0000
  C   C840      1.0  0.53184  0.67792  0.27024  1.0000
  C   C841      1.0  0.54509  0.99270  0.36193  1.0000
  H   H980      1.0  0.71049  0.13382  0.33820  1.0000
  H   H981      1.0  0.53166  0.49231  0.37991  1.0000
  H   H982      1.0  0.55058  0.05793  0.36419  1.0000
  C   C842      1.0  0.52913  0.42531  0.42389  1.0000
  H   H983      1.0  0.53553  0.66107  0.25691  1.0000
  H   H984      1.0  0.55384  0.90064  0.39390  1.0000
  H   H985      1.0  0.56339  0.03342  0.39309  1.0000
  H   H986      1.0  0.51647  0.28137  0.43463  1.0000
  C   C843      1.0  0.71092  0.18150  0.47734  1.0000
  H   H987      1.0  0.52285  0.87400  0.37227  1.0000
  C   C844      1.0  0.51353  0.35840  0.44912  1.0000
  N   N55       1.0  0.51745  0.67675  0.27525  1.0000
  C   C845      1.0  0.52298  0.38892  0.39707  1.0000
  H   H988      1.0  0.63871  0.71526  0.25851  1.0000
  H   H989      1.0  0.72371  0.19789  0.44252  1.0000
  H   H990      1.0  0.52111  0.92772  0.38123  1.0000
  H   H991      1.0  0.54308  0.85065  0.35047  1.0000
  N   N56       1.0  0.64753  0.78192  0.35907  1.0000
  C   C846      1.0  0.64754  0.73295  0.36367  1.0000
  C   C847      1.0  0.63353  0.80137  0.35921  1.0000
  C   C848      1.0  0.65389  0.79201  0.33863  1.0000
  C   C849      1.0  0.65500  0.79928  0.37340  1.0000
  C   C850      1.0  0.64970  0.83483  0.38454  1.0000
  C   C851      1.0  0.66819  0.78128  0.37616  1.0000
  C   C852      1.0  0.65718  0.85085  0.39765  1.0000
  C   C853      1.0  0.67551  0.79721  0.38947  1.0000
  C   C854      1.0  0.67004  0.83206  0.40012  1.0000
  H   H992      1.0  0.64398  0.72359  0.37951  1.0000
  H   H993      1.0  0.64112  0.71924  0.35419  1.0000
  H   H994      1.0  0.65749  0.71487  0.36076  1.0000
  H   H995      1.0  0.62817  0.79513  0.37426  1.0000
  H   H996      1.0  0.62814  0.78660  0.34867  1.0000
  H   H997      1.0  0.63275  0.83778  0.35437  1.0000
  H   H998      1.0  0.66410  0.77545  0.33687  1.0000
  H   H999      1.0  0.64845  0.78046  0.32724  1.0000
  H   H1000     1.0  0.65463  0.82833  0.33483  1.0000
  H   H1001     1.0  0.63987  0.85128  0.38325  1.0000
  H   H1002     1.0  0.67309  0.75556  0.36761  1.0000
  H   H1003     1.0  0.65307  0.87850  0.40576  1.0000
  H   H1004     1.0  0.68566  0.78357  0.39100  1.0000
  H   H1005     1.0  0.67591  0.84530  0.40993  1.0000
  H   H1006     1.0  0.50377  0.62709  0.28126  1.0000
  C   C855      1.0  0.54803  0.87496  0.35730  1.0000
  C   C856      1.0  0.53138  0.46297  0.41046  1.0000
  H   H1007     1.0  0.53238  0.88344  0.39149  1.0000
  H   H1008     1.0  0.66138  0.69226  0.27052  1.0000
  C   C857      1.0  0.74368  0.61059  0.25373  1.0000
  N   N57       1.0  0.59478  0.29385  0.38366  1.0000
  C   C858      1.0  0.59081  0.25117  0.37905  1.0000
  C   C859      1.0  0.60907  0.28663  0.38655  1.0000
  C   C860      1.0  0.58732  0.30408  0.40271  1.0000
  C   C861      1.0  0.59223  0.33148  0.36800  1.0000
  C   C862      1.0  0.59583  0.37422  0.37001  1.0000
  C   C863      1.0  0.58605  0.32734  0.35062  1.0000
  C   C864      1.0  0.59335  0.41045  0.35561  1.0000
  C   C865      1.0  0.58378  0.36373  0.33620  1.0000
  C   C866      1.0  0.58738  0.40518  0.33872  1.0000
  H   H1009     1.0  0.59623  0.24075  0.36507  1.0000
  H   H1010     1.0  0.59294  0.22362  0.39111  1.0000
  H   H1011     1.0  0.57999  0.25344  0.37772  1.0000
  H   H1012     1.0  0.61256  0.31524  0.39234  1.0000
  H   H1013     1.0  0.61509  0.28099  0.37231  1.0000
  H   H1014     1.0  0.61136  0.25712  0.39762  1.0000
  H   H1015     1.0  0.57653  0.30665  0.40150  1.0000
  H   H1016     1.0  0.58955  0.27759  0.41507  1.0000
  H   H1017     1.0  0.58959  0.33563  0.40747  1.0000
  H   H1018     1.0  0.60034  0.38024  0.38294  1.0000
  H   H1019     1.0  0.58259  0.29668  0.34800  1.0000
  H   H1020     1.0  0.59574  0.44319  0.35773  1.0000
  H   H1021     1.0  0.57877  0.36022  0.32331  1.0000
  H   H1022     1.0  0.58514  0.43372  0.32790  1.0000
  H   H1023     1.0  0.72761  0.27469  0.38820  1.0000
  H   H1024     1.0  0.65337  0.76803  0.25885  1.0000
  C   C867      1.0  0.55162  0.02303  0.37002  1.0000
  C   C868      1.0  0.71324  0.05284  0.37700  1.0000
  C   C869      1.0  0.53229  0.93206  0.34373  1.0000
  C   C870      1.0  0.54581  0.94710  0.36989  1.0000
  C   C871      1.0  0.64524  0.12350  0.48401  1.0000
  C   C872      1.0  0.72165  0.02030  0.31022  1.0000
  H   H1025     1.0  0.72525  0.11011  0.34998  1.0000
  H   H1026     1.0  0.51478  0.82628  0.34243  1.0000
  H   H1027     1.0  0.53985  0.35301  0.44800  1.0000
  H   H1028     1.0  0.53508  0.29824  0.45002  1.0000
  H   H1029     1.0  0.70803  0.02381  0.38382  1.0000
  H   H1030     1.0  0.53451  0.71269  0.26743  1.0000
  H   H1031     1.0  0.51172  0.32841  0.45988  1.0000
  H   H1032     1.0  0.53917  0.00626  0.34992  1.0000
  C   C873      1.0  0.74405  0.19453  0.48945  1.0000
  C   C874      1.0  0.52519  0.42689  0.38381  1.0000
  H   H1033     1.0  0.72261  0.08325  0.31967  1.0000
  C   C875      1.0  0.51800  0.31059  0.42332  1.0000
  S   S235      1.0  0.51016  0.79325  0.38450  1.0000
  H   H1034     1.0  0.73809  0.11194  0.46482  1.0000
  C   C876      1.0  0.71895  0.05134  0.32403  1.0000
  C   C877      1.0  0.71428  0.11548  0.35201  1.0000
  N   N58       1.0  0.52303  0.34698  0.43203  1.0000
  H   H1035     1.0  0.52415  0.42707  0.36808  1.0000
  H   H1036     1.0  0.51763  0.10114  0.37118  1.0000
  H   H1037     1.0  0.51919  0.67738  0.30666  1.0000
  H   H1038     1.0  0.52433  0.95934  0.34660  1.0000
  H   H1039     1.0  0.51683  0.73083  0.29319  1.0000
  H   H1040     1.0  0.72219  0.11840  0.45514  1.0000
  H   H1041     1.0  0.72718  0.02886  0.29602  1.0000
  H   H1042     1.0  0.70894  0.21475  0.48281  1.0000
  H   H1043     1.0  0.52028  0.36098  0.39066  1.0000
  H   H1044     1.0  0.71974  0.62372  0.27561  1.0000
  N   N59       1.0  0.53875  0.91417  0.36209  1.0000
  H   H1045     1.0  0.72910  0.23390  0.45805  1.0000
  N   N60       1.0  0.72533  0.16920  0.47307  1.0000
  H   H1046     1.0  0.53955  0.94482  0.33163  1.0000
  C   C878      1.0  0.55962  0.96504  0.39465  1.0000
  H   H1047     1.0  0.55211  0.85599  0.37072  1.0000
  H   H1048     1.0  0.71773  0.62212  0.24983  1.0000
  N   N61       1.0  0.73487  0.65250  0.25480  1.0000
  C   C879      1.0  0.51388  0.69650  0.29426  1.0000
  H   H1049     1.0  0.52515  0.29790  0.41127  1.0000
  C   C880      1.0  0.72106  0.64229  0.26052  1.0000
  H   H1050     1.0  0.72368  0.09894  0.48080  1.0000
  C   C881      1.0  0.55323  0.93428  0.38658  1.0000
  S   S236      1.0  0.50610  0.01971  0.37114  1.0000
  H   H1051     1.0  0.63608  0.04335  0.48601  1.0000
  H   H1052     1.0  0.52745  0.90617  0.33784  1.0000
  H   H1053     1.0  0.71171  0.07707  0.38819  1.0000
  N   N62       1.0  0.70842  0.07278  0.35768  1.0000
  H   H1054     1.0  0.50835  0.32161  0.41720  1.0000
  H   H1055     1.0  0.55645  0.88519  0.34665  1.0000
  H   H1056     1.0  0.73259  0.70937  0.27131  1.0000
  C   C882      1.0  0.69388  0.08326  0.36051  1.0000
  C   C883      1.0  0.71169  0.04084  0.34274  1.0000
  C   C884      1.0  0.70735  0.99779  0.34661  1.0000
  C   C885      1.0  0.71011  0.96706  0.33274  1.0000
  S   S237      1.0  0.72931  0.45216  0.37765  1.0000
  C   C886      1.0  0.71725  0.97828  0.31457  1.0000
  H   H1057     1.0  0.68877  0.05330  0.36619  1.0000
  H   H1058     1.0  0.69098  0.10774  0.37149  1.0000
  H   H1059     1.0  0.68982  0.09759  0.34626  1.0000
  H   H1060     1.0  0.70172  0.98757  0.36044  1.0000
  H   H1061     1.0  0.70666  0.93433  0.33613  1.0000
  H   H1062     1.0  0.71933  0.95430  0.30386  1.0000
  C   C887      1.0  0.52484  0.38706  0.41763  1.0000
  H   H1063     1.0  0.71172  0.13836  0.36375  1.0000
  C   C888      1.0  0.52834  0.89915  0.37744  1.0000
  C   C889      1.0  0.74129  0.54942  0.40744  1.0000
  H   H1064     1.0  0.72397  0.04132  0.37525  1.0000
  C   C890      1.0  0.55884  0.00929  0.38635  1.0000
  H   H1065     1.0  0.67558  0.69047  0.25244  1.0000
  H   H1066     1.0  0.70668  0.51513  0.37154  1.0000
  H   H1067     1.0  0.71413  0.67311  0.26097  1.0000
  H   H1068     1.0  0.73483  0.54412  0.42157  1.0000
  H   H1069     1.0  0.65231  0.14610  0.48729  1.0000
  C   C891      1.0  0.53588  0.32933  0.43961  1.0000
  C   C892      1.0  0.51458  0.62959  0.27889  1.0000
  H   H1070     1.0  0.50387  0.37346  0.44398  1.0000
  C   C893      1.0  0.72742  0.12270  0.46823  1.0000
  H   H1071     1.0  0.73608  0.53755  0.39579  1.0000
  H   H1072     1.0  0.70551  0.18243  0.46387  1.0000
  H   H1073     1.0  0.74523  0.14651  0.41157  1.0000
  S   S238      1.0  0.49831  0.90970  0.35318  1.0000
  H   H1074     1.0  0.65039  0.10328  0.47249  1.0000
  H   H1075     1.0  0.50176  0.73543  0.42256  1.0000
  C   C894      1.0  0.52942  0.46373  0.39045  1.0000
  Fe  Fe121     1.0  0.49695  0.85827  0.37976  1.0000
  H   H1076     1.0  0.53501  0.49136  0.41542  1.0000
  H   H1077     1.0  0.50313  0.69699  0.29894  1.0000
  H   H1078     1.0  0.73818  0.58272  0.28435  1.0000
  C   C895      1.0  0.72982  0.19859  0.45506  1.0000
  H   H1079     1.0  0.51716  0.38207  0.45790  1.0000
  H   H1080     1.0  0.74300  0.56367  0.32262  1.0000
  C   C896      1.0  0.74410  0.57766  0.27049  1.0000
  H   H1081     1.0  0.62269  0.08450  0.49015  1.0000
  C   C897      1.0  0.51039  0.70027  0.25840  1.0000
  H   H1082     1.0  0.66414  0.64964  0.25424  1.0000
  H   H1083     1.0  0.50030  0.75652  0.27329  1.0000
  H   H1084     1.0  0.70622  0.15712  0.48863  1.0000
  H   H1085     1.0  0.50099  0.74217  0.44823  1.0000
  C   C898      1.0  0.73899  0.67750  0.27005  1.0000
  C   C899      1.0  0.50205  0.74071  0.25977  1.0000
  C   C900      1.0  0.66492  0.68543  0.25501  1.0000
  C   C901      1.0  0.73241  0.17256  0.49069  1.0000
  H   H1086     1.0  0.74015  0.18814  0.44927  1.0000
  C   C902      1.0  0.63137  0.06560  0.49704  1.0000
  H   H1087     1.0  0.67753  0.99041  0.49894  1.0000
  H   H1088     1.0  0.74672  0.58817  0.43619  1.0000
  H   H1089     1.0  0.74672  0.49450  0.34580  1.0000
  H   H1090     1.0  0.62873  0.10699  0.52976  1.0000
  S   S239      1.0  0.51222  0.17908  0.62819  1.0000
  C   C903      1.0  0.67426  0.01742  0.52691  1.0000
  C   C904      1.0  0.50090  0.04495  0.53447  1.0000
  S   S240      1.0  0.52250  0.07577  0.62358  1.0000
  S   S241      1.0  0.73750  0.14438  0.63816  1.0000
  Fe  Fe122     1.0  0.51917  0.11853  0.64863  1.0000
  S   S242      1.0  0.53486  0.12268  0.66993  1.0000
  Fe  Fe123     1.0  0.51394  0.13420  0.60352  1.0000
  S   S243      1.0  0.52486  0.13124  0.57226  1.0000
  H   H1091     1.0  0.56500  0.02428  0.71172  1.0000
  C   C905      1.0  0.63284  0.12584  0.51581  1.0000
  C   C906      1.0  0.50059  0.20519  0.68541  1.0000
  S   S244      1.0  0.71928  0.18815  0.60258  1.0000
  H   H1092     1.0  0.50813  0.06030  0.52374  1.0000
  Fe  Fe124     1.0  0.73404  0.07768  0.63008  1.0000
  S   S245      1.0  0.71210  0.09506  0.62839  1.0000
  S   S246      1.0  0.49906  0.09724  0.65791  1.0000
  Fe  Fe125     1.0  0.71717  0.11874  0.59567  1.0000
  S   S247      1.0  0.70458  0.11687  0.56933  1.0000
  Fe  Fe126     1.0  0.71589  0.16248  0.63537  1.0000
  S   S248      1.0  0.70227  0.19960  0.65848  1.0000
  S   S249      1.0  0.74217  0.02247  0.65273  1.0000
  C   C907      1.0  0.65547  0.07292  0.53049  1.0000
  H   H1093     1.0  0.66914  0.05151  0.55282  1.0000
  C   C908      1.0  0.63874  0.11712  0.74066  1.0000
  C   C909      1.0  0.69564  0.10586  0.53335  1.0000
  C   C910      1.0  0.70524  0.09115  0.54685  1.0000
  C   C911      1.0  0.71497  0.05705  0.54195  1.0000
  C   C912      1.0  0.71499  0.03783  0.52402  1.0000
  C   C913      1.0  0.49979  0.27844  0.69573  1.0000
  H   H1094     1.0  0.68804  0.13212  0.53691  1.0000
  H   H1095     1.0  0.72243  0.04515  0.55206  1.0000
  H   H1096     1.0  0.72251  0.01121  0.52061  1.0000
  C   C914      1.0  0.70318  0.18894  0.72710  1.0000
  C   C915      1.0  0.69339  0.21691  0.71743  1.0000
  C   C916      1.0  0.69330  0.21989  0.69649  1.0000
  C   C917      1.0  0.70303  0.19535  0.68484  1.0000
  C   C918      1.0  0.71303  0.16847  0.69446  1.0000
  C   C919      1.0  0.71316  0.16576  0.71535  1.0000
  C   C920      1.0  0.53904  0.96502  0.72708  1.0000
  H   H1097     1.0  0.68567  0.24151  0.68920  1.0000
  H   H1098     1.0  0.72073  0.15001  0.68575  1.0000
  H   H1099     1.0  0.72115  0.14572  0.72241  1.0000
  C   C921      1.0  0.73768  0.30002  0.57116  1.0000
  H   H1100     1.0  0.54460  0.91302  0.66920  1.0000
  C   C922      1.0  0.51292  0.25994  0.66521  1.0000
  H   H1101     1.0  0.62143  0.08381  0.73923  1.0000
  C   C923      1.0  0.74565  0.31958  0.53078  1.0000
  H   H1102     1.0  0.52374  0.26566  0.52256  1.0000
  H   H1103     1.0  0.52697  0.20234  0.68803  1.0000
  C   C924      1.0  0.70538  0.05246  0.51057  1.0000
  C   C925      1.0  0.53885  0.16372  0.51427  1.0000
  C   C926      1.0  0.53571  0.14074  0.53327  1.0000
  C   C927      1.0  0.52826  0.16245  0.54853  1.0000
  C   C928      1.0  0.52391  0.20765  0.54446  1.0000
  C   C929      1.0  0.52709  0.23070  0.52545  1.0000
  Fe  Fe127     1.0  0.50166  0.05934  0.63128  1.0000
  H   H1104     1.0  0.53915  0.10584  0.53618  1.0000
  H   H1105     1.0  0.51819  0.22492  0.55597  1.0000
  C   C930      1.0  0.66024  0.03816  0.50002  1.0000
  C   C931      1.0  0.50132  0.28798  0.71529  1.0000
  C   C932      1.0  0.52597  0.07856  0.72893  1.0000
  C   C933      1.0  0.52495  0.09006  0.70831  1.0000
  C   C934      1.0  0.53515  0.10967  0.69628  1.0000
  C   C935      1.0  0.54611  0.11906  0.70532  1.0000
  C   C936      1.0  0.54705  0.10808  0.72600  1.0000
  H   H1106     1.0  0.68825  0.09869  0.50527  1.0000
  H   H1107     1.0  0.51636  0.08306  0.70175  1.0000
  H   H1108     1.0  0.55404  0.13441  0.69623  1.0000
  H   H1109     1.0  0.55566  0.11481  0.73262  1.0000
  C   C937      1.0  0.72260  0.04847  0.72581  1.0000
  H   H1110     1.0  0.73479  0.29156  0.58689  1.0000
  C   C938      1.0  0.71993  0.06016  0.74520  1.0000
  H   H1111     1.0  0.52560  0.94629  0.70869  1.0000
  H   H1112     1.0  0.74310  0.42475  0.52762  1.0000
  C   C939      1.0  0.66646  0.04744  0.53817  1.0000
  C   C940      1.0  0.73718  0.28668  0.53708  1.0000
  H   H1113     1.0  0.71959  0.13312  0.51176  1.0000
  H   H1114     1.0  0.53125  0.92993  0.65366  1.0000
  C   C941      1.0  0.53460  0.20898  0.51022  1.0000
  C   C942      1.0  0.66314  0.16133  0.72267  1.0000
  N   N63       1.0  0.64055  0.09560  0.50231  1.0000
  C   C943      1.0  0.72801  0.15192  0.50975  1.0000
  H   H1115     1.0  0.53383  0.95105  0.74073  1.0000
  H   H1116     1.0  0.64996  0.09568  0.54001  1.0000
  C   C944      1.0  0.65201  0.06892  0.51110  1.0000
  Fe  Fe128     1.0  0.74065  0.16387  0.60518  1.0000
  H   H1117     1.0  0.52769  0.91627  0.67969  1.0000
  C   C945      1.0  0.55664  0.00613  0.71074  1.0000
  H   H1118     1.0  0.68294  0.99852  0.53272  1.0000
  H   H1119     1.0  0.63895  0.15083  0.51972  1.0000
  H   H1120     1.0  0.54391  0.03614  0.65423  1.0000
  H   H1121     1.0  0.68593  0.23649  0.72598  1.0000
  H   H1122     1.0  0.52230  0.03912  0.67345  1.0000
  N   N64       1.0  0.65840  0.15711  0.74414  1.0000
  C   C946      1.0  0.53441  0.96265  0.70865  1.0000
  H   H1123     1.0  0.55401  0.98346  0.65295  1.0000
  H   H1124     1.0  0.51819  0.06230  0.73798  1.0000
  H   H1125     1.0  0.50547  0.07926  0.55829  1.0000
  H   H1126     1.0  0.51505  0.98923  0.68323  1.0000
  C   C947      1.0  0.52024  0.22621  0.69647  1.0000
  H   H1127     1.0  0.73368  0.26851  0.52632  1.0000
  H   H1128     1.0  0.52039  0.23552  0.65824  1.0000
  S   S250      1.0  0.49779  0.98723  0.63193  1.0000
  C   C948      1.0  0.55016  0.98659  0.72811  1.0000
  H   H1129     1.0  0.53968  0.99642  0.63954  1.0000
  H   H1130     1.0  0.51779  0.00284  0.65698  1.0000
  H   H1131     1.0  0.73450  0.00585  0.70647  1.0000
  H   H1132     1.0  0.66094  0.13301  0.71520  1.0000
  C   C949      1.0  0.67120  0.01298  0.50784  1.0000
  C   C950      1.0  0.69576  0.08702  0.51531  1.0000
  H   H1133     1.0  0.51772  0.20748  0.71127  1.0000
  H   H1134     1.0  0.50483  0.26602  0.65518  1.0000
  H   H1135     1.0  0.67404  0.16221  0.72032  1.0000
  H   H1136     1.0  0.65845  0.22784  0.74480  1.0000
  C   C951      1.0  0.73448  0.15446  0.52663  1.0000
  H   H1137     1.0  0.71721  0.06650  0.71384  1.0000
  H   H1138     1.0  0.55724  0.02178  0.67952  1.0000
  S   S251      1.0  0.73881  0.09547  0.59707  1.0000
  H   H1139     1.0  0.50665  0.17763  0.67831  1.0000
  C   C952      1.0  0.49943  0.05573  0.55394  1.0000
  N   N65       1.0  0.53554  0.97971  0.67132  1.0000
  C   C953      1.0  0.52210  0.00366  0.67129  1.0000
  C   C954      1.0  0.54370  0.99976  0.65383  1.0000
  C   C955      1.0  0.53476  0.93268  0.66841  1.0000
  C   C956      1.0  0.54080  0.98207  0.69061  1.0000
  C   C957      1.0  0.55204  0.00433  0.69223  1.0000
  C   C958      1.0  0.53707  0.08705  0.73793  1.0000
  H   H1140     1.0  0.51750  0.29148  0.66472  1.0000
  H   H1141     1.0  0.55347  0.98961  0.74248  1.0000
  H   H1142     1.0  0.72693  0.25057  0.56219  1.0000
  H   H1143     1.0  0.54461  0.14642  0.50279  1.0000
  C   C959      1.0  0.74573  0.17670  0.52498  1.0000
  H   H1144     1.0  0.50878  0.26990  0.72415  1.0000
  H   H1145     1.0  0.73076  0.13872  0.54107  1.0000
  H   H1146     1.0  0.65849  0.19233  0.71459  1.0000
  H   H1147     1.0  0.52610  0.25371  0.69833  1.0000
  C   C960      1.0  0.73238  0.01438  0.72161  1.0000
  N   N66       1.0  0.50830  0.24313  0.68599  1.0000
  C   C961      1.0  0.64396  0.15424  0.74643  1.0000
  C   C962      1.0  0.74607  0.33324  0.56504  1.0000
  H   H1148     1.0  0.62768  0.04389  0.51039  1.0000
  C   C963      1.0  0.62519  0.11303  0.74317  1.0000
  C   C964      1.0  0.73953  0.99182  0.73682  1.0000
  C   C965      1.0  0.73327  0.27672  0.55725  1.0000
  H   H1149     1.0  0.62426  0.14498  0.50872  1.0000
  H   H1150     1.0  0.66456  0.08622  0.74691  1.0000
  H   H1151     1.0  0.71255  0.08781  0.74748  1.0000
  H   H1152     1.0  0.64511  0.09074  0.73429  1.0000
  H   H1153     1.0  0.49684  0.19152  0.70065  1.0000
  Fe  Fe129     1.0  0.54561  0.71047  0.96126  1.0000
  S   S252      1.0  0.55847  0.64621  0.96184  1.0000
  S   S253      1.0  0.70333  0.18034  0.75367  1.0000
  Fe  Fe130     1.0  0.55701  0.74270  0.91851  1.0000
  S   S254      1.0  0.57054  0.67865  0.91652  1.0000
  S   S255      1.0  0.55752  0.79054  0.88926  1.0000
  Fe  Fe131     1.0  0.55317  0.64354  0.93080  1.0000
  S   S256      1.0  0.54898  0.57349  0.92677  1.0000
  Fe  Fe132     1.0  0.57487  0.68584  0.94757  1.0000
  S   S257      1.0  0.59458  0.66643  0.96098  1.0000
  S   S258      1.0  0.53927  0.70614  0.93072  1.0000
  S   S259      1.0  0.56237  0.75177  0.94911  1.0000
  H   H1154     1.0  0.53739  0.49344  0.92477  1.0000
  Fe  Fe133     1.0  0.55822  0.04350  0.82993  1.0000
  S   S260      1.0  0.57121  0.09786  0.83082  1.0000
  S   S261      1.0  0.55617  0.99987  0.86010  1.0000
  Fe  Fe134     1.0  0.55231  0.07897  0.78657  1.0000
  S   S262      1.0  0.56546  0.13409  0.78454  1.0000
  C   C966      1.0  0.69598  0.41959  0.96398  1.0000
  Fe  Fe135     1.0  0.57983  0.08359  0.80048  1.0000
  S   S263      1.0  0.60237  0.07178  0.79561  1.0000
  Fe  Fe136     1.0  0.55594  0.14423  0.81529  1.0000
  S   S264      1.0  0.55155  0.21445  0.82360  1.0000
  S   S265      1.0  0.56752  0.02664  0.79996  1.0000
  S   S266      1.0  0.54209  0.09193  0.81686  1.0000
  Fe  Fe137     1.0  0.67062  0.58102  0.92567  1.0000
  S   S267      1.0  0.67559  0.51545  0.94418  1.0000
  S   S268      1.0  0.65133  0.61845  0.91585  1.0000
  Fe  Fe138     1.0  0.69920  0.58691  0.90894  1.0000
  S   S269      1.0  0.70616  0.52145  0.92566  1.0000
  S   S270      1.0  0.71151  0.62972  0.88599  1.0000
  Fe  Fe139     1.0  0.68822  0.49469  0.91671  1.0000
  S   S271      1.0  0.68732  0.42306  0.90873  1.0000
  Fe  Fe140     1.0  0.69328  0.54653  0.95199  1.0000
  H   H1155     1.0  0.65824  0.43088  0.89424  1.0000
  S   S272      1.0  0.68232  0.55854  0.89814  1.0000
  S   S273      1.0  0.68729  0.61345  0.93529  1.0000
  Fe  Fe141     1.0  0.66442  0.20219  0.80801  1.0000
  S   S274      1.0  0.67643  0.25509  0.79135  1.0000
  S   S275      1.0  0.64197  0.21217  0.80742  1.0000
  Fe  Fe142     1.0  0.68882  0.14987  0.82491  1.0000
  S   S276      1.0  0.70238  0.19938  0.80985  1.0000
  S   S277      1.0  0.69387  0.08224  0.84212  1.0000
  Fe  Fe143     1.0  0.68638  0.25223  0.81994  1.0000
  S   S278      1.0  0.68949  0.32000  0.83038  1.0000
  Fe  Fe144     1.0  0.69135  0.19860  0.78271  1.0000
  H   H1156     1.0  0.70504  0.02664  0.78548  1.0000
  S   S279      1.0  0.67354  0.20191  0.83675  1.0000
  S   S280      1.0  0.67858  0.14640  0.79759  1.0000
  C   C967      1.0  0.68796  0.39526  0.88664  1.0000
  C   C968      1.0  0.68546  0.35022  0.88860  1.0000
  C   C969      1.0  0.68577  0.32681  0.87175  1.0000
  C   C970      1.0  0.68873  0.34783  0.85248  1.0000
  C   C971      1.0  0.69119  0.39289  0.85052  1.0000
  C   C972      1.0  0.69078  0.41641  0.86736  1.0000
  H   H1157     1.0  0.68323  0.33321  0.90331  1.0000
  H   H1158     1.0  0.68385  0.29232  0.87371  1.0000
  H   H1159     1.0  0.69353  0.40977  0.83581  1.0000
  H   H1160     1.0  0.69276  0.45085  0.86539  1.0000
  C   C973      1.0  0.73600  0.02046  0.85281  1.0000
  C   C974      1.0  0.72529  0.99529  0.85759  1.0000
  C   C975      1.0  0.71242  0.01490  0.85446  1.0000
  C   C976      1.0  0.71015  0.05967  0.84648  1.0000
  C   C977      1.0  0.72086  0.08488  0.84175  1.0000
  C   C978      1.0  0.73372  0.06531  0.84493  1.0000
  H   H1161     1.0  0.70417  0.99525  0.85819  1.0000
  H   H1162     1.0  0.71923  0.11945  0.83575  1.0000
  H   H1163     1.0  0.63387  0.55287  0.89287  1.0000
  C   C979      1.0  0.73152  0.74619  0.90203  1.0000
  C   C980      1.0  0.73080  0.74033  0.88213  1.0000
  C   C981      1.0  0.72448  0.70487  0.87741  1.0000
  C   C982      1.0  0.71894  0.67479  0.89252  1.0000
  C   C983      1.0  0.71957  0.68092  0.91242  1.0000
  C   C984      1.0  0.72577  0.71661  0.91713  1.0000
  H   H1164     1.0  0.54515  0.14510  0.85989  1.0000
  H   H1165     1.0  0.51656  0.64908  0.96018  1.0000
  H   H1166     1.0  0.71536  0.65798  0.92420  1.0000
  C   C985      1.0  0.61321  0.11023  0.80027  1.0000
  C   C986      1.0  0.62693  0.09789  0.79877  1.0000
  C   C987      1.0  0.63586  0.12813  0.80152  1.0000
  C   C988      1.0  0.63116  0.17138  0.80552  1.0000
  C   C989      1.0  0.61744  0.18347  0.80730  1.0000
  C   C990      1.0  0.60851  0.15307  0.80482  1.0000
  H   H1167     1.0  0.63069  0.06491  0.79521  1.0000
  H   H1168     1.0  0.64636  0.11819  0.80030  1.0000
  H   H1169     1.0  0.61367  0.21679  0.81037  1.0000
  H   H1170     1.0  0.59799  0.16317  0.80599  1.0000
  C   C991      1.0  0.51330  0.27283  0.85634  1.0000
  C   C992      1.0  0.52374  0.29867  0.85047  1.0000
  C   C993      1.0  0.53536  0.28034  0.84030  1.0000
  C   C994      1.0  0.53656  0.23636  0.83569  1.0000
  C   C995      1.0  0.52593  0.21103  0.84092  1.0000
  C   C996      1.0  0.51437  0.22909  0.85138  1.0000
  C   C997      1.0  0.51192  0.21893  0.91045  1.0000
  H   H1171     1.0  0.54353  0.30024  0.83615  1.0000
  H   H1172     1.0  0.52663  0.17765  0.83688  1.0000
  H   H1173     1.0  0.64368  0.51998  0.92362  1.0000
  C   C998      1.0  0.55668  0.84910  0.88169  1.0000
  C   C999      1.0  0.55703  0.86446  0.86119  1.0000
  C   C1000     1.0  0.55686  0.91025  0.85428  1.0000
  C   C1001     1.0  0.55637  0.94150  0.86781  1.0000
  C   C1002     1.0  0.55604  0.92621  0.88830  1.0000
  C   C1003     1.0  0.55620  0.88040  0.89521  1.0000
  H   H1174     1.0  0.55741  0.84063  0.85057  1.0000
  H   H1175     1.0  0.55702  0.92126  0.83850  1.0000
  H   H1176     1.0  0.55568  0.94988  0.89897  1.0000
  H   H1177     1.0  0.55601  0.86927  0.91099  1.0000
  C   C1004     1.0  0.61019  0.65202  0.94813  1.0000
  C   C1005     1.0  0.61240  0.66014  0.92739  1.0000
  C   C1006     1.0  0.62506  0.64959  0.91784  1.0000
  C   C1007     1.0  0.63559  0.63021  0.92882  1.0000
  C   C1008     1.0  0.63335  0.62142  0.94951  1.0000
  C   C1009     1.0  0.62071  0.63253  0.95910  1.0000
  H   H1178     1.0  0.60441  0.67529  0.91878  1.0000
  H   H1179     1.0  0.62669  0.65643  0.90181  1.0000
  H   H1180     1.0  0.64135  0.60658  0.95816  1.0000
  H   H1181     1.0  0.61909  0.62622  0.97516  1.0000
  C   C1010     1.0  0.53903  0.55908  0.90930  1.0000
  C   C1011     1.0  0.53566  0.58836  0.89263  1.0000
  C   C1012     1.0  0.52821  0.57470  0.87864  1.0000
  C   C1013     1.0  0.52378  0.53219  0.88145  1.0000
  C   C1014     1.0  0.52704  0.50309  0.89824  1.0000
  C   C1015     1.0  0.53475  0.51637  0.91198  1.0000
  H   H1182     1.0  0.53897  0.62123  0.89034  1.0000
  H   H1183     1.0  0.52574  0.59740  0.86568  1.0000
  H   H1184     1.0  0.52376  0.47021  0.90049  1.0000
  N   N67       1.0  0.53520  0.10850  0.88532  1.0000
  C   C1016     1.0  0.53920  0.07354  0.90145  1.0000
  C   C1017     1.0  0.52699  0.08949  0.87245  1.0000
  C   C1018     1.0  0.54740  0.12043  0.87296  1.0000
  C   C1019     1.0  0.52748  0.14669  0.89405  1.0000
  C   C1020     1.0  0.51547  0.14076  0.90609  1.0000
  C   C1021     1.0  0.53145  0.19044  0.89082  1.0000
  H   H1185     1.0  0.69562  0.45003  0.97156  1.0000
  C   C1022     1.0  0.52375  0.22580  0.89901  1.0000
  H   H1186     1.0  0.67322  0.19556  0.75184  1.0000
  H   H1187     1.0  0.72474  0.12111  0.77101  1.0000
  H   H1188     1.0  0.50629  0.20901  0.85584  1.0000
  C   C1023     1.0  0.70890  0.35721  0.95108  1.0000
  H   H1189     1.0  0.51837  0.07491  0.88099  1.0000
  H   H1190     1.0  0.52349  0.18833  0.78170  1.0000
  H   H1191     1.0  0.52317  0.11530  0.86079  1.0000
  H   H1192     1.0  0.70452  0.08601  0.77870  1.0000
  C   C1024     1.0  0.72689  0.03756  0.76113  1.0000
  H   H1193     1.0  0.55423  0.13404  0.88176  1.0000
  S   S281      1.0  0.52944  0.72222  0.98665  1.0000
  H   H1194     1.0  0.54024  0.19875  0.88150  1.0000
  H   H1195     1.0  0.72393  0.70054  0.86197  1.0000
  H   H1196     1.0  0.52669  0.25922  0.89578  1.0000
  H   H1197     1.0  0.53271  0.06217  0.86475  1.0000
  N   N68       1.0  0.59057  0.54505  0.92326  1.0000
  C   C1025     1.0  0.58542  0.57525  0.93838  1.0000
  C   C1026     1.0  0.58580  0.56560  0.90395  1.0000
  C   C1027     1.0  0.58472  0.50238  0.92868  1.0000
  C   C1028     1.0  0.60515  0.53732  0.92283  1.0000
  C   C1029     1.0  0.61373  0.54909  0.90557  1.0000
  C   C1030     1.0  0.61119  0.51819  0.94023  1.0000
  C   C1031     1.0  0.62746  0.54221  0.90591  1.0000
  C   C1032     1.0  0.62493  0.51168  0.94041  1.0000
  C   C1033     1.0  0.63304  0.52366  0.92328  1.0000
  H   H1198     1.0  0.58955  0.60771  0.93478  1.0000
  H   H1199     1.0  0.57449  0.58182  0.93915  1.0000
  H   H1200     1.0  0.58785  0.56197  0.95368  1.0000
  H   H1201     1.0  0.58931  0.59894  0.89942  1.0000
  H   H1202     1.0  0.57480  0.57113  0.90486  1.0000
  H   H1203     1.0  0.58891  0.54405  0.89190  1.0000
  H   H1204     1.0  0.58662  0.48709  0.94397  1.0000
  H   H1205     1.0  0.57375  0.50714  0.92843  1.0000
  H   H1206     1.0  0.58871  0.47800  0.91812  1.0000
  H   H1207     1.0  0.61012  0.56462  0.89175  1.0000
  H   H1208     1.0  0.60533  0.50913  0.95400  1.0000
  H   H1209     1.0  0.71864  0.33689  0.94965  1.0000
  H   H1210     1.0  0.69331  0.43104  0.94859  1.0000
  H   H1211     1.0  0.74023  0.09215  0.77747  1.0000
  H   H1212     1.0  0.74005  0.74751  0.97213  1.0000
  H   H1213     1.0  0.51181  0.10852  0.90920  1.0000
  N   N69       1.0  0.59919  0.96741  0.84620  1.0000
  H   H1214     1.0  0.72751  0.10636  0.79669  1.0000
  C   C1034     1.0  0.50348  0.61365  0.98161  1.0000
  H   H1215     1.0  0.58437  0.83444  0.87921  1.0000
  H   H1216     1.0  0.72694  0.96077  0.86365  1.0000
  S   S282      1.0  0.73874  0.79138  0.90885  1.0000
  H   H1217     1.0  0.73929  0.86042  0.94019  1.0000
  S   S283      1.0  0.51399  0.51722  0.86393  1.0000
  H   H1218     1.0  0.49854  0.17142  0.92292  1.0000
  H   H1219     1.0  0.60875  0.90269  0.90990  1.0000
  C   C1035     1.0  0.51567  0.21183  0.78747  1.0000
  N   N70       1.0  0.72414  0.05136  0.78144  1.0000
  H   H1220     1.0  0.61061  0.96013  0.88148  1.0000
  H   H1221     1.0  0.60047  0.02030  0.86427  1.0000
  N   N71       1.0  0.67173  0.73249  0.90192  1.0000
  C   C1036     1.0  0.66914  0.72170  0.92380  1.0000
  C   C1037     1.0  0.65879  0.73809  0.89334  1.0000
  C   C1038     1.0  0.67973  0.69411  0.89367  1.0000
  C   C1039     1.0  0.67907  0.77224  0.89756  1.0000
  C   C1040     1.0  0.67410  0.81223  0.88638  1.0000
  C   C1041     1.0  0.69167  0.77166  0.90459  1.0000
  C   C1042     1.0  0.68138  0.84901  0.88253  1.0000
  C   C1043     1.0  0.69885  0.80859  0.90066  1.0000
  C   C1044     1.0  0.69373  0.84716  0.88963  1.0000
  H   H1222     1.0  0.66333  0.69252  0.92766  1.0000
  H   H1223     1.0  0.67838  0.71303  0.93129  1.0000
  H   H1224     1.0  0.66346  0.75019  0.93066  1.0000
  H   H1225     1.0  0.65200  0.76525  0.89952  1.0000
  H   H1226     1.0  0.65360  0.70747  0.89693  1.0000
  H   H1227     1.0  0.66002  0.74464  0.87681  1.0000
  H   H1228     1.0  0.68903  0.68454  0.90087  1.0000
  H   H1229     1.0  0.67433  0.66389  0.89588  1.0000
  H   H1230     1.0  0.68254  0.70156  0.87742  1.0000
  H   H1231     1.0  0.66463  0.81595  0.88041  1.0000
  H   H1232     1.0  0.69612  0.74246  0.91314  1.0000
  H   H1233     1.0  0.67746  0.87920  0.87396  1.0000
  H   H1234     1.0  0.70848  0.80726  0.90615  1.0000
  H   H1235     1.0  0.69938  0.87564  0.88658  1.0000
  N   N72       1.0  0.64427  0.32473  0.84373  1.0000
  C   C1045     1.0  0.65637  0.30978  0.83139  1.0000
  C   C1046     1.0  0.63842  0.28420  0.85354  1.0000
  C   C1047     1.0  0.63467  0.34956  0.83041  1.0000
  C   C1048     1.0  0.64765  0.35393  0.85789  1.0000
  C   C1049     1.0  0.65357  0.39347  0.85070  1.0000
  C   C1050     1.0  0.64551  0.34388  0.87893  1.0000
  C   C1051     1.0  0.65716  0.42105  0.86372  1.0000
  C   C1052     1.0  0.64918  0.37173  0.89181  1.0000
  C   C1053     1.0  0.65500  0.41017  0.88422  1.0000
  H   H1236     1.0  0.66407  0.29327  0.84103  1.0000
  H   H1237     1.0  0.65442  0.28585  0.82123  1.0000
  H   H1238     1.0  0.66082  0.33753  0.82180  1.0000
  H   H1239     1.0  0.64543  0.26278  0.86305  1.0000
  H   H1240     1.0  0.63605  0.26299  0.84242  1.0000
  H   H1241     1.0  0.62901  0.29269  0.86268  1.0000
  H   H1242     1.0  0.63881  0.37821  0.82105  1.0000
  H   H1243     1.0  0.63172  0.32800  0.81990  1.0000
  H   H1244     1.0  0.62557  0.36265  0.83916  1.0000
  H   H1245     1.0  0.65583  0.40274  0.83494  1.0000
  H   H1246     1.0  0.64126  0.31432  0.88584  1.0000
  H   H1247     1.0  0.66210  0.45023  0.85789  1.0000
  H   H1248     1.0  0.64780  0.36300  0.90780  1.0000
  H   H1249     1.0  0.72616  0.72113  0.93258  1.0000
  H   H1250     1.0  0.52301  0.33238  0.85423  1.0000
  H   H1251     1.0  0.59485  0.03855  0.84047  1.0000
  H   H1252     1.0  0.61418  0.99394  0.82470  1.0000
  H   H1253     1.0  0.72720  0.02798  0.81217  1.0000
  C   C1054     1.0  0.59444  0.01130  0.85304  1.0000
  H   H1254     1.0  0.58403  0.01182  0.85980  1.0000
  H   H1255     1.0  0.72727  0.98498  0.79668  1.0000
  H   H1256     1.0  0.58544  0.89077  0.85083  1.0000
  H   H1257     1.0  0.61958  0.97621  0.84880  1.0000
  C   C1055     1.0  0.50781  0.17646  0.91409  1.0000
  H   H1258     1.0  0.59562  0.83984  0.90898  1.0000
  C   C1056     1.0  0.59819  0.93187  0.86316  1.0000
  C   C1057     1.0  0.60477  0.93335  0.88042  1.0000
  C   C1058     1.0  0.60384  0.90052  0.89673  1.0000
  H   H1259     1.0  0.55302  0.09093  0.86687  1.0000
  C   C1059     1.0  0.59088  0.89493  0.86312  1.0000
  C   C1060     1.0  0.59014  0.86209  0.87944  1.0000
  H   H1260     1.0  0.54506  0.08683  0.91182  1.0000
  H   H1261     1.0  0.65869  0.19480  0.76886  1.0000
  C   C1061     1.0  0.71193  0.37687  0.98461  1.0000
  H   H1262     1.0  0.53060  0.05964  0.91040  1.0000
  C   C1062     1.0  0.61315  0.96819  0.83785  1.0000
  H   H1263     1.0  0.73353  0.80971  0.95146  1.0000
  H   H1264     1.0  0.61721  0.93547  0.83293  1.0000
  C   C1063     1.0  0.49724  0.57553  0.91227  1.0000
  S   S284      1.0  0.53823  0.06830  0.76373  1.0000
  H   H1265     1.0  0.61431  0.20884  0.76286  1.0000
  C   C1064     1.0  0.59131  0.96184  0.82972  1.0000
  C   C1065     1.0  0.50253  0.20360  0.78822  1.0000
  H   H1266     1.0  0.59227  0.98916  0.81727  1.0000
  C   C1066     1.0  0.50883  0.27982  0.80247  1.0000
  S   S285      1.0  0.70374  0.53311  0.98113  1.0000
  H   H1267     1.0  0.52909  0.25576  0.79424  1.0000
  H   H1268     1.0  0.59465  0.93037  0.82315  1.0000
  H   H1269     1.0  0.58059  0.96241  0.83486  1.0000
  C   C1067     1.0  0.59649  0.86505  0.89626  1.0000
  H   H1270     1.0  0.74197  0.08501  0.84126  1.0000
  C   C1068     1.0  0.73025  0.01884  0.79692  1.0000
  C   C1069     1.0  0.51880  0.24995  0.79447  1.0000
  H   H1271     1.0  0.67615  0.11892  0.75400  1.0000
  H   H1272     1.0  0.63765  0.21715  0.75911  1.0000
  H   H1273     1.0  0.70666  0.37086  0.93562  1.0000
  H   H1274     1.0  0.70745  0.06335  0.80317  1.0000
  H   H1275     1.0  0.71812  0.43206  0.93835  1.0000
  H   H1276     1.0  0.51207  0.30791  0.80813  1.0000
  H   H1277     1.0  0.71878  0.45352  0.96138  1.0000
  H   H1278     1.0  0.51083  0.61667  0.93199  1.0000
  C   C1070     1.0  0.72939  0.09456  0.78167  1.0000
  N   N73       1.0  0.70910  0.39320  0.96387  1.0000
  H   H1279     1.0  0.54534  0.04475  0.89537  1.0000
  H   H1280     1.0  0.73032  0.85812  0.96452  1.0000
  H   H1281     1.0  0.72940  0.40470  0.95564  1.0000
  C   C1071     1.0  0.63471  0.18779  0.75415  1.0000
  H   H1282     1.0  0.68809  0.39971  0.97168  1.0000
  H   H1283     1.0  0.73488  0.76360  0.87042  1.0000
  C   C1072     1.0  0.71929  0.42206  0.95445  1.0000
  C   C1073     1.0  0.70969  0.05690  0.78732  1.0000
  C   C1074     1.0  0.71418  0.33089  0.99164  1.0000
  H   H1284     1.0  0.50578  0.24689  0.91612  1.0000
  H   H1285     1.0  0.50817  0.57198  0.91028  1.0000
  S   S286      1.0  0.49903  0.29333  0.87062  1.0000
  H   H1286     1.0  0.62932  0.49839  0.95404  1.0000
  C   C1075     1.0  0.74231  0.76059  0.98531  1.0000
  H   H1287     1.0  0.66132  0.11002  0.77003  1.0000
  C   C1076     1.0  0.62116  0.18356  0.75637  1.0000
  H   H1288     1.0  0.70108  0.33517  0.95684  1.0000
  H   H1289     1.0  0.50016  0.17365  0.78290  1.0000
  H   H1290     1.0  0.50850  0.50297  0.93421  1.0000
  C   C1077     1.0  0.73784  0.83951  0.95477  1.0000
  Fe  Fe145     1.0  0.50021  0.46287  0.87064  1.0000
  H   H1291     1.0  0.74122  0.01737  0.79533  1.0000
  C   C1078     1.0  0.73693  0.00320  0.75629  1.0000
  C   C1079     1.0  0.74028  0.60669  0.84747  1.0000
  C   C1080     1.0  0.50579  0.60631  0.94631  1.0000
  S   S287      1.0  0.50021  0.40746  0.89590  1.0000
  C   C1081     1.0  0.61643  0.14610  0.75110  1.0000
  C   C1082     1.0  0.50928  0.62520  0.96248  1.0000
  H   H1292     1.0  0.73345  0.58157  0.84879  1.0000
  H   H1293     1.0  0.74300  0.98481  0.76724  1.0000
  H   H1294     1.0  0.60596  0.14225  0.75357  1.0000
  H   H1295     1.0  0.74135  0.60215  0.87901  1.0000
  C   C1083     1.0  0.66229  0.19555  0.75278  1.0000
  C   C1084     1.0  0.74480  0.61824  0.86453  1.0000
  C   C1085     1.0  0.66536  0.11627  0.75419  1.0000
  H   H1296     1.0  0.71396  0.30508  0.98221  1.0000
  H   H1297     1.0  0.71092  0.44295  0.99427  1.0000
  H   H1298     1.0  0.50620  0.62896  0.99396  1.0000
  H   H1299     1.0  0.74082  0.61880  0.81562  1.0000
  C   C1086     1.0  0.74435  0.62799  0.82886  1.0000
  C   C1087     1.0  0.49758  0.50685  0.93388  1.0000
  C   C1088     1.0  0.71252  0.40749  0.99851  1.0000
  H   H1300     1.0  0.91683  0.33379  0.17956  1.0000
  S   S288      1.0  0.76673  0.56771  0.11000  1.0000
  Fe  Fe146     1.0  0.95219  0.87222  0.07021  1.0000
  S   S289      1.0  0.95751  0.80747  0.05715  1.0000
  S   S290      1.0  0.96902  0.91459  0.07172  1.0000
  Fe  Fe147     1.0  0.92285  0.86788  0.06722  1.0000
  S   S291      1.0  0.92626  0.80433  0.05305  1.0000
  S   S292      1.0  0.90328  0.90476  0.07784  1.0000
  Fe  Fe148     1.0  0.94023  0.78132  0.07670  1.0000
  S   S293      1.0  0.94037  0.70767  0.08955  1.0000
  Fe  Fe149     1.0  0.94328  0.83483  0.03453  1.0000
  H   H1301     1.0  0.99153  0.23143  0.06713  1.0000
  S   S294      1.0  0.93613  0.84385  0.09179  1.0000
  S   S295      1.0  0.93860  0.90056  0.04676  1.0000
  Fe  Fe150     1.0  0.91070  0.43629  0.20153  1.0000
  S   S296      1.0  0.91694  0.45751  0.16937  1.0000
  S   S297      1.0  0.89056  0.41437  0.21460  1.0000
  Fe  Fe151     1.0  0.93877  0.44144  0.21465  1.0000
  S   S298      1.0  0.94687  0.46141  0.18291  1.0000
  H   H1302     1.0  0.75282  0.40211  0.21924  1.0000
  Fe  Fe152     1.0  0.92813  0.50799  0.18043  1.0000
  S   S299      1.0  0.92774  0.58376  0.17166  1.0000
  Fe  Fe153     1.0  0.93518  0.40959  0.17445  1.0000
  S   S300      1.0  0.94021  0.35371  0.15476  1.0000
  S   S301      1.0  0.92052  0.48992  0.21267  1.0000
  S   S302      1.0  0.92843  0.38639  0.20613  1.0000
  Fe  Fe154     1.0  0.82774  0.93787  0.05355  1.0000
  S   S303      1.0  0.81891  0.00434  0.03988  1.0000
  S   S304      1.0  0.84816  0.90807  0.04163  1.0000
  Fe  Fe155     1.0  0.80119  0.91820  0.07605  1.0000
  S   S305      1.0  0.79080  0.98357  0.06373  1.0000
  S   S306      1.0  0.79191  0.86442  0.09754  1.0000
  Fe  Fe156     1.0  0.80180  0.96842  0.03415  1.0000
  Fe  Fe157     1.0  0.80887  0.01358  0.07075  1.0000
  S   S307      1.0  0.80838  0.08281  0.08233  1.0000
  S   S308      1.0  0.81109  0.90188  0.04646  1.0000
  S   S309      1.0  0.81872  0.94835  0.08452  1.0000
  Fe  Fe158     1.0  0.82385  0.33147  0.17955  1.0000
  S   S310      1.0  0.82177  0.26480  0.19786  1.0000
  S   S311      1.0  0.84294  0.36471  0.17010  1.0000
  Fe  Fe159     1.0  0.79509  0.34233  0.16978  1.0000
  S   S312      1.0  0.79151  0.27687  0.18746  1.0000
  S   S313      1.0  0.77619  0.37412  0.15664  1.0000
  Fe  Fe160     1.0  0.80243  0.29873  0.21106  1.0000
  H   H1303     1.0  0.89508  0.37689  0.15209  1.0000
  Fe  Fe161     1.0  0.81080  0.24869  0.17261  1.0000
  S   S314      1.0  0.81236  0.17896  0.16117  1.0000
  S   S315      1.0  0.80507  0.36581  0.19386  1.0000
  S   S316      1.0  0.81388  0.31345  0.15377  1.0000
  C   C1089     1.0  0.78190  0.49734  0.12831  1.0000
  C   C1090     1.0  0.78422  0.45463  0.13872  1.0000
  C   C1091     1.0  0.77387  0.42794  0.14361  1.0000
  C   C1092     1.0  0.76123  0.44424  0.13804  1.0000
  H   H1304     1.0  0.78996  0.51777  0.12453  1.0000
  H   H1305     1.0  0.79401  0.44232  0.14288  1.0000
  C   C1093     1.0  0.81038  0.10817  0.10435  1.0000
  C   C1094     1.0  0.81055  0.15475  0.10288  1.0000
  C   C1095     1.0  0.81152  0.17672  0.11980  1.0000
  C   C1096     1.0  0.81209  0.15272  0.13877  1.0000
  C   C1097     1.0  0.81216  0.10605  0.14019  1.0000
  C   C1098     1.0  0.81136  0.08398  0.12321  1.0000
  H   H1306     1.0  0.80989  0.17406  0.08847  1.0000
  H   H1307     1.0  0.81189  0.21223  0.11810  1.0000
  H   H1308     1.0  0.81269  0.08673  0.15462  1.0000
  H   H1309     1.0  0.81128  0.04826  0.12480  1.0000
  C   C1099     1.0  0.77775  0.84040  0.09291  1.0000
  C   C1100     1.0  0.77117  0.85442  0.07584  1.0000
  C   C1101     1.0  0.76233  0.78427  0.10290  1.0000
  C   C1102     1.0  0.77321  0.80549  0.10649  1.0000
  C   C1103     1.0  0.77299  0.16879  0.09752  1.0000
  H   H1310     1.0  0.77816  0.79483  0.11984  1.0000
  C   C1104     1.0  0.87711  0.40244  0.20212  1.0000
  C   C1105     1.0  0.87669  0.41257  0.18153  1.0000
  C   C1106     1.0  0.86613  0.40105  0.17210  1.0000
  C   C1107     1.0  0.85571  0.37981  0.18310  1.0000
  C   C1108     1.0  0.85599  0.37043  0.20377  1.0000
  C   C1109     1.0  0.86664  0.38158  0.21318  1.0000
  H   H1311     1.0  0.88445  0.42970  0.17292  1.0000
  H   H1312     1.0  0.86598  0.40878  0.15614  1.0000
  H   H1313     1.0  0.84807  0.35429  0.21249  1.0000
  H   H1314     1.0  0.86677  0.37387  0.22914  1.0000
  C   C1110     1.0  0.93708  0.67418  0.11276  1.0000
  C   C1111     1.0  0.93285  0.69233  0.13057  1.0000
  C   C1112     1.0  0.93017  0.66415  0.14839  1.0000
  C   C1113     1.0  0.93166  0.61748  0.14874  1.0000
  C   C1114     1.0  0.93596  0.59937  0.13097  1.0000
  C   C1115     1.0  0.93861  0.62754  0.11315  1.0000
  H   H1315     1.0  0.93163  0.72800  0.13063  1.0000
  H   H1316     1.0  0.92679  0.67866  0.16198  1.0000
  H   H1317     1.0  0.93717  0.56367  0.13090  1.0000
  H   H1318     1.0  0.94189  0.61301  0.09952  1.0000
  C   C1116     1.0  0.88798  0.90402  0.06793  1.0000
  C   C1117     1.0  0.87654  0.92639  0.07691  1.0000
  C   C1118     1.0  0.86423  0.92746  0.06924  1.0000
  C   C1119     1.0  0.86326  0.90628  0.05245  1.0000
  C   C1120     1.0  0.87469  0.88346  0.04362  1.0000
  C   C1121     1.0  0.88699  0.88219  0.05134  1.0000
  H   H1319     1.0  0.87719  0.94330  0.08978  1.0000
  H   H1320     1.0  0.85552  0.94513  0.07617  1.0000
  H   H1321     1.0  0.87404  0.86700  0.03062  1.0000
  H   H1322     1.0  0.89571  0.86497  0.04425  1.0000
  C   C1122     1.0  0.98154  0.28779  0.13622  1.0000
  C   C1123     1.0  0.98008  0.32978  0.14314  1.0000
  C   C1124     1.0  0.96753  0.34967  0.14967  1.0000
  C   C1125     1.0  0.95631  0.32812  0.14885  1.0000
  C   C1126     1.0  0.95779  0.28595  0.14207  1.0000
  C   C1127     1.0  0.97037  0.26556  0.13603  1.0000
  H   H1323     1.0  0.98865  0.34742  0.14316  1.0000
  H   H1324     1.0  0.96648  0.38232  0.15467  1.0000
  H   H1325     1.0  0.94915  0.26917  0.14131  1.0000
  H   H1326     1.0  0.97137  0.23331  0.13066  1.0000
  C   C1128     1.0  0.97781  0.01001  0.11510  1.0000
  C   C1129     1.0  0.96756  0.98255  0.12035  1.0000
  C   C1130     1.0  0.96479  0.95273  0.10742  1.0000
  C   C1131     1.0  0.97221  0.95034  0.08901  1.0000
  C   C1132     1.0  0.98256  0.97742  0.08390  1.0000
  C   C1133     1.0  0.98536  0.00708  0.09684  1.0000
  H   H1327     1.0  0.95704  0.93132  0.11180  1.0000
  H   H1328     1.0  0.77947  0.78763  0.01572  1.0000
  C   C1134     1.0  0.88385  0.28418  0.14825  1.0000
  N   N74       1.0  0.92557  0.00712  0.08642  1.0000
  C   C1135     1.0  0.91233  0.01447  0.09751  1.0000
  C   C1136     1.0  0.92350  0.00975  0.06498  1.0000
  C   C1137     1.0  0.93135  0.96165  0.09323  1.0000
  C   C1138     1.0  0.93479  0.03909  0.08950  1.0000
  C   C1139     1.0  0.93198  0.06925  0.10413  1.0000
  C   C1140     1.0  0.94742  0.03860  0.07860  1.0000
  C   C1141     1.0  0.94134  0.09674  0.10760  1.0000
  C   C1142     1.0  0.95659  0.06670  0.08200  1.0000
  C   C1143     1.0  0.95363  0.09531  0.09663  1.0000
  H   H1329     1.0  0.90752  0.04856  0.09335  1.0000
  H   H1330     1.0  0.90552  0.99079  0.09423  1.0000
  H   H1331     1.0  0.91288  0.00884  0.11391  1.0000
  H   H1332     1.0  0.91988  0.04419  0.05900  1.0000
  H   H1333     1.0  0.91612  0.98735  0.06242  1.0000
  H   H1334     1.0  0.93263  0.99925  0.05568  1.0000
  H   H1335     1.0  0.93347  0.95869  0.10910  1.0000
  H   H1336     1.0  0.92456  0.93648  0.09198  1.0000
  H   H1337     1.0  0.94078  0.95202  0.08435  1.0000
  H   H1338     1.0  0.92275  0.07164  0.11336  1.0000
  H   H1339     1.0  0.95053  0.01522  0.06789  1.0000
  H   H1340     1.0  0.93917  0.11873  0.11914  1.0000
  H   H1341     1.0  0.96627  0.06500  0.07379  1.0000
  H   H1342     1.0  0.96101  0.11561  0.09979  1.0000
  H   H1343     1.0  0.75702  0.28754  0.11829  1.0000
  H   H1344     1.0  0.98842  0.97571  0.06976  1.0000
  C   C1144     1.0  0.77367  0.46427  0.18867  1.0000
  H   H1345     1.0  0.79262  0.83645  0.03022  1.0000
  H   H1346     1.0  0.99494  0.23789  0.19271  1.0000
  H   H1347     1.0  0.75889  0.75765  0.11353  1.0000
  H   H1348     1.0  0.77127  0.16674  0.08221  1.0000
  H   H1349     1.0  0.75383  0.58686  0.17265  1.0000
  H   H1350     1.0  0.94556  0.65239  0.22232  1.0000
  H   H1351     1.0  0.77269  0.30180  0.10541  1.0000
  H   H1352     1.0  0.99198  0.92209  0.03548  1.0000
  H   H1353     1.0  0.77648  0.40292  0.20794  1.0000
  H   H1354     1.0  0.79339  0.26810  0.11825  1.0000
  C   C1145     1.0  0.77181  0.21006  0.10489  1.0000
  C   C1146     1.0  0.95635  0.57486  0.24209  1.0000
  S   S317      1.0  0.79300  0.97966  0.00353  1.0000
  C   C1147     1.0  0.76458  0.49835  0.18099  1.0000
  H   H1355     1.0  0.97106  0.94185  0.02057  1.0000
  C   C1148     1.0  0.76942  0.42987  0.20245  1.0000
  H   H1356     1.0  0.86700  0.26321  0.13675  1.0000
  S   S318      1.0  0.95101  0.82046  0.00288  1.0000
  H   H1357     1.0  0.75535  0.84413  0.05896  1.0000
  H   H1358     1.0  0.75320  0.42365  0.14170  1.0000
  H   H1359     1.0  0.76855  0.52301  0.16985  1.0000
  C   C1149     1.0  0.78785  0.26709  0.13325  1.0000
  H   H1360     1.0  0.88472  0.29861  0.19728  1.0000
  H   H1361     1.0  0.80134  0.81220  0.06282  1.0000
  H   H1362     1.0  0.90728  0.29323  0.19344  1.0000
  H   H1363     1.0  0.78406  0.46357  0.18336  1.0000
  N   N75       1.0  0.98560  0.88875  0.01247  1.0000
  C   C1150     1.0  0.77685  0.13002  0.10956  1.0000
  H   H1364     1.0  0.99330  0.02789  0.09260  1.0000
  H   H1365     1.0  0.98211  0.82027  0.02200  1.0000
  H   H1366     1.0  0.94965  0.55433  0.19552  1.0000
  C   C1151     1.0  0.90307  0.35072  0.14809  1.0000
  H   H1367     1.0  0.76905  0.23875  0.09462  1.0000
  C   C1152     1.0  0.86906  0.27522  0.18515  1.0000
  C   C1153     1.0  0.86385  0.26563  0.16827  1.0000
  H   H1368     1.0  0.92281  0.28531  0.15448  1.0000
  C   C1154     1.0  0.98581  0.84179  0.00855  1.0000
  H   H1369     1.0  0.99312  0.33016  0.05091  1.0000
  C   C1155     1.0  0.91261  0.27512  0.15583  1.0000
  H   H1370     1.0  0.96718  0.88723  0.03087  1.0000
  S   S319      1.0  0.95406  0.42730  0.23785  1.0000
  C   C1156     1.0  0.97174  0.90665  0.01746  1.0000
  C   C1157     1.0  0.87124  0.26999  0.14986  1.0000
  H   H1371     1.0  0.78310  0.10222  0.13805  1.0000
  C   C1158     1.0  0.76720  0.29441  0.12026  1.0000
  H   H1372     1.0  0.91262  0.36535  0.14717  1.0000
  N   N76       1.0  0.89743  0.75046  0.09812  1.0000
  C   C1159     1.0  0.90188  0.73656  0.07810  1.0000
  C   C1160     1.0  0.88394  0.77411  0.09705  1.0000
  C   C1161     1.0  0.90642  0.78210  0.10233  1.0000
  C   C1162     1.0  0.89743  0.71285  0.11423  1.0000
  C   C1163     1.0  0.89233  0.72000  0.13396  1.0000
  C   C1164     1.0  0.90291  0.66890  0.11116  1.0000
  C   C1165     1.0  0.89251  0.68524  0.14952  1.0000
  C   C1166     1.0  0.90294  0.63437  0.12681  1.0000
  C   C1167     1.0  0.89779  0.64251  0.14594  1.0000
  H   H1373     1.0  0.89577  0.71151  0.07428  1.0000
  H   H1374     1.0  0.90114  0.76513  0.06617  1.0000
  H   H1375     1.0  0.91246  0.72250  0.07710  1.0000
  H   H1376     1.0  0.87668  0.75081  0.09515  1.0000
  H   H1377     1.0  0.88354  0.80115  0.08435  1.0000
  H   H1378     1.0  0.88039  0.79080  0.11051  1.0000
  H   H1379     1.0  0.91665  0.76550  0.10334  1.0000
  H   H1380     1.0  0.90683  0.81070  0.09045  1.0000
  H   H1381     1.0  0.90328  0.79629  0.11656  1.0000
  H   H1382     1.0  0.88840  0.75271  0.13759  1.0000
  H   H1383     1.0  0.90759  0.66042  0.09695  1.0000
  H   H1384     1.0  0.88871  0.69150  0.16452  1.0000
  H   H1385     1.0  0.90742  0.60131  0.12426  1.0000
  H   H1386     1.0  0.89826  0.61578  0.15810  1.0000
  N   N77       1.0  0.78308  0.67705  0.07048  1.0000
  C   C1168     1.0  0.79555  0.65093  0.07619  1.0000
  C   C1169     1.0  0.77457  0.68578  0.08885  1.0000
  C   C1170     1.0  0.77623  0.64870  0.05953  1.0000
  C   C1171     1.0  0.78586  0.72003  0.05887  1.0000
  C   C1172     1.0  0.79332  0.74915  0.06667  1.0000
  C   C1173     1.0  0.78093  0.73505  0.04008  1.0000
  C   C1174     1.0  0.79591  0.79014  0.05622  1.0000
  C   C1175     1.0  0.78348  0.77643  0.02984  1.0000
  C   C1176     1.0  0.79095  0.80392  0.03790  1.0000
  H   H1387     1.0  0.80054  0.66713  0.08663  1.0000
  H   H1388     1.0  0.79372  0.61747  0.08405  1.0000
  H   H1389     1.0  0.80260  0.64602  0.06284  1.0000
  H   H1390     1.0  0.77919  0.70564  0.09832  1.0000
  H   H1391     1.0  0.77235  0.65454  0.09826  1.0000
  H   H1392     1.0  0.76497  0.70433  0.08520  1.0000
  H   H1393     1.0  0.78218  0.64048  0.04556  1.0000
  H   H1394     1.0  0.77433  0.61660  0.06868  1.0000
  H   H1395     1.0  0.76638  0.66507  0.05580  1.0000
  H   H1396     1.0  0.79686  0.74126  0.08126  1.0000
  H   H1397     1.0  0.77489  0.71591  0.03312  1.0000
  H   H1398     1.0  0.77306  0.23305  0.16416  1.0000
  H   H1399     1.0  0.78190  0.17339  0.15106  1.0000
  H   H1400     1.0  0.81718  0.91910  0.00228  1.0000
  C   C1177     1.0  0.76923  0.51372  0.12285  1.0000
  H   H1401     1.0  0.77450  0.88149  0.06537  1.0000
  H   H1402     1.0  0.96171  0.98437  0.13450  1.0000
  H   H1403     1.0  0.86307  0.27313  0.19931  1.0000
  C   C1178     1.0  0.75890  0.48698  0.12769  1.0000
  H   H1404     1.0  0.90186  0.34371  0.13279  1.0000
  S   S320      1.0  0.98082  0.04767  0.13166  1.0000
  H   H1405     1.0  0.75743  0.24329  0.15359  1.0000
  C   C1179     1.0  0.95053  0.62632  0.21327  1.0000
  C   C1180     1.0  0.95499  0.54901  0.20923  1.0000
  H   H1406     1.0  0.94577  0.63122  0.19898  1.0000
  H   H1407     1.0  0.75275  0.62467  0.22312  1.0000
  C   C1181     1.0  0.77869  0.17338  0.13640  1.0000
  H   H1408     1.0  0.76636  0.32596  0.12725  1.0000
  C   C1182     1.0  0.75215  0.60131  0.23643  1.0000
  H   H1409     1.0  0.92999  0.57722  0.21509  1.0000
  H   H1410     1.0  0.99145  0.30418  0.07630  1.0000
  H   H1411     1.0  0.78814  0.29978  0.13870  1.0000
  C   C1183     1.0  0.75598  0.79741  0.08555  1.0000
  C   C1184     1.0  0.77455  0.21356  0.12470  1.0000
  H   H1412     1.0  0.93424  0.54114  0.23712  1.0000
  H   H1413     1.0  0.77825  0.09827  0.10357  1.0000
  H   H1414     1.0  0.90005  0.34977  0.18755  1.0000
  H   H1415     1.0  0.79339  0.24179  0.14336  1.0000
  C   C1185     1.0  0.99280  0.88849  0.03037  1.0000
  C   C1186     1.0  0.93537  0.57450  0.22870  1.0000
  H   H1416     1.0  0.99596  0.82768  0.00358  1.0000
  H   H1417     1.0  0.96104  0.63282  0.20968  1.0000
  H   H1418     1.0  0.76667  0.55448  0.22267  1.0000
  C   C1187     1.0  0.75605  0.42942  0.20873  1.0000
  S   S321      1.0  0.79088  0.28987  0.24225  1.0000
  C   C1188     1.0  0.76033  0.83301  0.07221  1.0000
  C   C1189     1.0  0.88159  0.29000  0.18370  1.0000
  H   H1419     1.0  0.91090  0.26698  0.14091  1.0000
  N   N78       1.0  0.94952  0.58082  0.22361  1.0000
  N   N79       1.0  0.77415  0.25688  0.13259  1.0000
  C   C1190     1.0  0.76735  0.25509  0.15307  1.0000
  H   H1420     1.0  0.98855  0.86668  0.04334  1.0000
  C   C1191     1.0  0.76025  0.56104  0.23595  1.0000
  H   H1421     1.0  0.85389  0.25608  0.16940  1.0000
  C   C1192     1.0  0.88939  0.29501  0.16510  1.0000
  H   H1422     1.0  0.76605  0.28826  0.15870  1.0000
  H   H1423     1.0  0.88915  0.28733  0.13363  1.0000
  H   H1424     1.0  0.93010  0.59971  0.23794  1.0000
  H   H1425     1.0  0.95404  0.51403  0.21575  1.0000
  C   C1193     1.0  0.90682  0.32219  0.18173  1.0000
  H   H1426     1.0  0.96554  0.55260  0.20423  1.0000
  N   N80       1.0  0.90271  0.31054  0.16289  1.0000
  C   C1194     1.0  0.75085  0.49900  0.18716  1.0000
  C   C1195     1.0  0.77958  0.13230  0.12901  1.0000
  H   H1427     1.0  0.91242  0.24405  0.16635  1.0000
  H   H1428     1.0  0.99202  0.25353  0.04145  1.0000
  H   H1429     1.0  0.83260  0.89919  0.01190  1.0000
  C   C1196     1.0  0.74687  0.46335  0.20122  1.0000
  H   H1430     1.0  0.74923  0.80288  0.03425  1.0000
  H   H1431     1.0  0.96545  0.90532  0.00527  1.0000
  H   H1432     1.0  0.97086  0.51854  0.23509  1.0000
  H   H1433     1.0  0.75172  0.55749  0.15187  1.0000
  H   H1434     1.0  0.74918  0.49900  0.12320  1.0000
  S   S322      1.0  0.99577  0.15406  0.10049  1.0000
  C   C1197     1.0  0.74744  0.79111  0.02046  1.0000
  H   H1435     1.0  0.83881  0.97517  0.00609  1.0000
  C   C1198     1.0  0.75043  0.81609  0.00211  1.0000
  C   C1199     1.0  0.96708  0.54168  0.24562  1.0000
  H   H1436     1.0  0.75458  0.84685  0.00268  1.0000
  Fe  Fe162     1.0  0.99655  0.09576  0.12429  1.0000
  Fe  Fe163     1.0  0.97536  0.40624  0.39484  1.0000
  S   S323      1.0  0.98073  0.46838  0.37527  1.0000
  S   S324      1.0  0.96426  0.42112  0.42485  1.0000
  H   H1437     1.0  0.78228  0.17384  0.37148  1.0000
  H   H1438     1.0  0.78000  0.49502  0.41791  1.0000
  H   H1439     1.0  0.80507  0.41689  0.48625  1.0000
  Fe  Fe164     1.0  0.97547  0.43653  0.34913  1.0000
  S   S325      1.0  0.96202  0.47141  0.32545  1.0000
  C   C1200     1.0  0.96830  0.56273  0.27853  1.0000
  S   S326      1.0  0.96848  0.37767  0.36914  1.0000
  H   H1440     1.0  0.74840  0.21013  0.47553  1.0000
  Fe  Fe165     1.0  0.77192  0.37829  0.40195  1.0000
  C   C1201     1.0  0.76204  0.53116  0.38907  1.0000
  S   S327      1.0  0.78490  0.39065  0.42631  1.0000
  Fe  Fe166     1.0  0.77309  0.36190  0.35666  1.0000
  C   C1202     1.0  0.98814  0.49594  0.44358  1.0000
  S   S328      1.0  0.78755  0.36119  0.32813  1.0000
  S   S329      1.0  0.75092  0.36202  0.40753  1.0000
  C   C1203     1.0  0.80139  0.21287  0.28339  1.0000
  H   H1441     1.0  0.99270  0.65348  0.42235  1.0000
  C   C1204     1.0  0.75657  0.57161  0.43707  1.0000
  S   S330      1.0  0.76867  0.42283  0.37318  1.0000
  S   S331      1.0  0.77817  0.31914  0.38496  1.0000
  H   H1442     1.0  0.79685  0.27454  0.35139  1.0000
  C   C1205     1.0  0.78423  0.40968  0.45047  1.0000
  C   C1206     1.0  0.77282  0.43171  0.45948  1.0000
  C   C1207     1.0  0.77319  0.45002  0.47754  1.0000
  C   C1208     1.0  0.78477  0.44489  0.48752  1.0000
  C   C1209     1.0  0.79602  0.42110  0.47898  1.0000
  C   C1210     1.0  0.79579  0.40430  0.46051  1.0000
  H   H1443     1.0  0.76382  0.43614  0.45220  1.0000
  C   C1211     1.0  0.97297  0.53616  0.26355  1.0000
  Fe  Fe167     1.0  0.75684  0.30572  0.38895  1.0000
  H   H1444     1.0  0.80472  0.38732  0.45384  1.0000
  C   C1212     1.0  0.78959  0.31413  0.26520  1.0000
  C   C1213     1.0  0.79948  0.33731  0.27050  1.0000
  C   C1214     1.0  0.79856  0.35189  0.28964  1.0000
  C   C1215     1.0  0.78767  0.34435  0.30370  1.0000
  C   C1216     1.0  0.77756  0.32255  0.29812  1.0000
  C   C1217     1.0  0.77861  0.30717  0.27916  1.0000
  H   H1445     1.0  0.92261  0.36980  0.48085  1.0000
  H   H1446     1.0  0.80645  0.36878  0.29364  1.0000
  H   H1447     1.0  0.76897  0.31705  0.30843  1.0000
  H   H1448     1.0  0.77089  0.28930  0.27533  1.0000
  C   C1218     1.0  0.96032  0.38773  0.44775  1.0000
  C   C1219     1.0  0.95541  0.40891  0.46469  1.0000
  C   C1220     1.0  0.95181  0.38409  0.48307  1.0000
  C   C1221     1.0  0.95288  0.33762  0.48466  1.0000
  C   C1222     1.0  0.95774  0.31644  0.46771  1.0000
  C   C1223     1.0  0.96154  0.34124  0.44942  1.0000
  H   H1449     1.0  0.95440  0.44482  0.46359  1.0000
  H   H1450     1.0  0.76404  0.56641  0.38491  1.0000
  H   H1451     1.0  0.95859  0.28055  0.46875  1.0000
  H   H1452     1.0  0.96524  0.32442  0.43656  1.0000
  C   C1224     1.0  0.95589  0.44021  0.26225  1.0000
  C   C1225     1.0  0.94622  0.46637  0.27299  1.0000
  C   C1226     1.0  0.94827  0.47556  0.29225  1.0000
  C   C1227     1.0  0.95991  0.45847  0.30115  1.0000
  C   C1228     1.0  0.96959  0.43250  0.29036  1.0000
  C   C1229     1.0  0.96758  0.42346  0.27108  1.0000
  H   H1453     1.0  0.93717  0.47949  0.26651  1.0000
  H   H1454     1.0  0.94075  0.49597  0.30037  1.0000
  H   H1455     1.0  0.97869  0.41975  0.29679  1.0000
  H   H1456     1.0  0.97516  0.40342  0.26290  1.0000
  N   N81       1.0  0.95551  0.30418  0.32582  1.0000
  C   C1230     1.0  0.96325  0.26150  0.32180  1.0000
  C   C1231     1.0  0.96461  0.33944  0.32145  1.0000
  C   C1232     1.0  0.95094  0.30172  0.34734  1.0000
  C   C1233     1.0  0.94401  0.31225  0.31381  1.0000
  C   C1234     1.0  0.94213  0.34970  0.29926  1.0000
  C   C1235     1.0  0.93436  0.28161  0.31623  1.0000
  C   C1236     1.0  0.93139  0.35566  0.28776  1.0000
  C   C1237     1.0  0.92357  0.28806  0.30476  1.0000
  C   C1238     1.0  0.76025  0.52924  0.25259  1.0000
  H   H1457     1.0  0.96650  0.26157  0.30564  1.0000
  H   H1458     1.0  0.97230  0.25524  0.32999  1.0000
  H   H1459     1.0  0.95756  0.23251  0.32652  1.0000
  H   H1460     1.0  0.96888  0.34207  0.30566  1.0000
  H   H1461     1.0  0.97313  0.33264  0.33065  1.0000
  H   H1462     1.0  0.95956  0.37240  0.32483  1.0000
  H   H1463     1.0  0.94474  0.27416  0.35235  1.0000
  H   H1464     1.0  0.95943  0.29594  0.35671  1.0000
  H   H1465     1.0  0.94505  0.33329  0.35094  1.0000
  H   H1466     1.0  0.94882  0.37500  0.29641  1.0000
  H   H1467     1.0  0.93511  0.25236  0.32699  1.0000
  H   H1468     1.0  0.97661  0.51351  0.47017  1.0000
  H   H1469     1.0  0.94397  0.62800  0.25591  1.0000
  H   H1470     1.0  0.90785  0.39716  0.47061  1.0000
  H   H1471     1.0  0.76446  0.46908  0.48359  1.0000
  C   C1239     1.0  0.77521  0.52040  0.42680  1.0000
  C   C1240     1.0  0.78551  0.19558  0.31147  1.0000
  C   C1241     1.0  0.92211  0.32497  0.29051  1.0000
  N   N82       1.0  0.78721  0.21895  0.34528  1.0000
  S   S332      1.0  0.99618  0.40479  0.34291  1.0000
  C   C1242     1.0  0.79224  0.21718  0.32410  1.0000
  H   H1472     1.0  0.76999  0.24757  0.36211  1.0000
  H   H1473     1.0  0.77168  0.51025  0.38824  1.0000
  H   H1474     1.0  0.91630  0.26431  0.30689  1.0000
  H   H1475     1.0  0.77516  0.28079  0.33961  1.0000
  H   H1476     1.0  0.78176  0.56976  0.46630  1.0000
  C   C1243     1.0  0.95207  0.60215  0.25749  1.0000
  H   H1477     1.0  0.74754  0.47121  0.42938  1.0000
  H   H1478     1.0  0.79244  0.23753  0.37287  1.0000
  C   C1244     1.0  0.78550  0.17351  0.35529  1.0000
  H   H1479     1.0  0.75644  0.52170  0.37731  1.0000
  H   H1480     1.0  0.80620  0.22065  0.35607  1.0000
  C   C1245     1.0  0.80360  0.23757  0.31525  1.0000
  C   C1246     1.0  0.77641  0.56225  0.45439  1.0000
  H   H1481     1.0  0.78464  0.17784  0.28188  1.0000
  H   H1482     1.0  0.77776  0.15800  0.34917  1.0000
  C   C1247     1.0  0.79612  0.23872  0.35682  1.0000
  H   H1483     1.0  0.90936  0.33852  0.47890  1.0000
  H   H1484     1.0  0.77650  0.18106  0.31686  1.0000
  C   C1248     1.0  0.79007  0.19347  0.29144  1.0000
  C   C1249     1.0  0.98427  0.52305  0.45866  1.0000
  C   C1250     1.0  0.91160  0.37133  0.48234  1.0000
  H   H1485     1.0  0.80465  0.21251  0.26768  1.0000
  Fe  Fe168     1.0  0.98950  0.34690  0.36378  1.0000
  H   H1486     1.0  0.79199  0.51499  0.44392  1.0000
  H   H1487     1.0  0.98090  0.50990  0.26617  1.0000
  H   H1488     1.0  0.93029  0.38433  0.27658  1.0000
  Fe  Fe169     1.0  0.74792  0.40353  0.37800  1.0000
  S   S333      1.0  0.99266  0.27945  0.35199  1.0000
  N   N83       1.0  0.75466  0.52506  0.40905  1.0000
  C   C1251     1.0  0.80810  0.23498  0.29524  1.0000
  H   H1489     1.0  0.79489  0.15130  0.35382  1.0000
  H   H1490     1.0  0.97256  0.55693  0.29272  1.0000
  C   C1252     1.0  0.77423  0.24605  0.34642  1.0000
  H   H1491     1.0  0.80895  0.25696  0.32324  1.0000
  C   C1253     1.0  0.95792  0.59584  0.27547  1.0000
  H   H1492     1.0  0.81653  0.25185  0.28860  1.0000
  C   C1254     1.0  0.78220  0.53157  0.44171  1.0000
  H   H1493     1.0  0.80804  0.34283  0.26010  1.0000
  H   H1494     1.0  0.76252  0.45604  0.41452  1.0000
  H   H1495     1.0  0.76682  0.23280  0.33860  1.0000
  H   H1496     1.0  0.90792  0.45154  0.49589  1.0000
  H   H1497     1.0  0.74937  0.68534  0.26646  1.0000
  C   C1255     1.0  0.75294  0.47730  0.41438  1.0000
  C   C1256     1.0  0.99005  0.56247  0.45879  1.0000
  H   H1498     1.0  0.98349  0.46576  0.44336  1.0000
  S   S334      1.0  0.75204  0.34544  0.35986  1.0000
  S   S335      1.0  0.75350  0.23311  0.39871  1.0000
  C   C1257     1.0  0.75223  0.53762  0.26985  1.0000
  H   H1499     1.0  0.99016  0.65442  0.45944  1.0000
  H   H1500     1.0  0.95424  0.61612  0.28727  1.0000
  H   H1501     1.0  0.75922  0.60632  0.46193  1.0000
  H   H1502     1.0  0.75235  0.51304  0.28290  1.0000
  C   C1258     1.0  0.76212  0.53975  0.42411  1.0000
  H   H1503     1.0  0.76659  0.49819  0.25221  1.0000
  C   C1259     1.0  0.76367  0.58249  0.45197  1.0000
  H   H1504     1.0  0.94815  0.40092  0.49594  1.0000
  H   H1505     1.0  0.91378  0.32991  0.28156  1.0000
  H   H1506     1.0  0.98651  0.58198  0.47082  1.0000
  S   S336      1.0  0.99578  0.37027  0.39110  1.0000
  H   H1507     1.0  0.89025  0.31884  0.49534  1.0000
  H   H1508     1.0  0.74721  0.46487  0.40363  1.0000
  H   H1509     1.0  0.86616  0.32267  0.49884  1.0000
  Fe  Fe170     1.0  0.93417  0.97733  0.72044  1.0000
  S   S337      1.0  0.94503  0.99674  0.69063  1.0000
  H   H1510     1.0  0.86336  0.45302  0.51690  1.0000
  Fe  Fe171     1.0  0.91547  0.92492  0.70166  1.0000
  S   S338      1.0  0.92526  0.93982  0.67059  1.0000
  S   S339      1.0  0.89927  0.87880  0.71195  1.0000
  Fe  Fe172     1.0  0.94430  0.92598  0.68507  1.0000
  S   S340      1.0  0.96392  0.89259  0.67322  1.0000
  Fe  Fe173     1.0  0.92536  0.00984  0.67825  1.0000
  S   S341      1.0  0.91865  0.06914  0.65604  1.0000
  S   S342      1.0  0.93475  0.90559  0.71564  1.0000
  S   S343      1.0  0.91421  0.99583  0.70852  1.0000
  H   H1511     1.0  0.98597  0.42330  0.62373  1.0000
  H   H1512     1.0  0.82539  0.06862  0.61985  1.0000
  Fe  Fe174     1.0  0.93938  0.29250  0.58315  1.0000
  S   S344      1.0  0.93107  0.36050  0.59158  1.0000
  S   S345      1.0  0.94570  0.23341  0.60614  1.0000
  Fe  Fe175     1.0  0.94204  0.32628  0.53830  1.0000
  S   S346      1.0  0.93401  0.39525  0.54384  1.0000
  H   H1513     1.0  0.80166  0.75748  0.60646  1.0000
  Fe  Fe176     1.0  0.94681  0.38746  0.56921  1.0000
  S   S347      1.0  0.95619  0.45159  0.56988  1.0000
  Fe  Fe177     1.0  0.91876  0.36422  0.56566  1.0000
  S   S348      1.0  0.89889  0.40695  0.56539  1.0000
  S   S349      1.0  0.95604  0.31983  0.56217  1.0000
  S   S350      1.0  0.92592  0.29441  0.55870  1.0000
  Fe  Fe178     1.0  0.82887  0.80994  0.67924  1.0000
  S   S351      1.0  0.82241  0.75069  0.70006  1.0000
  S   S352      1.0  0.84848  0.84085  0.67169  1.0000
  Fe  Fe179     1.0  0.80124  0.83304  0.66433  1.0000
  S   S353      1.0  0.79298  0.77679  0.68446  1.0000
  S   S354      1.0  0.79057  0.87531  0.63967  1.0000
  Fe  Fe180     1.0  0.80416  0.79700  0.70839  1.0000
  H   H1514     1.0  0.80206  0.96161  0.64156  1.0000
  Fe  Fe181     1.0  0.81165  0.73503  0.67423  1.0000
  S   S355      1.0  0.80931  0.66631  0.66382  1.0000
  S   S356      1.0  0.81115  0.85627  0.68833  1.0000
  S   S357      1.0  0.81942  0.79109  0.65339  1.0000
  Fe  Fe182     1.0  0.82119  0.41530  0.55865  1.0000
  S   S358      1.0  0.81636  0.48393  0.54284  1.0000
  S   S359      1.0  0.84029  0.36967  0.55424  1.0000
  Fe  Fe183     1.0  0.79354  0.41310  0.57994  1.0000
  S   S360      1.0  0.78705  0.48214  0.56598  1.0000
  S   S361      1.0  0.77900  0.37662  0.60195  1.0000
  Fe  Fe184     1.0  0.79717  0.45917  0.53715  1.0000
  Fe  Fe185     1.0  0.80663  0.50083  0.57309  1.0000
  S   S362      1.0  0.81074  0.56659  0.58453  1.0000
  S   S363      1.0  0.80266  0.38968  0.55120  1.0000
  S   S364      1.0  0.81244  0.43281  0.58881  1.0000
  C   C1260     1.0  0.77387  0.32468  0.59864  1.0000
  C   C1261     1.0  0.77950  0.30097  0.58298  1.0000
  C   C1262     1.0  0.75873  0.26767  0.60870  1.0000
  C   C1263     1.0  0.76355  0.30762  0.61158  1.0000
  H   H1515     1.0  0.78755  0.31343  0.57307  1.0000
  H   H1516     1.0  0.92158  0.34160  0.51720  1.0000
  H   H1517     1.0  0.82205  0.82280  0.73323  1.0000
  C   C1264     1.0  0.81027  0.63850  0.64161  1.0000
  C   C1265     1.0  0.81568  0.65653  0.62290  1.0000
  C   C1266     1.0  0.81577  0.63399  0.60584  1.0000
  C   C1267     1.0  0.81067  0.59257  0.60701  1.0000
  C   C1268     1.0  0.80567  0.57375  0.62581  1.0000
  C   C1269     1.0  0.80546  0.59654  0.64285  1.0000
  H   H1518     1.0  0.81987  0.68783  0.62152  1.0000
  H   H1519     1.0  0.81978  0.64899  0.59154  1.0000
  H   H1520     1.0  0.80171  0.54201  0.62720  1.0000
  H   H1521     1.0  0.80135  0.58171  0.65713  1.0000
  C   C1270     1.0  0.77697  0.91548  0.64361  1.0000
  C   C1271     1.0  0.77186  0.92437  0.66275  1.0000
  C   C1272     1.0  0.76055  0.97223  0.62952  1.0000
  C   C1273     1.0  0.77128  0.93947  0.62703  1.0000
  S   S365      1.0  0.99313  0.50903  0.62955  1.0000
  H   H1522     1.0  0.77520  0.93274  0.61217  1.0000
  C   C1274     1.0  0.88268  0.39527  0.56256  1.0000
  C   C1275     1.0  0.87238  0.43008  0.56302  1.0000
  C   C1276     1.0  0.85929  0.42259  0.56097  1.0000
  C   C1277     1.0  0.85642  0.38025  0.55814  1.0000
  C   C1278     1.0  0.86673  0.34550  0.55756  1.0000
  C   C1279     1.0  0.87979  0.35286  0.55986  1.0000
  H   H1523     1.0  0.87455  0.46299  0.56508  1.0000
  H   H1524     1.0  0.85148  0.44964  0.56113  1.0000
  H   H1525     1.0  0.86459  0.31270  0.55526  1.0000
  H   H1526     1.0  0.88760  0.32576  0.55952  1.0000
  C   C1280     1.0  0.98170  0.49340  0.61459  1.0000
  C   C1281     1.0  0.98040  0.44810  0.61421  1.0000
  C   C1282     1.0  0.97215  0.43459  0.60122  1.0000
  C   C1283     1.0  0.96525  0.46638  0.58839  1.0000
  C   C1284     1.0  0.96634  0.51167  0.58913  1.0000
  C   C1285     1.0  0.97438  0.52515  0.60234  1.0000
  Fe  Fe186     1.0  0.98989  0.67892  0.62462  1.0000
  H   H1527     1.0  0.97144  0.39963  0.60073  1.0000
  H   H1528     1.0  0.96096  0.53647  0.57935  1.0000
  H   H1529     1.0  0.97505  0.56010  0.60285  1.0000
  C   C1286     1.0  0.92654  0.11388  0.64198  1.0000
  C   C1287     1.0  0.91918  0.14477  0.62912  1.0000
  C   C1288     1.0  0.92485  0.18131  0.61795  1.0000
  C   C1289     1.0  0.93800  0.18756  0.61953  1.0000
  C   C1290     1.0  0.94539  0.15649  0.63233  1.0000
  C   C1291     1.0  0.93973  0.11987  0.64344  1.0000
  H   H1530     1.0  0.90897  0.14057  0.62784  1.0000
  H   H1531     1.0  0.91902  0.20478  0.60821  1.0000
  H   H1532     1.0  0.95557  0.16096  0.63368  1.0000
  H   H1533     1.0  0.94554  0.09668  0.65324  1.0000
  C   C1292     1.0  0.88536  0.86800  0.70030  1.0000
  C   C1293     1.0  0.87658  0.83897  0.71073  1.0000
  C   C1294     1.0  0.86532  0.82985  0.70223  1.0000
  C   C1295     1.0  0.86271  0.84962  0.68312  1.0000
  C   C1296     1.0  0.87165  0.87790  0.67257  1.0000
  C   C1297     1.0  0.88287  0.88720  0.68109  1.0000
  N   N84       1.0  0.75929  0.37866  0.53746  1.0000
  H   H1534     1.0  0.85869  0.80751  0.71043  1.0000
  H   H1535     1.0  0.86978  0.89322  0.65774  1.0000
  H   H1536     1.0  0.88951  0.90951  0.67283  1.0000
  C   C1298     1.0  0.96568  0.84697  0.65924  1.0000
  C   C1299     1.0  0.97803  0.82185  0.65718  1.0000
  C   C1300     1.0  0.97984  0.78504  0.64629  1.0000
  C   C1301     1.0  0.96935  0.77353  0.63710  1.0000
  C   C1302     1.0  0.95705  0.79930  0.63878  1.0000
  C   C1303     1.0  0.95520  0.83584  0.64991  1.0000
  H   H1537     1.0  0.98620  0.83050  0.66427  1.0000
  H   H1538     1.0  0.78775  0.65626  0.57379  1.0000
  C   C1304     1.0  0.76240  0.40381  0.55343  1.0000
  H   H1539     1.0  0.94573  0.85546  0.65119  1.0000
  N   N85       1.0  0.84782  0.50778  0.60892  1.0000
  C   C1305     1.0  0.83678  0.48028  0.60875  1.0000
  C   C1306     1.0  0.84468  0.53423  0.62602  1.0000
  C   C1307     1.0  0.84821  0.53858  0.59017  1.0000
  C   C1308     1.0  0.86081  0.48122  0.61049  1.0000
  C   C1309     1.0  0.87237  0.50273  0.61071  1.0000
  C   C1310     1.0  0.86249  0.43402  0.61136  1.0000
  C   C1311     1.0  0.88483  0.47863  0.61134  1.0000
  C   C1312     1.0  0.87500  0.41029  0.61210  1.0000
  C   C1313     1.0  0.88614  0.43254  0.61196  1.0000
  H   H1540     1.0  0.82714  0.50109  0.60767  1.0000
  H   H1541     1.0  0.83821  0.46100  0.59568  1.0000
  H   H1542     1.0  0.83564  0.45689  0.62263  1.0000
  H   H1543     1.0  0.84471  0.51233  0.64043  1.0000
  H   H1544     1.0  0.83474  0.55348  0.62562  1.0000
  H   H1545     1.0  0.85179  0.55901  0.62621  1.0000
  H   H1546     1.0  0.85094  0.52000  0.57699  1.0000
  H   H1547     1.0  0.83846  0.55802  0.58809  1.0000
  H   H1548     1.0  0.85541  0.56333  0.58977  1.0000
  H   H1549     1.0  0.87189  0.53847  0.60999  1.0000
  H   H1550     1.0  0.85440  0.41456  0.61084  1.0000
  H   H1551     1.0  0.89359  0.49572  0.61088  1.0000
  H   H1552     1.0  0.87616  0.37452  0.61191  1.0000
  H   H1553     1.0  0.89586  0.41407  0.61170  1.0000
  N   N86       1.0  0.77945  0.10348  0.63139  1.0000
  C   C1314     1.0  0.77206  0.09888  0.65144  1.0000
  C   C1315     1.0  0.78162  0.15113  0.62619  1.0000
  C   C1316     1.0  0.77115  0.09185  0.61664  1.0000
  C   C1317     1.0  0.79178  0.07287  0.63132  1.0000
  C   C1318     1.0  0.79131  0.02672  0.63732  1.0000
  C   C1319     1.0  0.80443  0.08725  0.62493  1.0000
  C   C1320     1.0  0.80274  0.99683  0.63707  1.0000
  C   C1321     1.0  0.81583  0.05705  0.62480  1.0000
  H   H1554     1.0  0.81919  0.91730  0.71424  1.0000
  H   H1555     1.0  0.76795  0.06629  0.65513  1.0000
  H   H1556     1.0  0.77846  0.10258  0.66325  1.0000
  H   H1557     1.0  0.76339  0.12434  0.65263  1.0000
  H   H1558     1.0  0.78788  0.16228  0.63663  1.0000
  H   H1559     1.0  0.77213  0.17318  0.62684  1.0000
  H   H1560     1.0  0.78614  0.15791  0.61061  1.0000
  H   H1561     1.0  0.76800  0.05793  0.62045  1.0000
  H   H1562     1.0  0.76198  0.11498  0.61573  1.0000
  H   H1563     1.0  0.77644  0.09370  0.60144  1.0000
  H   H1564     1.0  0.78204  0.01328  0.64207  1.0000
  H   H1565     1.0  0.80578  0.12159  0.61986  1.0000
  H   H1566     1.0  0.94893  0.79053  0.63165  1.0000
  H   H1567     1.0  0.84012  0.91786  0.70271  1.0000
  H   H1568     1.0  0.92626  0.09048  0.69342  1.0000
  N   N87       1.0  0.92178  0.77293  0.68599  1.0000
  C   C1322     1.0  0.92029  0.81921  0.67611  1.0000
  C   C1323     1.0  0.91414  0.74604  0.67550  1.0000
  C   C1324     1.0  0.91573  0.77231  0.70684  1.0000
  C   C1325     1.0  0.93600  0.75672  0.68583  1.0000
  C   C1326     1.0  0.94450  0.77809  0.69589  1.0000
  C   C1327     1.0  0.94189  0.72054  0.67550  1.0000
  C   C1328     1.0  0.95800  0.76406  0.69567  1.0000
  C   C1329     1.0  0.95542  0.70680  0.67540  1.0000
  C   C1330     1.0  0.96344  0.72844  0.68547  1.0000
  H   H1569     1.0  0.92504  0.82133  0.66056  1.0000
  H   H1570     1.0  0.90970  0.83245  0.67556  1.0000
  C   C1331     1.0  0.77193  0.35733  0.52861  1.0000
  C   C1332     1.0  0.81499  0.01196  0.63085  1.0000
  H   H1571     1.0  0.91768  0.74711  0.65939  1.0000
  H   H1572     1.0  0.83351  0.84587  0.71400  1.0000
  H   H1573     1.0  0.91967  0.79638  0.71510  1.0000
  H   H1574     1.0  0.90487  0.78202  0.70752  1.0000
  H   H1575     1.0  0.91743  0.73869  0.71523  1.0000
  H   H1576     1.0  0.94084  0.80659  0.70359  1.0000
  H   H1577     1.0  0.93640  0.70281  0.66698  1.0000
  H   H1578     1.0  0.91664  0.12243  0.71162  1.0000
  H   H1579     1.0  0.95984  0.68025  0.66680  1.0000
  H   H1580     1.0  0.97398  0.71856  0.68472  1.0000
  N   N88       1.0  0.95807  0.99107  0.61913  1.0000
  C   C1333     1.0  0.95204  0.95978  0.60863  1.0000
  C   C1334     1.0  0.97160  0.97073  0.62304  1.0000
  C   C1335     1.0  0.95043  0.99520  0.63867  1.0000
  C   C1336     1.0  0.95772  0.03543  0.60731  1.0000
  C   C1337     1.0  0.96920  0.05784  0.60152  1.0000
  C   C1338     1.0  0.94550  0.05837  0.60192  1.0000
  C   C1339     1.0  0.96837  0.10062  0.59113  1.0000
  C   C1340     1.0  0.94482  0.10090  0.59139  1.0000
  C   C1341     1.0  0.95621  0.12213  0.58614  1.0000
  H   H1581     1.0  0.76889  0.43027  0.54748  1.0000
  C   C1342     1.0  0.84142  0.90546  0.73491  1.0000
  H   H1582     1.0  0.77923  0.38183  0.52383  1.0000
  H   H1583     1.0  0.77183  0.60642  0.63194  1.0000
  H   H1584     1.0  0.97147  0.93716  0.63178  1.0000
  H   H1585     1.0  0.97791  0.96614  0.60893  1.0000
  H   H1586     1.0  0.75068  0.25517  0.61864  1.0000
  H   H1587     1.0  0.93534  0.11831  0.58792  1.0000
  H   H1588     1.0  0.93983  0.00692  0.63726  1.0000
  C   C1343     1.0  0.91065  0.34482  0.51734  1.0000
  H   H1589     1.0  0.75909  0.44040  0.51802  1.0000
  H   H1590     1.0  0.75943  0.21327  0.50518  1.0000
  H   H1591     1.0  0.75915  0.32573  0.62375  1.0000
  H   H1592     1.0  0.95555  0.15584  0.57863  1.0000
  H   H1593     1.0  0.78047  0.79459  0.59383  1.0000
  S   S366      1.0  0.99426  0.63129  0.60125  1.0000
  N   N89       1.0  0.78223  0.75443  0.62232  1.0000
  H   H1594     1.0  0.77650  0.33131  0.53957  1.0000
  C   C1344     1.0  0.93702  0.14672  0.72742  1.0000
  H   H1595     1.0  0.92725  0.07438  0.71948  1.0000
  H   H1596     1.0  0.95272  0.92555  0.61677  1.0000
  H   H1597     1.0  0.79782  0.79442  0.62508  1.0000
  C   C1345     1.0  0.77612  0.67473  0.62856  1.0000
  H   H1598     1.0  0.98935  0.76549  0.64504  1.0000
  H   H1599     1.0  0.93628  0.04422  0.60634  1.0000
  H   H1600     1.0  0.75617  0.99026  0.61667  1.0000
  C   C1346     1.0  0.75029  0.34412  0.54457  1.0000
  H   H1601     1.0  0.95446  0.01928  0.64682  1.0000
  C   C1347     1.0  0.76420  0.24452  0.59279  1.0000
  H   H1602     1.0  0.77068  0.34139  0.51521  1.0000
  H   H1603     1.0  0.90346  0.75884  0.67617  1.0000
  S   S367      1.0  0.99246  0.62663  0.65083  1.0000
  H   H1604     1.0  0.95502  0.25548  0.67123  1.0000
  H   H1605     1.0  0.94557  0.16509  0.72882  1.0000
  H   H1606     1.0  0.96436  0.78197  0.70283  1.0000
  S   S368      1.0  0.75828  0.19495  0.58807  1.0000
  C   C1348     1.0  0.77524  0.63388  0.62171  1.0000
  H   H1607     1.0  0.78925  0.72835  0.58502  1.0000
  H   H1608     1.0  0.77900  0.59537  0.59688  1.0000
  S   S369      1.0  0.93982  0.00712  0.74738  1.0000
  H   H1609     1.0  0.95878  0.11908  0.70557  1.0000
  H   H1610     1.0  0.97892  0.04341  0.60506  1.0000
  C   C1349     1.0  0.78094  0.71089  0.61558  1.0000
  C   C1350     1.0  0.93676  0.17056  0.69203  1.0000
  C   C1351     1.0  0.94702  0.19898  0.68884  1.0000
  C   C1352     1.0  0.92613  0.18144  0.67976  1.0000
  C   C1353     1.0  0.94690  0.23493  0.67384  1.0000
  C   C1354     1.0  0.92605  0.21785  0.66500  1.0000
  C   C1355     1.0  0.93648  0.24413  0.66185  1.0000
  H   H1611     1.0  0.97646  0.99093  0.63211  1.0000
  C   C1356     1.0  0.92639  0.10368  0.70794  1.0000
  C   C1357     1.0  0.75055  0.19650  0.50641  1.0000
  H   H1612     1.0  0.95533  0.19324  0.69772  1.0000
  H   H1613     1.0  0.78163  0.73411  0.65398  1.0000
  H   H1614     1.0  0.95708  0.95762  0.59339  1.0000
  H   H1615     1.0  0.91808  0.22471  0.65536  1.0000
  H   H1616     1.0  0.93661  0.27113  0.64979  1.0000
  N   N90       1.0  0.82917  0.88315  0.73935  1.0000
  C   C1358     1.0  0.84558  0.92196  0.71502  1.0000
  H   H1617     1.0  0.91472  0.71078  0.68233  1.0000
  C   C1359     1.0  0.77556  0.79107  0.60922  1.0000
  C   C1360     1.0  0.78416  0.66206  0.58893  1.0000
  N   N91       1.0  0.90590  0.38139  0.50248  1.0000
  H   H1618     1.0  0.77325  0.67669  0.64419  1.0000
  H   H1619     1.0  0.76573  0.75378  0.64485  1.0000
  C   C1361     1.0  0.81791  0.91167  0.73074  1.0000
  C   C1362     1.0  0.79640  0.76092  0.62142  1.0000
  H   H1620     1.0  0.92786  0.16914  0.73062  1.0000
  C   C1363     1.0  0.77467  0.26113  0.58007  1.0000
  H   H1621     1.0  0.77616  0.90607  0.67562  1.0000
  H   H1622     1.0  0.90637  0.35075  0.53265  1.0000
  C   C1364     1.0  0.77641  0.75853  0.64306  1.0000
  C   C1365     1.0  0.76111  0.95705  0.66524  1.0000
  C   C1366     1.0  0.77923  0.62759  0.60195  1.0000
  H   H1623     1.0  0.77901  0.24324  0.56781  1.0000
  C   C1367     1.0  0.75323  0.41150  0.52211  1.0000
  H   H1624     1.0  0.76507  0.78577  0.60840  1.0000
  H   H1625     1.0  0.86034  0.95371  0.69503  1.0000
  C   C1368     1.0  0.94992  0.10268  0.70381  1.0000
  H   H1626     1.0  0.91795  0.16166  0.68076  1.0000
  C   C1369     1.0  0.78502  0.70312  0.59557  1.0000
  C   C1370     1.0  0.89129  0.38504  0.50377  1.0000
  H   H1627     1.0  0.94137  0.96974  0.60714  1.0000
  S   S370      1.0  0.79340  0.81614  0.73845  1.0000
  H   H1628     1.0  0.99424  0.48424  0.57551  1.0000
  H   H1629     1.0  0.95075  0.96278  0.64825  1.0000
  H   H1630     1.0  0.90822  0.43006  0.52202  1.0000
  H   H1631     1.0  0.77565  0.82396  0.61478  1.0000
  H   H1632     1.0  0.80150  0.73634  0.63232  1.0000
  H   H1633     1.0  0.77728  0.79200  0.64749  1.0000
  N   N92       1.0  0.93741  0.13158  0.70746  1.0000
  S   S371      1.0  0.78475  0.47089  0.50987  1.0000
  H   H1634     1.0  0.82381  0.98857  0.63062  1.0000
  H   H1635     1.0  0.92221  0.41896  0.50479  1.0000
  H   H1636     1.0  0.92479  0.84235  0.68413  1.0000
  H   H1637     1.0  0.87842  0.82382  0.72558  1.0000
  C   C1371     1.0  0.75546  0.98125  0.64867  1.0000
  S   S372      1.0  0.94775  0.30464  0.50712  1.0000
  S   S373      1.0  0.97120  0.72691  0.62369  1.0000
  H   H1638     1.0  0.75718  0.96372  0.68010  1.0000
  C   C1372     1.0  0.83108  0.84070  0.73043  1.0000
  H   H1639     1.0  0.93726  0.11802  0.73940  1.0000
  H   H1640     1.0  0.95039  0.07171  0.71450  1.0000
  H   H1641     1.0  0.76790  0.38201  0.56478  1.0000
  H   H1642     1.0  0.75075  0.17838  0.53814  1.0000
  C   C1373     1.0  0.86331  0.38848  0.50758  1.0000
  H   H1643     1.0  0.95097  0.09275  0.68847  1.0000
  H   H1644     1.0  0.99270  0.48336  0.54995  1.0000
  H   H1645     1.0  0.87466  0.95954  0.72143  1.0000
  H   H1646     1.0  0.97716  0.11769  0.58718  1.0000
  C   C1374     1.0  0.85726  0.94220  0.71039  1.0000
  H   H1647     1.0  0.80847  0.89618  0.73445  1.0000
  H   H1648     1.0  0.90804  0.31194  0.51456  1.0000
  H   H1649     1.0  0.81653  0.94473  0.73641  1.0000
  H   H1650     1.0  0.85263  0.38926  0.50972  1.0000
  C   C1375     1.0  0.86534  0.94549  0.72525  1.0000
  H   H1651     1.0  0.83936  0.81812  0.73665  1.0000
  C   C1376     1.0  0.86939  0.42443  0.51165  1.0000
  C   C1377     1.0  0.91121  0.42243  0.50645  1.0000
  C   C1378     1.0  0.88316  0.42285  0.50997  1.0000
  H   H1652     1.0  0.98636  0.56172  0.54306  1.0000
  H   H1653     1.0  0.88717  0.45112  0.51421  1.0000
  H   H1654     1.0  0.75266  0.39736  0.50799  1.0000
  H   H1655     1.0  0.75333  0.42038  0.56099  1.0000
  H   H1656     1.0  0.98623  0.56848  0.56872  1.0000
  H   H1657     1.0  0.74930  0.34926  0.57670  1.0000
  C   C1379     1.0  0.87097  0.35090  0.50156  1.0000
  C   C1380     1.0  0.88474  0.34910  0.49962  1.0000
  C   C1381     1.0  0.99267  0.56811  0.55451  1.0000
  C   C1382     1.0  0.86167  0.92913  0.74488  1.0000
  H   H1658     1.0  0.74863  0.32552  0.51503  1.0000
  H   H1659     1.0  0.99577  0.60215  0.55045  1.0000
  H   H1660     1.0  0.74722  0.96554  0.73343  1.0000
  H   H1661     1.0  0.98783  0.81190  0.77834  1.0000
  S   S374      1.0  0.75486  0.86442  0.85725  1.0000
  Fe  Fe187     1.0  0.97973  0.92077  0.84790  1.0000
  S   S375      1.0  0.97741  0.86999  0.87489  1.0000
  S   S376      1.0  0.96933  0.90489  0.82150  1.0000
  Fe  Fe188     1.0  0.97731  0.92536  0.89376  1.0000
  S   S377      1.0  0.96262  0.94168  0.92034  1.0000
  Fe  Fe189     1.0  0.75860  0.92682  0.86952  1.0000
  S   S378      1.0  0.97798  0.97746  0.86687  1.0000
  H   H1662     1.0  0.86815  0.93105  0.75629  1.0000
  H   H1663     1.0  0.97928  0.83792  0.99696  1.0000
  Fe  Fe190     1.0  0.77621  0.87789  0.90134  1.0000
  H   H1664     1.0  0.74973  0.76151  0.83993  1.0000
  S   S379      1.0  0.78702  0.87033  0.93013  1.0000
  Fe  Fe191     1.0  0.77678  0.84633  0.85834  1.0000
  H   H1665     1.0  0.83278  0.87464  0.95823  1.0000
  S   S380      1.0  0.79039  0.81171  0.83409  1.0000
  H   H1666     1.0  0.78569  0.72297  0.82916  1.0000
  H   H1667     1.0  0.98694  0.94104  0.94471  1.0000
  H   H1668     1.0  0.82417  0.90340  0.76875  1.0000
  C   C1383     1.0  0.76965  0.72157  0.86168  1.0000
  S   S381      1.0  0.78068  0.90961  0.86969  1.0000
  S   S382      1.0  0.77440  0.81250  0.89000  1.0000
  C   C1384     1.0  0.75976  0.80120  0.95103  1.0000
  N   N93       1.0  0.75039  0.82783  0.96421  1.0000
  C   C1385     1.0  0.79057  0.94754  0.98396  1.0000
  C   C1386     1.0  0.79482  0.90204  0.98433  1.0000
  C   C1387     1.0  0.79360  0.87925  0.96782  1.0000
  C   C1388     1.0  0.78775  0.90096  0.95084  1.0000
  C   C1389     1.0  0.78290  0.94585  0.95085  1.0000
  C   C1390     1.0  0.78442  0.96893  0.96718  1.0000
  H   H1669     1.0  0.76074  0.73333  0.87126  1.0000
  H   H1670     1.0  0.79728  0.84447  0.96818  1.0000
  H   H1671     1.0  0.77833  0.96324  0.93804  1.0000
  H   H1672     1.0  0.78096  0.00393  0.96666  1.0000
  C   C1391     1.0  0.79257  0.81325  0.76514  1.0000
  C   C1392     1.0  0.78251  0.83992  0.77523  1.0000
  C   C1393     1.0  0.78166  0.84001  0.79618  1.0000
  C   C1394     1.0  0.79090  0.81337  0.80748  1.0000
  C   C1395     1.0  0.80090  0.78641  0.79741  1.0000
  C   C1396     1.0  0.80173  0.78624  0.77647  1.0000
  H   H1673     1.0  0.77534  0.86100  0.76675  1.0000
  H   H1674     1.0  0.77390  0.86100  0.80354  1.0000
  H   H1675     1.0  0.80811  0.76550  0.80588  1.0000
  H   H1676     1.0  0.80951  0.76534  0.76910  1.0000
  C   C1397     1.0  0.94835  0.97828  0.76763  1.0000
  C   C1398     1.0  0.95230  0.00259  0.78190  1.0000
  C   C1399     1.0  0.95893  0.98101  0.79828  1.0000
  C   C1400     1.0  0.96159  0.93464  0.80070  1.0000
  C   C1401     1.0  0.95757  0.91038  0.78649  1.0000
  C   C1402     1.0  0.95108  0.93196  0.77003  1.0000
  H   H1677     1.0  0.95027  0.03840  0.78025  1.0000
  H   H1678     1.0  0.96195  0.00022  0.80901  1.0000
  H   H1679     1.0  0.95952  0.87452  0.78821  1.0000
  H   H1680     1.0  0.75569  0.67696  0.81252  1.0000
  C   C1403     1.0  0.95364  0.85459  0.97986  1.0000
  C   C1404     1.0  0.94856  0.89933  0.97712  1.0000
  C   C1405     1.0  0.95134  0.92534  0.95877  1.0000
  C   C1406     1.0  0.95931  0.90715  0.94301  1.0000
  C   C1407     1.0  0.96435  0.86239  0.94571  1.0000
  C   C1408     1.0  0.96143  0.83623  0.96397  1.0000
  S   S383      1.0  0.75450  0.89957  0.90168  1.0000
  H   H1681     1.0  0.94736  0.95990  0.95682  1.0000
  H   H1682     1.0  0.97050  0.84789  0.93373  1.0000
  H   H1683     1.0  0.96540  0.80163  0.96588  1.0000
  N   N94       1.0  0.83405  0.93812  0.98315  1.0000
  H   H1684     1.0  0.75593  0.65976  0.87709  1.0000
  H   H1685     1.0  0.75817  0.88841  0.95024  1.0000
  C   C1409     1.0  0.98611  0.91611  0.97591  1.0000
  C   C1410     1.0  0.82742  0.94330  0.96451  1.0000
  C   C1411     1.0  0.82778  0.90671  0.95335  1.0000
  C   C1412     1.0  0.82005  0.98353  0.95732  1.0000
  C   C1413     1.0  0.82124  0.91027  0.93607  1.0000
  C   C1414     1.0  0.81364  0.98678  0.93992  1.0000
  C   C1415     1.0  0.81422  0.95025  0.92935  1.0000
  C   C1416     1.0  0.75282  0.66137  0.82728  1.0000
  H   H1686     1.0  0.83833  0.00615  0.98187  1.0000
  H   H1687     1.0  0.76549  0.78055  0.83127  1.0000
  H   H1688     1.0  0.78356  0.66558  0.83708  1.0000
  Fe  Fe192     1.0  0.75283  0.83517  0.88957  1.0000
  H   H1689     1.0  0.75800  0.74866  0.81637  1.0000
  H   H1690     1.0  0.76216  0.82051  0.93629  1.0000
  C   C1417     1.0  0.82532  0.87291  0.76101  1.0000
  H   H1691     1.0  0.84776  0.89702  0.76521  1.0000
  C   C1418     1.0  0.99594  0.78315  0.80543  1.0000
  H   H1692     1.0  0.75571  0.77095  0.94770  1.0000
  H   H1693     1.0  0.82119  0.88151  0.92818  1.0000
  H   H1694     1.0  0.80776  0.01734  0.93502  1.0000
  H   H1695     1.0  0.80879  0.95236  0.91633  1.0000
  C   C1419     1.0  0.75319  0.65175  0.86316  1.0000
  C   C1420     1.0  0.84816  0.92115  0.97940  1.0000
  N   N95       1.0  0.93627  0.93681  0.86887  1.0000
  C   C1421     1.0  0.92240  0.93669  0.86459  1.0000
  C   C1422     1.0  0.93655  0.96773  0.88403  1.0000
  C   C1423     1.0  0.94393  0.95510  0.85048  1.0000
  C   C1424     1.0  0.94163  0.89058  0.87542  1.0000
  C   C1425     1.0  0.94453  0.85879  0.86156  1.0000
  C   C1426     1.0  0.94347  0.87509  0.89570  1.0000
  C   C1427     1.0  0.94943  0.81489  0.86750  1.0000
  C   C1428     1.0  0.94831  0.83105  0.90148  1.0000
  C   C1429     1.0  0.95136  0.80109  0.88740  1.0000
  H   H1696     1.0  0.91629  0.92317  0.87804  1.0000
  H   H1697     1.0  0.91789  0.97079  0.85962  1.0000
  H   H1698     1.0  0.92164  0.91566  0.85258  1.0000
  H   H1699     1.0  0.92993  0.95930  0.89770  1.0000
  H   H1700     1.0  0.93322  0.00270  0.87843  1.0000
  H   H1701     1.0  0.94677  0.96750  0.88834  1.0000
  H   H1702     1.0  0.94248  0.93915  0.83716  1.0000
  H   H1703     1.0  0.94114  0.99122  0.84643  1.0000
  H   H1704     1.0  0.95468  0.95052  0.85232  1.0000
  H   H1705     1.0  0.94328  0.86762  0.84592  1.0000
  H   H1706     1.0  0.94154  0.89645  0.90741  1.0000
  H   H1707     1.0  0.95201  0.79173  0.85650  1.0000
  H   H1708     1.0  0.94998  0.82040  0.91694  1.0000
  H   H1709     1.0  0.95543  0.76730  0.89189  1.0000
  S   S384      1.0  0.75241  0.99701  0.85565  1.0000
  C   C1430     1.0  0.77859  0.69750  0.83031  1.0000
  H   H1710     1.0  0.81568  0.85867  0.76380  1.0000
  H   H1711     1.0  0.97814  0.89690  0.97443  1.0000
  C   C1431     1.0  0.82752  0.90589  0.99801  1.0000
  H   H1712     1.0  0.77626  0.74864  0.85957  1.0000
  C   C1432     1.0  0.75953  0.75197  0.83203  1.0000
  H   H1713     1.0  0.81872  0.01263  0.96515  1.0000
  H   H1714     1.0  0.84947  0.88695  0.97501  1.0000
  N   N96       1.0  0.76613  0.71074  0.84232  1.0000
  H   H1715     1.0  0.82727  0.87331  0.99248  1.0000
  C   C1433     1.0  0.75612  0.86996  0.96531  1.0000
  H   H1716     1.0  0.77514  0.69259  0.86995  1.0000
  H   H1717     1.0  0.94246  0.91387  0.98911  1.0000
  H   H1718     1.0  0.85326  0.94317  0.96743  1.0000
  C   C1434     1.0  0.99414  0.78455  0.78532  1.0000
  H   H1719     1.0  0.83257  0.84766  0.76831  1.0000
  H   H1720     1.0  0.94811  0.91268  0.75927  1.0000
  H   H1721     1.0  0.76926  0.79087  0.95773  1.0000
  C   C1435     1.0  0.75739  0.67466  0.84441  1.0000
  H   H1722     1.0  0.76575  0.86359  0.97190  1.0000
  H   H1723     1.0  0.79917  0.88437  0.99724  1.0000
  H   H1724     1.0  0.77698  0.69341  0.81476  1.0000
  H   H1725     1.0  0.74933  0.89291  0.97414  1.0000
  H   H1726     1.0  0.85348  0.91926  0.99306  1.0000
  C   C1436     1.0  0.83359  0.98018  0.99224  1.0000
  C   C1437     1.0  0.99118  0.91583  0.99457  1.0000
  C   C1438     1.0  0.99105  0.94159  0.95879  1.0000
  H   H1727     1.0  0.82324  0.99333  0.99680  1.0000
  H   H1728     1.0  0.99108  0.80925  0.81397  1.0000
  C   C1439     1.0  0.74785  0.80164  0.98390  1.0000
  C   C1440     1.0  0.84989  0.90945  0.74976  1.0000
