data_image0
_chemical_formula_structural       H4FeSHSHS2FeSFeSC8H2C6H4C5H3C6H6C2NCHCFeH2FeHCH2NC3H2SH3CH6CHC4NCHCH2CH2CHCH2S2HC2HSHS2HCHCNCH8C3HC2HC2FeCSH2SCFeHCH4CHCHCSHC2H2CH2FeH3C2SC2FeCH2NSH4C2FeHC2SHSCHSH2C2HCHC2FeHCH6S2FeSFeSH5CFeSCSHSFeSCHCHSH3CFeS2C7H9C2HCH2C6H4CH2NC9H15CSH3CHCHSCNFeH2C2SCHCHSC3HNCHCSCHCHC2H2CH3CH2C2H2FeH5FeCHS2FeSFeS2FeSFeS3FeS2FeS2Fe2S5H2C5H3C6H4C2HNHCH3C6H4C6H4NC5H3C5H4C2HCHC2HSCH2N2CH5CHNH2CH3CHC5H2CH3CFeH3CSCH2C2HC4HCH4CH2CHCH2C3HSHC2H3CH2CH4CH4CFeN2H4CNH2C2H3C2HC2H2CSHC2H3CHSH2C3HC2HC2HCHCH3CSH5CH3SC3HFe2H2FeS2FeS2FeSFeS3CSFeSFeS2FeS2FeSFeS3FeS4C6H6C4H3C6H4C6H4C6H4C6H3CFeC6H3NC9H17SCHC2H2CH2CSH2C2HCNCHC2NC2NCHC2H6CFeCH6CH2C2HC3H2NH4CH6NH3CNH2CHCHCHCH6CHCH7C2HCH3CNH3CHCHFeCH3C2SH2CFeH3FeSFeS3H2C3H5CHCHFeC2H4SH3C2H2NC4SCS2CH3CH4C6HC4SCHC2NH2CH3CSHSC4H2CHFeSH2SHC2FeCSHCHCFeHSHCH2C2H2C2HC2H3C2H3CSC3HCHCHCH2NCHC4H6CHCH2C2HC5FeSHSHC4NH2CHC2NC3H3SH5CHC2SH2CHFeS2FeS2FeSFeS3CSFeS2H2FeS2FeSHFeSFeS4C2HSC6H4C6NH6NCHC6H4C6H4CHNCHC8H5C2FeH5CH4SHCHCFeH9C3HCH3C2HCHCNH2NC9H13SH4NC6HCH10CSH5FeH2C2SC2Fe2S2FeSHFe2S3FeS2Fe2S2HSCFeS2FeS2CSFeS2FeS2Fe2S3C6H4C6H6CH2CH2C2HC6H4C6H4C6H6CH3CNC4HCFeHSH4CH2C2H2CHC2HC4H3SCHC2H2C2HFeHCHCH4NFeH2CSNC6H11CHNSHC5HCHC3H10SH3CSC2HSCH3CH4C2H2C3HSCH2CHCHCH3C2FeSCSHSHCSCHS2FeSFeSH5C2HC6H5CHC2HC6H4C2H2CH2CH3CHCHC3SNC9H3CH10CHCHC4HCFeH4CH2CHNHNHNCH2C3H2CHSH2CHCHCHC2HCH8CHCH2CHNH2SH3C4H2CHCH2CH2C2HCH2CHCH3S2FeSFeSFe2S2HSC3FeS2C2SFe2S2C6H4C6H4C6H4C6H5SH4C2HCSHSC4H2C2FeHSH4CHCHCH2SHNCHNCHCFeCH2C3H2CHCHCH2CSC2H5C2FeHCNHCHCSCHC2HCFeCH2CH3CHCH3NC2H4SH2C
_chemical_formula_sum              "H864 Fe96 S192 C720 N48"
_cell_length_a       63.5224
_cell_length_b       51.0653
_cell_length_c       33.3683
_cell_angle_alpha    89.959
_cell_angle_beta     90.1159
_cell_angle_gamma    90.1756

_space_group_name_H-M_alt    "P 1"
_space_group_IT_number       1

loop_
  _space_group_symop_operation_xyz
  'x, y, z'

loop_
  _atom_site_type_symbol
  _atom_site_label
  _atom_site_symmetry_multiplicity
  _atom_site_fract_x
  _atom_site_fract_y
  _atom_site_fract_z
  _atom_site_occupancy
  H   H1        1.0  0.03629  0.23679  0.09029  1.0000
  H   H2        1.0  0.30506  0.47069  0.16671  1.0000
  H   H3        1.0  0.20705  0.38251  0.01264  1.0000
  H   H4        1.0  0.24147  0.10849  0.02999  1.0000
  Fe  Fe1       1.0  0.11040  0.48306  0.11960  1.0000
  S   S1        1.0  0.08930  0.44838  0.10259  1.0000
  H   H5        1.0  0.32920  0.48728  0.46754  1.0000
  S   S2        1.0  0.13904  0.47995  0.15883  1.0000
  H   H6        1.0  0.31209  0.47142  0.05957  1.0000
  S   S3        1.0  0.14725  0.03299  0.17613  1.0000
  S   S4        1.0  0.12660  0.02160  0.08723  1.0000
  Fe  Fe2       1.0  0.15915  0.02979  0.11256  1.0000
  S   S5        1.0  0.17939  0.06136  0.08181  1.0000
  Fe  Fe3       1.0  0.11546  0.02144  0.15113  1.0000
  S   S6        1.0  0.08480  0.03749  0.17769  1.0000
  C   C1        1.0  0.29254  0.25855  0.00840  1.0000
  C   C2        1.0  0.20659  0.06352  0.06851  1.0000
  C   C3        1.0  0.21445  0.08731  0.05311  1.0000
  C   C4        1.0  0.14707  0.01413  0.32673  1.0000
  C   C5        1.0  0.24949  0.06872  0.04459  1.0000
  C   C6        1.0  0.24157  0.04479  0.05951  1.0000
  C   C7        1.0  0.22035  0.04223  0.07169  1.0000
  C   C8        1.0  0.16385  0.41331  0.12751  1.0000
  H   H7        1.0  0.09733  0.01515  0.36613  1.0000
  H   H8        1.0  0.21466  0.02385  0.08369  1.0000
  C   C9        1.0  0.03283  0.09039  0.12434  1.0000
  C   C10       1.0  0.02937  0.07599  0.15941  1.0000
  C   C11       1.0  0.04536  0.05973  0.17497  1.0000
  C   C12       1.0  0.06488  0.05725  0.15538  1.0000
  C   C13       1.0  0.06821  0.07128  0.11991  1.0000
  C   C14       1.0  0.05234  0.08791  0.10472  1.0000
  H   H9        1.0  0.01451  0.07773  0.17496  1.0000
  H   H10       1.0  0.04259  0.04904  0.20246  1.0000
  H   H11       1.0  0.08315  0.06974  0.10461  1.0000
  H   H12       1.0  0.05525  0.09900  0.07766  1.0000
  C   C15       1.0  0.09118  0.03142  0.29492  1.0000
  C   C16       1.0  0.19946  0.46184  0.02687  1.0000
  C   C17       1.0  0.20499  0.46259  0.06748  1.0000
  C   C18       1.0  0.22304  0.44897  0.08022  1.0000
  C   C19       1.0  0.23552  0.43490  0.05279  1.0000
  H   H13       1.0  0.03208  0.19476  0.06918  1.0000
  H   H14       1.0  0.22739  0.44931  0.11157  1.0000
  H   H15       1.0  0.24909  0.42411  0.06302  1.0000
  C   C20       1.0  0.02327  0.42627  0.14995  1.0000
  C   C21       1.0  0.03080  0.41594  0.11391  1.0000
  C   C22       1.0  0.05090  0.42320  0.09963  1.0000
  C   C23       1.0  0.06354  0.44126  0.12068  1.0000
  C   C24       1.0  0.05580  0.45207  0.15622  1.0000
  C   C25       1.0  0.03589  0.44439  0.17094  1.0000
  H   H16       1.0  0.02136  0.40191  0.09750  1.0000
  H   H17       1.0  0.05673  0.41467  0.07216  1.0000
  H   H18       1.0  0.06536  0.46588  0.17285  1.0000
  H   H19       1.0  0.03028  0.45249  0.19886  1.0000
  H   H20       1.0  0.27076  0.43921  0.11887  1.0000
  H   H21       1.0  0.13662  0.35741  0.06420  1.0000
  C   C26       1.0  0.31046  0.47985  0.09011  1.0000
  C   C27       1.0  0.27259  0.48705  0.08749  1.0000
  N   N1        1.0  0.11396  0.02593  0.28942  1.0000
  C   C28       1.0  0.16103  0.38798  0.06609  1.0000
  H   H22       1.0  0.31747  0.20167  0.08035  1.0000
  C   C29       1.0  0.25379  0.49624  0.02458  1.0000
  Fe  Fe4       1.0  0.29748  0.10557  0.01160  1.0000
  H   H23       1.0  0.13245  0.00022  0.25202  1.0000
  H   H24       1.0  0.28091  0.25660  0.03187  1.0000
  Fe  Fe5       1.0  0.32163  0.40305  0.02584  1.0000
  H   H25       1.0  0.25204  0.02821  0.06225  1.0000
  C   C30       1.0  0.23574  0.08998  0.04147  1.0000
  H   H26       1.0  0.29161  0.30098  0.00867  1.0000
  H   H27       1.0  0.16897  0.39534  0.14361  1.0000
  N   N2        1.0  0.15016  0.40675  0.09277  1.0000
  C   C31       1.0  0.14562  0.43106  0.07014  1.0000
  C   C32       1.0  0.12985  0.39680  0.10892  1.0000
  C   C33       1.0  0.15765  0.00521  0.36084  1.0000
  H   H28       1.0  0.10750  0.00893  0.23165  1.0000
  H   H29       1.0  0.16715  0.01698  0.03798  1.0000
  S   S7        1.0  0.01382  0.11265  0.10490  1.0000
  H   H30       1.0  0.08864  0.04735  0.31712  1.0000
  H   H31       1.0  0.32392  0.21818  0.12590  1.0000
  H   H32       1.0  0.27722  0.47404  0.16889  1.0000
  C   C34       1.0  0.03195  0.18765  0.10071  1.0000
  H   H33       1.0  0.13642  0.44507  0.08850  1.0000
  H   H34       1.0  0.15555  0.32822  0.01969  1.0000
  H   H35       1.0  0.13202  0.37841  0.12629  1.0000
  H   H36       1.0  0.12240  0.41123  0.12959  1.0000
  H   H37       1.0  0.15630  0.01665  0.29975  1.0000
  H   H38       1.0  0.15567  0.42616  0.14943  1.0000
  C   C35       1.0  0.12496  0.01822  0.32677  1.0000
  H   H39       1.0  0.11805  0.39358  0.08467  1.0000
  C   C36       1.0  0.32621  0.21878  0.09289  1.0000
  C   C37       1.0  0.12370  0.04989  0.27219  1.0000
  C   C38       1.0  0.19169  0.37713  0.02447  1.0000
  C   C39       1.0  0.28637  0.44477  0.10636  1.0000
  N   N3        1.0  0.28987  0.47344  0.10885  1.0000
  C   C40       1.0  0.11414  0.01290  0.36320  1.0000
  H   H40       1.0  0.08363  0.03788  0.26633  1.0000
  C   C41       1.0  0.18116  0.39415  0.05030  1.0000
  H   H41       1.0  0.12351  0.06629  0.29411  1.0000
  H   H42       1.0  0.18566  0.47223  0.01655  1.0000
  C   C42       1.0  0.16004  0.00737  0.01128  1.0000
  H   H43       1.0  0.17822  0.42438  0.11865  1.0000
  H   H44       1.0  0.29863  0.43368  0.12318  1.0000
  C   C43       1.0  0.29141  0.48049  0.15196  1.0000
  H   H45       1.0  0.17443  0.00140  0.35958  1.0000
  C   C44       1.0  0.00926  0.22359  0.12617  1.0000
  H   H46       1.0  0.11524  0.05650  0.24463  1.0000
  H   H47       1.0  0.18889  0.41234  0.05759  1.0000
  S   S8        1.0  0.31094  0.13802  0.05010  1.0000
  S   S9        1.0  0.19013  0.48005  0.10378  1.0000
  H   H48       1.0  0.16019  0.44152  0.06082  1.0000
  C   C45       1.0  0.27038  0.48444  0.04534  1.0000
  C   C46       1.0  0.02277  0.24235  0.10780  1.0000
  H   H49       1.0  0.28700  0.43753  0.07494  1.0000
  S   S10       1.0  0.27636  0.07054  0.02889  1.0000
  H   H50       1.0  0.08234  0.01363  0.30441  1.0000
  S   S11       1.0  0.29476  0.37404  0.02249  1.0000
  S   S12       1.0  0.29313  0.20468  0.00918  1.0000
  H   H51       1.0  0.28104  0.47248  0.02821  1.0000
  C   C47       1.0  0.12489  0.00376  0.39708  1.0000
  H   H52       1.0  0.03381  0.16593  0.09895  1.0000
  C   C48       1.0  0.11580  0.00434  0.26006  1.0000
  N   N4        1.0  0.01220  0.19498  0.12166  1.0000
  C   C49       1.0  0.23022  0.43445  0.01215  1.0000
  H   H53       1.0  0.14028  0.04681  0.26286  1.0000
  H   H54       1.0  0.04606  0.19534  0.11672  1.0000
  H   H55       1.0  0.01530  0.16061  0.15910  1.0000
  H   H56       1.0  0.31816  0.23633  0.08027  1.0000
  H   H57       1.0  0.13618  0.42692  0.04271  1.0000
  H   H58       1.0  0.20401  0.10393  0.05044  1.0000
  H   H59       1.0  0.20108  0.01979  0.99982  1.0000
  H   H60       1.0  0.02540  0.19044  0.18070  1.0000
  C   C50       1.0  0.18249  0.35340  0.01362  1.0000
  C   C51       1.0  0.01264  0.18215  0.16161  1.0000
  C   C52       1.0  0.01878  0.26923  0.11090  1.0000
  H   H61       1.0  0.32391  0.47148  0.10735  1.0000
  C   C53       1.0  0.15197  0.36368  0.05419  1.0000
  C   C54       1.0  0.16268  0.34668  0.02842  1.0000
  H   H62       1.0  0.02891  0.28326  0.09592  1.0000
  C   C55       1.0  0.00147  0.27819  0.13239  1.0000
  C   C56       1.0  0.21198  0.44773  0.99945  1.0000
  Fe  Fe6       1.0  0.15721  0.49832  0.10839  1.0000
  C   C57       1.0  0.14657  0.99978  0.39582  1.0000
  S   S13       1.0  0.12896  0.49891  0.06726  1.0000
  H   H63       1.0  0.11634  0.99921  0.42431  1.0000
  H   H64       1.0  0.31781  0.05873  0.91845  1.0000
  S   S14       1.0  0.29418  0.38582  0.92497  1.0000
  C   C58       1.0  0.28910  0.03811  0.86444  1.0000
  Fe  Fe7       1.0  0.31139  0.35873  0.96734  1.0000
  H   H65       1.0  0.29599  0.01933  0.75114  1.0000
  C   C59       1.0  0.29394  0.02417  0.78253  1.0000
  H   H66       1.0  0.31133  0.41883  0.82388  1.0000
  H   H67       1.0  0.27191  0.48451  0.65977  1.0000
  H   H68       1.0  0.25454  0.49320  0.71950  1.0000
  H   H69       1.0  0.31172  0.42587  0.75025  1.0000
  C   C60       1.0  0.32219  0.26395  0.94754  1.0000
  H   H70       1.0  0.32299  0.22152  0.94704  1.0000
  C   C61       1.0  0.27763  0.07259  0.90960  1.0000
  H   H71       1.0  0.15271  0.02322  0.99324  1.0000
  C   C62       1.0  0.33017  0.36403  0.85434  1.0000
  S   S15       1.0  0.29079  0.13239  0.95972  1.0000
  H   H72       1.0  0.20759  0.44724  0.96811  1.0000
  C   C63       1.0  0.29857  0.28377  0.99531  1.0000
  C   C64       1.0  0.33087  0.08928  0.79632  1.0000
  H   H73       1.0  0.29893  0.47552  0.66667  1.0000
  H   H74       1.0  0.26141  0.03461  0.77593  1.0000
  C   C65       1.0  0.31336  0.28661  0.96460  1.0000
  H   H75       1.0  0.25207  0.49315  0.99258  1.0000
  H   H76       1.0  0.31882  0.10259  0.78594  1.0000
  Fe  Fe8       1.0  0.32103  0.41389  0.93412  1.0000
  H   H77       1.0  0.30304  0.05078  0.96258  1.0000
  H   H78       1.0  0.01240  0.04950  0.92925  1.0000
  H   H79       1.0  0.32265  0.02748  0.86737  1.0000
  C   C66       1.0  0.19244  0.01056  0.97429  1.0000
  C   C67       1.0  0.30583  0.04491  0.93086  1.0000
  S   S16       1.0  0.32959  0.09394  0.98818  1.0000
  C   C68       1.0  0.27453  0.03282  0.79657  1.0000
  C   C69       1.0  0.31621  0.23874  0.96072  1.0000
  Fe  Fe9       1.0  0.27975  0.40353  0.98068  1.0000
  C   C70       1.0  0.27204  0.03949  0.83695  1.0000
  H   H80       1.0  0.15642  0.01568  0.92422  1.0000
  H   H81       1.0  0.27649  0.47434  0.83712  1.0000
  N   N5        1.0  0.28609  0.04558  0.90696  1.0000
  S   S17       1.0  0.32491  0.11311  0.86969  1.0000
  H   H82       1.0  0.28808  0.08676  0.89382  1.0000
  H   H83       1.0  0.26166  0.07451  0.89651  1.0000
  H   H84       1.0  0.32790  0.38506  0.86175  1.0000
  H   H85       1.0  0.18591  0.02719  0.95683  1.0000
  C   C71       1.0  0.27940  0.48270  0.80774  1.0000
  C   C72       1.0  0.26344  0.48325  0.77905  1.0000
  Fe  Fe10      1.0  0.32333  0.12189  0.93753  1.0000
  H   H86       1.0  0.25668  0.04603  0.84644  1.0000
  C   C73       1.0  0.32319  0.43133  0.81066  1.0000
  C   C74       1.0  0.30126  0.23590  0.99116  1.0000
  S   S18       1.0  0.24524  0.41646  0.97668  1.0000
  H   H87       1.0  0.26856  0.03237  0.95849  1.0000
  S   S19       1.0  0.32122  0.31784  0.94611  1.0000
  C   C75       1.0  0.27089  0.02743  0.92617  1.0000
  H   H88       1.0  0.24804  0.47539  0.78636  1.0000
  S   S20       1.0  0.30565  0.43326  0.98704  1.0000
  H   H89       1.0  0.27621  0.07916  0.94131  1.0000
  H   H90       1.0  0.25512  0.02826  0.91182  1.0000
  C   C76       1.0  0.32335  0.43553  0.76882  1.0000
  C   C77       1.0  0.29924  0.49257  0.79846  1.0000
  H   H91       1.0  0.31266  0.02491  0.93225  1.0000
  C   C78       1.0  0.28826  0.49226  0.65988  1.0000
  H   H92       1.0  0.32376  0.35234  0.87971  1.0000
  C   C79       1.0  0.26732  0.49354  0.74088  1.0000
  C   C80       1.0  0.31087  0.02200  0.80884  1.0000
  Fe  Fe11      1.0  0.30666  0.16414  0.99594  1.0000
  H   H93       1.0  0.31174  0.49164  0.82066  1.0000
  C   C81       1.0  0.30865  0.02897  0.84914  1.0000
  H   H94       1.0  0.32601  0.01542  0.79768  1.0000
  H   H95       1.0  0.19073  0.34027  0.99354  1.0000
  H   H96       1.0  0.27655  0.00685  0.92458  1.0000
  H   H97       1.0  0.32016  0.35954  0.82791  1.0000
  H   H98       1.0  0.29170  0.49884  0.62874  1.0000
  H   H99       1.0  0.20411  0.00022  0.95525  1.0000
  S   S21       1.0  0.15185  0.53956  0.13109  1.0000
  S   S22       1.0  0.10208  0.52246  0.14469  1.0000
  Fe  Fe12      1.0  0.12188  0.53834  0.09384  1.0000
  S   S23       1.0  0.10561  0.57147  0.05957  1.0000
  Fe  Fe13      1.0  0.13254  0.52105  0.18013  1.0000
  S   S24       1.0  0.13710  0.52578  0.24845  1.0000
  H   H100      1.0  0.08669  0.66041  0.07228  1.0000
  H   H101      1.0  0.15473  0.99182  0.42166  1.0000
  H   H102      1.0  0.09860  0.60101  0.38139  1.0000
  H   H103      1.0  0.28348  0.83534  0.45862  1.0000
  H   H104      1.0  0.06989  0.50239  0.04021  1.0000
  C   C82       1.0  0.23883  0.51084  0.04516  1.0000
  Fe  Fe14      1.0  0.18067  0.61650  0.43383  1.0000
  S   S25       1.0  0.16944  0.61611  0.36817  1.0000
  C   C83       1.0  0.24041  0.51369  0.08655  1.0000
  S   S26       1.0  0.21262  0.63186  0.45351  1.0000
  H   H105      1.0  0.19777  0.96118  0.00166  1.0000
  S   S27       1.0  0.17283  0.97239  0.23421  1.0000
  Fe  Fe15      1.0  0.13458  0.97923  0.09764  1.0000
  S   S28       1.0  0.13014  0.94485  0.05472  1.0000
  C   C84       1.0  0.32946  0.50632  0.48373  1.0000
  H   H106      1.0  0.07434  0.59599  0.00998  1.0000
  C   C85       1.0  0.11124  0.53596  0.38164  1.0000
  H   H107      1.0  0.30372  0.53614  0.43667  1.0000
  S   S29       1.0  0.18973  0.80693  0.44322  1.0000
  H   H108      1.0  0.31360  0.50909  0.49713  1.0000
  H   H109      1.0  0.31285  0.50139  0.08790  1.0000
  H   H110      1.0  0.10857  0.51108  0.32948  1.0000
  C   C86       1.0  0.12521  0.54665  0.46147  1.0000
  Fe  Fe16      1.0  0.18052  0.90368  0.45690  1.0000
  S   S30       1.0  0.16025  0.92664  0.41186  1.0000
  S   S31       1.0  0.20884  0.87918  0.44217  1.0000
  C   C87       1.0  0.09379  0.65892  0.04284  1.0000
  C   C88       1.0  0.16429  0.93712  0.36134  1.0000
  C   C89       1.0  0.14664  0.94169  0.33670  1.0000
  C   C90       1.0  0.14893  0.95166  0.29743  1.0000
  C   C91       1.0  0.16890  0.95803  0.28258  1.0000
  C   C92       1.0  0.18658  0.95279  0.30686  1.0000
  C   C93       1.0  0.18434  0.94224  0.34583  1.0000
  H   H111      1.0  0.13105  0.93771  0.34818  1.0000
  H   H112      1.0  0.13527  0.95436  0.27870  1.0000
  H   H113      1.0  0.20214  0.95732  0.29565  1.0000
  H   H114      1.0  0.19810  0.93896  0.36430  1.0000
  H   H115      1.0  0.11757  0.51991  0.39884  1.0000
  H   H116      1.0  0.12341  0.60897  0.42654  1.0000
  H   H117      1.0  0.11050  0.98611  0.00602  1.0000
  H   H118      1.0  0.22819  0.52416  0.10257  1.0000
  H   H119      1.0  0.24014  0.73339  0.41102  1.0000
  C   C94       1.0  0.18907  0.75298  0.44498  1.0000
  C   C95       1.0  0.19127  0.72806  0.46282  1.0000
  H   H120      1.0  0.14426  0.58590  0.42132  1.0000
  C   C96       1.0  0.04219  0.51100  0.00526  1.0000
  H   H121      1.0  0.18511  0.75437  0.41351  1.0000
  H   H122      1.0  0.18910  0.71054  0.44505  1.0000
  C   C97       1.0  0.14784  0.55101  0.27979  1.0000
  C   C98       1.0  0.14840  0.57736  0.26818  1.0000
  C   C99       1.0  0.15521  0.59685  0.29546  1.0000
  C   C100      1.0  0.16172  0.59039  0.33466  1.0000
  C   C101      1.0  0.16155  0.56398  0.34602  1.0000
  C   C102      1.0  0.15460  0.54453  0.31883  1.0000
  H   H123      1.0  0.14316  0.58280  0.23847  1.0000
  H   H124      1.0  0.15530  0.61714  0.28617  1.0000
  H   H125      1.0  0.16672  0.55850  0.37573  1.0000
  H   H126      1.0  0.15428  0.52427  0.32824  1.0000
  C   C103      1.0  0.25595  0.77956  0.47988  1.0000
  H   H127      1.0  0.08845  0.59401  0.44891  1.0000
  H   H128      1.0  0.24169  0.70493  0.47083  1.0000
  N   N6        1.0  0.15478  0.85514  0.34353  1.0000
  C   C104      1.0  0.15326  0.82630  0.33877  1.0000
  C   C105      1.0  0.17532  0.86089  0.36298  1.0000
  C   C106      1.0  0.13797  0.86394  0.37124  1.0000
  C   C107      1.0  0.15213  0.86812  0.30410  1.0000
  C   C108      1.0  0.16785  0.88447  0.28673  1.0000
  C   C109      1.0  0.13319  0.86478  0.28196  1.0000
  C   C110      1.0  0.16463  0.89665  0.24965  1.0000
  C   C111      1.0  0.13010  0.87722  0.24504  1.0000
  C   C112      1.0  0.14578  0.89320  0.22900  1.0000
  H   H129      1.0  0.16516  0.81908  0.31697  1.0000
  H   H130      1.0  0.15610  0.81591  0.36774  1.0000
  H   H131      1.0  0.13751  0.81990  0.32800  1.0000
  H   H132      1.0  0.18876  0.85396  0.34454  1.0000
  H   H133      1.0  0.17673  0.85090  0.39253  1.0000
  H   H134      1.0  0.17726  0.88221  0.36889  1.0000
  H   H135      1.0  0.12205  0.85755  0.36151  1.0000
  H   H136      1.0  0.14031  0.85614  0.40214  1.0000
  H   H137      1.0  0.13773  0.88569  0.37349  1.0000
  H   H138      1.0  0.18262  0.88870  0.30144  1.0000
  H   H139      1.0  0.12053  0.85270  0.29326  1.0000
  H   H140      1.0  0.17663  0.90952  0.23731  1.0000
  H   H141      1.0  0.11542  0.87465  0.22884  1.0000
  H   H142      1.0  0.14328  0.90318  0.20066  1.0000
  H   H143      1.0  0.07241  0.68576  0.01704  1.0000
  C   C113      1.0  0.09839  0.55014  0.31679  1.0000
  S   S32       1.0  0.16290  0.87019  0.48622  1.0000
  H   H144      1.0  0.23872  0.81990  0.43614  1.0000
  H   H145      1.0  0.03149  0.50407  0.02829  1.0000
  H   H146      1.0  0.08405  0.56032  0.46202  1.0000
  C   C114      1.0  0.25699  0.50203  0.10762  1.0000
  H   H147      1.0  0.31718  0.51206  0.40836  1.0000
  C   C115      1.0  0.09599  0.57632  0.46191  1.0000
  H   H148      1.0  0.27593  0.81009  0.42448  1.0000
  S   S33       1.0  0.12131  0.97812  0.16020  1.0000
  C   C116      1.0  0.31953  0.53074  0.42481  1.0000
  N   N7        1.0  0.11501  0.56847  0.43928  1.0000
  Fe  Fe17      1.0  0.19199  0.84656  0.47459  1.0000
  H   H149      1.0  0.25686  0.50456  0.13971  1.0000
  H   H150      1.0  0.11653  0.63028  0.06198  1.0000
  C   C117      1.0  0.10909  0.56166  0.39757  1.0000
  C   C118      1.0  0.10081  0.58108  0.37147  1.0000
  S   S34       1.0  0.16758  0.98739  0.11945  1.0000
  C   C119      1.0  0.24610  0.72544  0.47311  1.0000
  H   H151      1.0  0.19423  0.98408  0.04175  1.0000
  C   C120      1.0  0.18593  0.97365  0.01694  1.0000
  H   H152      1.0  0.24884  0.77986  0.41577  1.0000
  S   S35       1.0  0.18193  0.58195  0.47525  1.0000
  C   C121      1.0  0.13007  0.59070  0.43927  1.0000
  C   C122      1.0  0.27912  0.81419  0.45664  1.0000
  C   C123      1.0  0.10395  0.57561  0.00682  1.0000
  H   H153      1.0  0.13986  0.54011  0.44614  1.0000
  N   N8        1.0  0.26079  0.80793  0.48241  1.0000
  C   C124      1.0  0.08568  0.67332  0.01062  1.0000
  H   H154      1.0  0.13531  0.59566  0.47018  1.0000
  C   C125      1.0  0.11627  0.94461  0.00844  1.0000
  S   S36       1.0  0.16277  0.64168  0.47804  1.0000
  C   C126      1.0  0.25007  0.76817  0.44265  1.0000
  H   H155      1.0  0.31802  0.55691  0.49203  1.0000
  C   C127      1.0  0.09577  0.57539  0.33160  1.0000
  H   H156      1.0  0.22553  0.51913  0.02926  1.0000
  C   C128      1.0  0.19207  0.77601  0.46745  1.0000
  C   C129      1.0  0.24244  0.82325  0.46827  1.0000
  H   H157      1.0  0.10875  0.98595  0.27193  1.0000
  H   H158      1.0  0.29313  0.80248  0.46559  1.0000
  C   C130      1.0  0.11072  0.64206  0.03724  1.0000
  H   H159      1.0  0.29359  0.50197  0.15591  1.0000
  H   H160      1.0  0.17403  0.96079  0.03177  1.0000
  H   H161      1.0  0.14718  0.99431  0.02192  1.0000
  C   C131      1.0  0.06381  0.50997  0.01205  1.0000
  H   H162      1.0  0.09526  0.54594  0.28545  1.0000
  H   H163      1.0  0.11440  0.52966  0.46517  1.0000
  C   C132      1.0  0.24518  0.74153  0.43948  1.0000
  C   C133      1.0  0.10591  0.53045  0.34181  1.0000
  H   H164      1.0  0.24504  0.84472  0.47175  1.0000
  H   H165      1.0  0.22811  0.81783  0.48548  1.0000
  Fe  Fe18      1.0  0.15360  0.98963  0.18166  1.0000
  H   H166      1.0  0.32424  0.54601  0.40271  1.0000
  H   H167      1.0  0.09031  0.59074  0.31172  1.0000
  H   H168      1.0  0.11918  0.90279  0.00173  1.0000
  H   H169      1.0  0.13001  0.55266  0.49233  1.0000
  H   H170      1.0  0.09988  0.58110  0.49374  1.0000
  Fe  Fe19      1.0  0.21270  0.59848  0.49817  1.0000
  C   C134      1.0  0.11971  0.63957  0.99944  1.0000
  H   H171      1.0  0.20575  0.90966  0.60135  1.0000
  S   S37       1.0  0.14037  0.58916  0.55865  1.0000
  S   S38       1.0  0.19683  0.62186  0.54641  1.0000
  Fe  Fe20      1.0  0.03494  0.60459  0.79399  1.0000
  S   S39       1.0  0.04459  0.62325  0.85237  1.0000
  Fe  Fe21      1.0  0.07004  0.63364  0.74657  1.0000
  S   S40       1.0  0.08229  0.65360  0.80205  1.0000
  S   S41       1.0  0.08357  0.64847  0.68719  1.0000
  Fe  Fe22      1.0  0.07772  0.61489  0.83341  1.0000
  S   S42       1.0  0.10341  0.59713  0.87262  1.0000
  Fe  Fe23      1.0  0.04837  0.66059  0.81652  1.0000
  S   S43       1.0  0.03599  0.69960  0.83933  1.0000
  S   S44       1.0  0.06830  0.59418  0.77654  1.0000
  S   S45       1.0  0.03593  0.64262  0.75955  1.0000
  Fe  Fe24      1.0  0.06927  0.85019  0.82397  1.0000
  S   S46       1.0  0.04672  0.85900  0.77393  1.0000
  S   S47       1.0  0.08359  0.80957  0.83239  1.0000
  Fe  Fe25      1.0  0.07486  0.90856  0.84489  1.0000
  S   S48       1.0  0.05349  0.92109  0.79427  1.0000
  S   S49       1.0  0.08613  0.94318  0.88280  1.0000
  Fe  Fe26      1.0  0.03222  0.88887  0.81528  1.0000
  Fe  Fe27      1.0  0.06999  0.89048  0.75716  1.0000
  S   S50       1.0  0.07796  0.89484  0.69079  1.0000
  S   S51       1.0  0.05297  0.87722  0.86742  1.0000
  S   S52       1.0  0.09316  0.88083  0.80562  1.0000
  S   S53       1.0  0.16794  0.88031  0.60889  1.0000
  S   S54       1.0  0.20648  0.85672  0.53374  1.0000
  H   H172      1.0  0.15584  0.93040  0.69187  1.0000
  H   H173      1.0  0.01141  0.51642  0.89921  1.0000
  C   C135      1.0  0.27085  0.92178  0.53622  1.0000
  C   C136      1.0  0.30322  0.93917  0.56677  1.0000
  C   C137      1.0  0.29417  0.96404  0.56996  1.0000
  C   C138      1.0  0.27349  0.96764  0.55570  1.0000
  C   C139      1.0  0.26196  0.94673  0.53864  1.0000
  H   H174      1.0  0.17559  0.63879  0.62167  1.0000
  H   H175      1.0  0.01305  0.98300  0.98483  1.0000
  H   H176      1.0  0.26641  0.98684  0.55760  1.0000
  C   C140      1.0  0.10314  0.89090  0.66866  1.0000
  C   C141      1.0  0.12064  0.88282  0.69092  1.0000
  C   C142      1.0  0.14024  0.87933  0.67193  1.0000
  C   C143      1.0  0.14261  0.88394  0.63059  1.0000
  C   C144      1.0  0.12508  0.89175  0.60824  1.0000
  C   C145      1.0  0.10545  0.89515  0.62722  1.0000
  H   H177      1.0  0.11910  0.87934  0.72276  1.0000
  H   H178      1.0  0.15371  0.87325  0.68947  1.0000
  H   H179      1.0  0.12665  0.89537  0.57644  1.0000
  H   H180      1.0  0.09198  0.90128  0.60971  1.0000
  C   C146      1.0  0.09684  0.94282  0.93194  1.0000
  C   C147      1.0  0.10364  0.91972  0.95029  1.0000
  H   H181      1.0  0.24900  0.95640  0.66922  1.0000
  N   N9        1.0  0.29126  0.51373  0.68928  1.0000
  H   H182      1.0  0.16308  0.73266  0.63162  1.0000
  C   C148      1.0  0.09928  0.96669  0.95247  1.0000
  H   H183      1.0  0.10187  0.90122  0.93485  1.0000
  H   H184      1.0  0.32494  0.50897  0.68821  1.0000
  H   H185      1.0  0.09404  0.98466  0.93852  1.0000
  C   C149      1.0  0.04920  0.73007  0.83421  1.0000
  C   C150      1.0  0.07076  0.73155  0.82598  1.0000
  C   C151      1.0  0.08100  0.75607  0.82513  1.0000
  C   C152      1.0  0.06973  0.77938  0.83150  1.0000
  C   C153      1.0  0.04806  0.77795  0.83839  1.0000
  C   C154      1.0  0.03792  0.75338  0.84023  1.0000
  H   H186      1.0  0.07959  0.71381  0.82092  1.0000
  H   H187      1.0  0.09776  0.75701  0.81964  1.0000
  H   H188      1.0  0.03921  0.79570  0.84350  1.0000
  H   H189      1.0  0.02123  0.75244  0.84662  1.0000
  C   C155      1.0  0.12459  0.60581  0.59419  1.0000
  C   C156      1.0  0.11696  0.63100  0.58678  1.0000
  C   C157      1.0  0.10433  0.64366  0.61551  1.0000
  C   C158      1.0  0.09895  0.63116  0.65169  1.0000
  C   C159      1.0  0.10629  0.60578  0.65880  1.0000
  C   C160      1.0  0.11894  0.59313  0.63003  1.0000
  H   H190      1.0  0.12061  0.64058  0.55872  1.0000
  H   H191      1.0  0.09856  0.66320  0.60961  1.0000
  H   H192      1.0  0.10222  0.59590  0.68642  1.0000
  H   H193      1.0  0.12449  0.57346  0.63576  1.0000
  N   N10       1.0  0.16522  0.67886  0.62947  1.0000
  C   C161      1.0  0.27627  0.53512  0.67979  1.0000
  C   C162      1.0  0.11948  0.57391  0.94028  1.0000
  C   C163      1.0  0.10260  0.58820  0.92406  1.0000
  C   C164      1.0  0.08603  0.59551  0.94919  1.0000
  C   C165      1.0  0.16292  0.95165  0.95137  1.0000
  H   H194      1.0  0.06571  0.56504  0.88306  1.0000
  H   H195      1.0  0.13235  0.56811  0.92108  1.0000
  H   H196      1.0  0.07291  0.60641  0.93720  1.0000
  C   C166      1.0  0.15738  0.68119  0.58777  1.0000
  C   C167      1.0  0.30311  0.56517  0.57006  1.0000
  C   C168      1.0  0.29296  0.54203  0.55855  1.0000
  C   C169      1.0  0.27290  0.54300  0.54040  1.0000
  C   C170      1.0  0.26258  0.56703  0.53407  1.0000
  H   H197      1.0  0.05497  0.77968  0.74412  1.0000
  H   H198      1.0  0.30068  0.52343  0.56302  1.0000
  H   H199      1.0  0.01983  0.57351  0.88191  1.0000
  H   H200      1.0  0.16856  0.92903  0.76189  1.0000
  C   C171      1.0  0.02702  0.94647  0.88642  1.0000
  C   C172      1.0  0.24620  0.93840  0.65118  1.0000
  H   H201      1.0  0.11042  0.71392  0.93796  1.0000
  C   C173      1.0  0.13700  0.68461  0.68299  1.0000
  H   H202      1.0  0.16847  0.93846  0.97434  1.0000
  C   C174      1.0  0.00088  0.95841  0.93584  1.0000
  C   C175      1.0  0.17261  0.93146  0.69812  1.0000
  H   H203      1.0  0.05434  0.84282  0.68184  1.0000
  S   S55       1.0  0.32905  0.56514  0.59023  1.0000
  C   C176      1.0  0.17977  0.93064  0.73753  1.0000
  H   H204      1.0  0.25164  0.92097  0.66830  1.0000
  H   H205      1.0  0.01510  0.93987  0.86420  1.0000
  N   N11       1.0  0.22374  0.93587  0.63911  1.0000
  N   N12       1.0  0.02002  0.94265  0.92840  1.0000
  C   C177      1.0  0.12436  0.70072  0.70670  1.0000
  H   H206      1.0  0.07371  0.71885  0.96749  1.0000
  H   H207      1.0  0.06577  0.53221  0.86282  1.0000
  H   H208      1.0  0.31521  0.53196  0.65270  1.0000
  H   H209      1.0  0.08788  0.84076  0.72199  1.0000
  H   H210      1.0  0.25681  0.93982  0.62467  1.0000
  C   C178      1.0  0.01514  0.91450  0.93473  1.0000
  H   H211      1.0  0.09038  0.77072  0.63330  1.0000
  N   N13       1.0  0.08573  0.68502  0.93628  1.0000
  H   H212      1.0  0.04848  0.55653  0.84303  1.0000
  H   H213      1.0  0.27952  0.54399  0.64982  1.0000
  C   C179      1.0  0.06842  0.70347  0.94610  1.0000
  H   H214      1.0  0.08953  0.65204  0.89614  1.0000
  H   H215      1.0  0.14139  0.76017  0.67478  1.0000
  H   H216      1.0  0.19791  0.67430  0.61300  1.0000
  C   C180      1.0  0.12009  0.56744  0.98135  1.0000
  H   H217      1.0  0.11496  0.68768  0.90310  1.0000
  C   C181      1.0  0.31283  0.52437  0.68363  1.0000
  C   C182      1.0  0.11162  0.65362  0.96695  1.0000
  C   C183      1.0  0.22176  0.91191  0.61430  1.0000
  C   C184      1.0  0.19723  0.77386  0.50811  1.0000
  C   C185      1.0  0.10263  0.70037  0.91638  1.0000
  H   H218      1.0  0.14025  0.67696  0.58603  1.0000
  H   H219      1.0  0.29874  0.89903  0.54807  1.0000
  C   C186      1.0  0.12618  0.72785  0.70423  1.0000
  H   H220      1.0  0.06248  0.71382  0.91883  1.0000
  H   H221      1.0  0.23292  0.91204  0.58859  1.0000
  H   H222      1.0  0.02944  0.90210  0.93225  1.0000
  C   C187      1.0  0.21581  0.93338  0.71399  1.0000
  Fe  Fe28      1.0  0.16615  0.60788  0.52065  1.0000
  H   H223      1.0  0.19360  0.68829  0.66191  1.0000
  H   H224      1.0  0.11629  0.74017  0.72275  1.0000
  H   H225      1.0  0.05213  0.93722  0.94824  1.0000
  C   C188      1.0  0.16531  0.97931  0.95421  1.0000
  S   S56       1.0  0.30734  0.99091  0.59322  1.0000
  C   C189      1.0  0.29271  0.58917  0.56424  1.0000
  H   H226      1.0  0.27734  0.55108  0.70242  1.0000
  H   H227      1.0  0.30042  0.60721  0.57303  1.0000
  C   C190      1.0  0.16498  0.65070  0.64088  1.0000
  C   C191      1.0  0.27253  0.59013  0.54647  1.0000
  H   H228      1.0  0.15986  0.70120  0.57533  1.0000
  C   C192      1.0  0.29160  0.91819  0.55007  1.0000
  C   C193      1.0  0.18755  0.68761  0.63062  1.0000
  C   C194      1.0  0.05558  0.54898  0.87133  1.0000
  C   C195      1.0  0.19960  0.74896  0.52586  1.0000
  H   H229      1.0  0.08169  0.53596  0.92559  1.0000
  C   C196      1.0  0.21844  0.95901  0.61411  1.0000
  H   H230      1.0  0.24627  0.94996  0.52707  1.0000
  H   H231      1.0  0.13439  0.66380  0.68618  1.0000
  H   H232      1.0  0.13343  0.55698  0.99357  1.0000
  H   H233      1.0  0.01948  0.52841  0.85170  1.0000
  C   C197      1.0  0.14030  0.73903  0.67722  1.0000
  H   H234      1.0  0.04382  0.81651  0.71068  1.0000
  H   H235      1.0  0.13752  0.99482  0.86889  1.0000
  C   C198      1.0  0.15200  0.69535  0.65584  1.0000
  H   H236      1.0  0.18995  0.70716  0.61670  1.0000
  C   C199      1.0  0.07724  0.66563  0.90746  1.0000
  H   H237      1.0  0.19952  0.79136  0.52585  1.0000
  H   H238      1.0  0.09635  0.71243  0.89123  1.0000
  C   C200      1.0  0.07301  0.78032  0.68831  1.0000
  C   C201      1.0  0.07931  0.73619  0.66138  1.0000
  C   C202      1.0  0.07000  0.52902  0.94654  1.0000
  H   H239      1.0  0.20293  0.95695  0.59891  1.0000
  S   S57       1.0  0.25661  0.89451  0.51657  1.0000
  H   H240      1.0  0.31909  0.93605  0.57759  1.0000
  C   C203      1.0  0.03434  0.52109  0.96921  1.0000
  C   C204      1.0  0.15217  0.94017  0.91921  1.0000
  H   H241      1.0  0.11858  0.65002  0.93792  1.0000
  H   H242      1.0  0.20394  0.74754  0.55713  1.0000
  H   H243      1.0  0.10113  0.80984  0.72738  1.0000
  C   C205      1.0  0.18693  0.93308  0.66648  1.0000
  H   H244      1.0  0.21805  0.97719  0.63250  1.0000
  H   H245      1.0  0.10362  0.81185  0.65212  1.0000
  C   C206      1.0  0.05965  0.74099  0.72259  1.0000
  H   H246      1.0  0.25230  0.81369  0.54435  1.0000
  H   H247      1.0  0.25198  0.72328  0.53622  1.0000
  H   H248      1.0  0.07018  0.67539  0.88085  1.0000
  H   H249      1.0  0.01743  0.52175  0.96563  1.0000
  C   C207      1.0  0.14327  0.95570  0.88940  1.0000
  H   H250      1.0  0.14917  0.64179  0.63707  1.0000
  H   H251      1.0  0.05450  0.69304  0.95869  1.0000
  H   H252      1.0  0.11282  0.69197  0.72670  1.0000
  H   H253      1.0  0.06651  0.70387  0.69510  1.0000
  C   C208      1.0  0.20898  0.93418  0.67336  1.0000
  Fe  Fe29      1.0  0.17851  0.88284  0.54363  1.0000
  N   N14       1.0  0.03923  0.54112  0.90083  1.0000
  N   N15       1.0  0.07486  0.80925  0.68636  1.0000
  H   H254      1.0  0.23223  0.93394  0.72226  1.0000
  H   H255      1.0  0.17007  0.64786  0.67251  1.0000
  H   H256      1.0  0.22482  0.89396  0.63231  1.0000
  H   H257      1.0  0.16560  0.66746  0.56719  1.0000
  C   C209      1.0  0.26579  0.81703  0.52367  1.0000
  N   N16       1.0  0.17585  0.99227  0.98855  1.0000
  H   H258      1.0  0.08794  0.84073  0.65090  1.0000
  H   H259      1.0  0.14986  0.91912  0.91835  1.0000
  C   C210      1.0  0.04800  0.53037  0.93861  1.0000
  C   C211      1.0  0.08172  0.76343  0.65877  1.0000
  H   H260      1.0  0.20680  0.93079  0.77622  1.0000
  H   H261      1.0  0.04149  0.93506  0.87990  1.0000
  H   H262      1.0  0.08603  0.72353  0.63868  1.0000
  C   C212      1.0  0.08707  0.81891  0.65136  1.0000
  C   C213      1.0  0.09438  0.67101  0.97152  1.0000
  H   H263      1.0  0.13411  0.94672  0.86556  1.0000
  C   C214      1.0  0.20131  0.93160  0.74547  1.0000
  C   C215      1.0  0.15287  0.72309  0.65301  1.0000
  H   H264      1.0  0.25967  0.52825  0.67876  1.0000
  H   H265      1.0  0.05095  0.73221  0.74718  1.0000
  C   C216      1.0  0.25188  0.73589  0.51005  1.0000
  S   S58       1.0  0.01189  0.56984  0.79246  1.0000
  H   H266      1.0  0.23010  0.96218  0.58982  1.0000
  C   C217      1.0  0.02555  0.52129  0.88115  1.0000
  C   C218      1.0  0.02642  0.56463  0.90979  1.0000
  H   H267      1.0  0.28005  0.80721  0.53584  1.0000
  H   H268      1.0  0.04482  0.81372  0.65717  1.0000
  H   H269      1.0  0.03063  0.96740  0.88012  1.0000
  C   C219      1.0  0.08548  0.81913  0.72301  1.0000
  H   H270      1.0  0.07957  0.81312  0.62253  1.0000
  S   S59       1.0  0.19417  0.91828  0.51589  1.0000
  H   H271      1.0  0.01274  0.56009  0.92931  1.0000
  H   H272      1.0  0.07614  0.81524  0.75043  1.0000
  C   C220      1.0  0.06198  0.76820  0.72040  1.0000
  C   C221      1.0  0.10876  0.96759  0.99067  1.0000
  C   C222      1.0  0.14514  0.98283  0.89145  1.0000
  H   H273      1.0  0.26532  0.52502  0.53096  1.0000
  C   C223      1.0  0.06833  0.72501  0.69321  1.0000
  C   C224      1.0  0.03806  0.94948  0.95489  1.0000
  H   H274      1.0  0.18052  0.93296  0.63642  1.0000
  C   C225      1.0  0.05356  0.82101  0.68389  1.0000
  C   C226      1.0  0.08683  0.58946  0.99044  1.0000
  H   H275      1.0  0.06472  0.65345  0.92154  1.0000
  C   C227      1.0  0.25677  0.76254  0.51365  1.0000
  H   H276      1.0  0.03606  0.57986  0.92522  1.0000
  C   C228      1.0  0.07765  0.51895  0.98277  1.0000
  H   H277      1.0  0.31614  0.54097  0.70431  1.0000
  H   H278      1.0  0.00820  0.91108  0.96489  1.0000
  H   H279      1.0  0.04323  0.97014  0.95050  1.0000
  C   C229      1.0  0.15600  0.99454  0.92328  1.0000
  S   S60       1.0  0.20116  0.69513  0.52676  1.0000
  H   H280      1.0  0.26484  0.60875  0.54172  1.0000
  H   H281      1.0  0.26081  0.76931  0.54329  1.0000
  H   H282      1.0  0.13243  0.62574  0.99501  1.0000
  H   H283      1.0  0.03434  0.50282  0.87563  1.0000
  H   H284      1.0  0.31928  0.50935  0.75507  1.0000
  C   C230      1.0  0.11349  0.92068  0.98819  1.0000
  H   H285      1.0  0.03427  0.94617  0.98705  1.0000
  H   H286      1.0  0.09446  0.51853  0.98859  1.0000
  H   H287      1.0  0.26911  0.83851  0.52449  1.0000
  S   S61       1.0  0.23773  0.56692  0.50934  1.0000
  C   C231      1.0  0.30334  0.50281  0.76036  1.0000
  C   C232      1.0  0.19672  0.72593  0.50333  1.0000
  C   C233      1.0  0.28742  0.50362  0.73029  1.0000
  H   H288      1.0  0.00384  0.90672  0.91210  1.0000
  Fe  Fe30      1.0  0.22135  0.89126  0.50288  1.0000
  Fe  Fe31      1.0  0.19460  0.65442  0.50055  1.0000
  H   H289      1.0  0.00276  0.94204  0.78286  1.0000
  H   H290      1.0  0.53379  0.46127  0.31600  1.0000
  Fe  Fe32      1.0  0.44796  0.34733  0.31252  1.0000
  S   S62       1.0  0.45591  0.35364  0.24760  1.0000
  S   S63       1.0  0.44564  0.30983  0.34946  1.0000
  Fe  Fe33      1.0  0.43533  0.40478  0.32487  1.0000
  S   S64       1.0  0.44106  0.41460  0.25995  1.0000
  S   S65       1.0  0.43261  0.43692  0.37215  1.0000
  Fe  Fe34      1.0  0.42538  0.37610  0.24489  1.0000
  S   S66       1.0  0.40392  0.36105  0.19460  1.0000
  Fe  Fe35      1.0  0.47109  0.39169  0.26735  1.0000
  S   S67       1.0  0.49896  0.41412  0.24062  1.0000
  S   S68       1.0  0.41694  0.36838  0.30940  1.0000
  S   S69       1.0  0.46585  0.38323  0.33254  1.0000
  C   C234      1.0  0.50261  0.01096  0.32770  1.0000
  S   S70       1.0  0.64861  0.46863  0.27019  1.0000
  Fe  Fe36      1.0  0.61473  0.47144  0.29063  1.0000
  S   S71       1.0  0.59385  0.43507  0.29637  1.0000
  Fe  Fe37      1.0  0.47592  0.10013  0.27839  1.0000
  S   S72       1.0  0.48089  0.12201  0.33574  1.0000
  S   S73       1.0  0.49924  0.07048  0.25314  1.0000
  Fe  Fe38      1.0  0.42971  0.11960  0.27027  1.0000
  S   S74       1.0  0.43179  0.14227  0.32819  1.0000
  S   S75       1.0  0.39709  0.11959  0.24113  1.0000
  Fe  Fe39      1.0  0.46347  0.15517  0.30512  1.0000
  S   S76       1.0  0.47615  0.19645  0.29507  1.0000
  Fe  Fe40      1.0  0.44871  0.10698  0.35351  1.0000
  S   S77       1.0  0.44449  0.07901  0.40667  1.0000
  S   S78       1.0  0.46056  0.13392  0.24611  1.0000
  S   S79       1.0  0.44453  0.08376  0.29699  1.0000
  Fe  Fe41      1.0  0.61792  0.02271  0.29180  1.0000
  S   S80       1.0  0.59632  0.05806  0.30069  1.0000
  S   S81       1.0  0.64342  0.02145  0.24475  1.0000
  S   S82       1.0  0.64053  0.01682  0.34341  1.0000
  S   S83       1.0  0.37412  0.13073  0.05500  1.0000
  C   C235      1.0  0.39108  0.12237  0.18916  1.0000
  C   C236      1.0  0.40678  0.12462  0.16001  1.0000
  C   C237      1.0  0.40127  0.12718  0.11920  1.0000
  C   C238      1.0  0.38005  0.12719  0.10689  1.0000
  C   C239      1.0  0.36434  0.12507  0.13606  1.0000
  C   C240      1.0  0.36985  0.12276  0.17693  1.0000
  H   H291      1.0  0.42318  0.12424  0.16883  1.0000
  H   H292      1.0  0.41355  0.12877  0.09689  1.0000
  H   H293      1.0  0.34796  0.12504  0.12713  1.0000
  H   H294      1.0  0.35755  0.12101  0.19916  1.0000
  H   H295      1.0  0.34703  0.48920  0.40554  1.0000
  H   H296      1.0  0.45887  0.34852  0.41161  1.0000
  C   C241      1.0  0.42533  0.05652  0.47188  1.0000
  C   C242      1.0  0.42695  0.07920  0.44810  1.0000
  C   C243      1.0  0.41510  0.10122  0.45847  1.0000
  C   C244      1.0  0.65799  0.07747  0.30665  1.0000
  H   H297      1.0  0.34865  0.09310  0.33816  1.0000
  H   H298      1.0  0.43434  0.03935  0.46408  1.0000
  H   H299      1.0  0.41638  0.11894  0.44085  1.0000
  C   C245      1.0  0.52637  0.06782  0.26589  1.0000
  C   C246      1.0  0.53768  0.04568  0.25312  1.0000
  C   C247      1.0  0.55898  0.04218  0.26391  1.0000
  C   C248      1.0  0.56935  0.06109  0.28702  1.0000
  C   C249      1.0  0.55809  0.08332  0.29957  1.0000
  C   C250      1.0  0.53669  0.08663  0.28929  1.0000
  H   H300      1.0  0.52990  0.03108  0.23481  1.0000
  H   H301      1.0  0.56745  0.02507  0.25382  1.0000
  H   H302      1.0  0.56597  0.09814  0.31730  1.0000
  H   H303      1.0  0.52826  0.10382  0.29919  1.0000
  C   C251      1.0  0.45287  0.27837  0.33163  1.0000
  C   C252      1.0  0.46773  0.27527  0.30118  1.0000
  C   C253      1.0  0.47449  0.25002  0.29021  1.0000
  C   C254      1.0  0.46621  0.22759  0.30898  1.0000
  C   C255      1.0  0.45088  0.23062  0.33865  1.0000
  C   C256      1.0  0.44443  0.25593  0.35020  1.0000
  H   H304      1.0  0.47452  0.29236  0.28694  1.0000
  H   H305      1.0  0.48644  0.24790  0.26740  1.0000
  H   H306      1.0  0.44452  0.21355  0.35358  1.0000
  H   H307      1.0  0.43305  0.25814  0.37399  1.0000
  C   C257      1.0  0.52533  0.41939  0.25673  1.0000
  C   C258      1.0  0.53741  0.43886  0.23753  1.0000
  C   C259      1.0  0.55820  0.44438  0.24987  1.0000
  C   C260      1.0  0.56735  0.43002  0.28102  1.0000
  C   C261      1.0  0.55536  0.41037  0.29998  1.0000
  C   C262      1.0  0.53439  0.40526  0.28825  1.0000
  H   H308      1.0  0.53060  0.44982  0.21297  1.0000
  H   H309      1.0  0.56728  0.45937  0.23474  1.0000
  H   H310      1.0  0.56232  0.39904  0.32395  1.0000
  H   H311      1.0  0.52535  0.39014  0.30313  1.0000
  C   C263      1.0  0.35558  0.40269  0.11328  1.0000
  C   C264      1.0  0.36141  0.37671  0.10619  1.0000
  C   C265      1.0  0.37630  0.36440  0.13128  1.0000
  C   C266      1.0  0.38570  0.37793  0.16346  1.0000
  C   C267      1.0  0.37999  0.40398  0.17036  1.0000
  C   C268      1.0  0.36494  0.41622  0.14550  1.0000
  H   H312      1.0  0.35435  0.36605  0.08156  1.0000
  H   H313      1.0  0.38062  0.34429  0.12560  1.0000
  H   H314      1.0  0.38707  0.41461  0.19499  1.0000
  C   C269      1.0  0.64036  0.09805  0.36128  1.0000
  Fe  Fe42      1.0  0.34226  0.12859  0.02273  1.0000
  C   C270      1.0  0.52591  0.03486  0.37186  1.0000
  C   C271      1.0  0.41727  0.45761  0.44203  1.0000
  C   C272      1.0  0.41333  0.44028  0.41014  1.0000
  C   C273      1.0  0.39407  0.42698  0.40862  1.0000
  C   C274      1.0  0.37891  0.43106  0.43874  1.0000
  C   C275      1.0  0.35993  0.07863  0.32581  1.0000
  H   H315      1.0  0.43209  0.46806  0.44344  1.0000
  H   H316      1.0  0.39069  0.41392  0.38391  1.0000
  H   H317      1.0  0.36401  0.42078  0.43729  1.0000
  N   N17       1.0  0.42176  0.20754  0.21426  1.0000
  C   C276      1.0  0.41820  0.19415  0.25311  1.0000
  C   C277      1.0  0.40524  0.19896  0.18557  1.0000
  C   C278      1.0  0.44232  0.19841  0.19839  1.0000
  C   C279      1.0  0.42070  0.23629  0.22001  1.0000
  C   C280      1.0  0.43816  0.25324  0.21320  1.0000
  C   C281      1.0  0.40174  0.24818  0.23325  1.0000
  C   C282      1.0  0.43651  0.28031  0.21882  1.0000
  C   C283      1.0  0.40032  0.27527  0.23888  1.0000
  C   C284      1.0  0.41767  0.29129  0.23166  1.0000
  H   H318      1.0  0.41919  0.17246  0.25002  1.0000
  H   H319      1.0  0.43021  0.20025  0.27563  1.0000
  H   H320      1.0  0.40248  0.19844  0.26595  1.0000
  H   H321      1.0  0.40695  0.20924  0.15638  1.0000
  H   H322      1.0  0.38908  0.20252  0.19690  1.0000
  H   H323      1.0  0.40611  0.17753  0.17965  1.0000
  H   H324      1.0  0.45542  0.20268  0.21969  1.0000
  H   H325      1.0  0.44249  0.17681  0.19371  1.0000
  H   H326      1.0  0.44603  0.20759  0.16899  1.0000
  H   H327      1.0  0.45344  0.24610  0.20438  1.0000
  H   H328      1.0  0.38794  0.23657  0.23985  1.0000
  H   H329      1.0  0.45007  0.29290  0.21406  1.0000
  H   H330      1.0  0.38578  0.28400  0.24926  1.0000
  H   H331      1.0  0.41660  0.31227  0.23643  1.0000
  H   H332      1.0  0.35678  0.03968  0.49767  1.0000
  H   H333      1.0  0.63864  0.36898  0.29206  1.0000
  H   H334      1.0  0.65559  0.12464  0.27277  1.0000
  S   S84       1.0  0.62345  0.48582  0.35205  1.0000
  C   C285      1.0  0.39581  0.26010  0.11369  1.0000
  H   H335      1.0  0.64791  0.42239  0.38919  1.0000
  C   C286      1.0  0.36100  0.04651  0.46795  1.0000
  C   C287      1.0  0.63376  0.38768  0.30631  1.0000
  H   H336      1.0  0.64450  0.14144  0.31500  1.0000
  H   H337      1.0  0.62492  0.09066  0.34987  1.0000
  C   C288      1.0  0.41937  0.36458  0.41455  1.0000
  H   H338      1.0  0.36057  0.43631  0.15124  1.0000
  H   H339      1.0  0.49651  0.44723  0.38062  1.0000
  C   C289      1.0  0.35300  0.07009  0.45372  1.0000
  S   S85       1.0  0.33634  0.41885  0.08349  1.0000
  H   H340      1.0  0.61628  0.38732  0.30930  1.0000
  H   H341      1.0  0.39554  0.29627  0.14700  1.0000
  C   C290      1.0  0.47852  0.01034  0.42049  1.0000
  C   C291      1.0  0.49174  0.47869  0.29141  1.0000
  H   H342      1.0  0.61742  0.37526  0.37607  1.0000
  C   C292      1.0  0.38903  0.10179  0.35595  1.0000
  N   N18       1.0  0.64441  0.39156  0.34559  1.0000
  C   C293      1.0  0.47527  0.49017  0.35348  1.0000
  H   H343      1.0  0.45829  0.40233  0.48226  1.0000
  C   C294      1.0  0.49777  0.00765  0.39912  1.0000
  C   C295      1.0  0.49032  0.04900  0.36263  1.0000
  N   N19       1.0  0.49399  0.47731  0.33563  1.0000
  C   C296      1.0  0.37301  0.06532  0.39115  1.0000
  C   C297      1.0  0.63484  0.37283  0.37442  1.0000
  N   N20       1.0  0.37897  0.07574  0.35127  1.0000
  C   C298      1.0  0.63989  0.41835  0.36011  1.0000
  H   H344      1.0  0.47790  0.44019  0.34133  1.0000
  C   C299      1.0  0.53358  0.47855  0.33450  1.0000
  C   C300      1.0  0.40209  0.46175  0.47207  1.0000
  H   H345      1.0  0.34040  0.20558  0.02245  1.0000
  H   H346      1.0  0.40244  0.36289  0.42230  1.0000
  H   H347      1.0  0.63006  0.11561  0.29028  1.0000
  H   H348      1.0  0.58009  0.01534  0.01816  1.0000
  H   H349      1.0  0.62269  0.42173  0.36401  1.0000
  H   H350      1.0  0.41277  0.26031  0.11002  1.0000
  C   C301      1.0  0.36433  0.28078  0.13827  1.0000
  Fe  Fe43      1.0  0.65706  0.48507  0.33060  1.0000
  C   C302      1.0  0.64605  0.12197  0.30036  1.0000
  H   H351      1.0  0.41389  0.33038  0.47369  1.0000
  H   H352      1.0  0.50621  0.02383  0.30168  1.0000
  H   H353      1.0  0.35147  0.05961  0.32266  1.0000
  H   H354      1.0  0.63788  0.35220  0.36543  1.0000
  H   H355      1.0  0.59738  0.01435  0.08473  1.0000
  H   H356      1.0  0.63700  0.11639  0.37803  1.0000
  C   C303      1.0  0.38101  0.04137  0.40673  1.0000
  H   H357      1.0  0.48995  0.06040  0.39105  1.0000
  H   H358      1.0  0.56749  0.48115  0.33365  1.0000
  C   C304      1.0  0.55298  0.48983  0.34448  1.0000
  C   C305      1.0  0.45544  0.36351  0.43502  1.0000
  H   H359      1.0  0.37316  0.18813  0.08257  1.0000
  C   C306      1.0  0.36141  0.23942  0.10080  1.0000
  C   C307      1.0  0.38367  0.23998  0.09680  1.0000
  C   C308      1.0  0.43057  0.33465  0.46610  1.0000
  H   H360      1.0  0.42175  0.38401  0.40022  1.0000
  H   H361      1.0  0.36401  0.08566  0.29507  1.0000
  N   N21       1.0  0.50393  0.02546  0.36609  1.0000
  H   H362      1.0  0.40355  0.10040  0.37455  1.0000
  H   H363      1.0  0.38140  0.01408  0.45622  1.0000
  H   H364      1.0  0.47679  0.46940  0.28096  1.0000
  H   H365      1.0  0.64080  0.37610  0.40542  1.0000
  C   C309      1.0  0.38282  0.44848  0.47053  1.0000
  H   H366      1.0  0.39356  0.11020  0.32641  1.0000
  H   H367      1.0  0.50454  0.46813  0.27563  1.0000
  H   H368      1.0  0.48650  0.00294  0.32276  1.0000
  H   H369      1.0  0.40914  0.05675  0.34598  1.0000
  H   H370      1.0  0.38729  0.03907  0.32340  1.0000
  H   H371      1.0  0.43538  0.31939  0.44396  1.0000
  N   N22       1.0  0.65554  0.10263  0.32815  1.0000
  H   H372      1.0  0.39181  0.22512  0.07980  1.0000
  H   H373      1.0  0.49596  0.06263  0.33884  1.0000
  H   H374      1.0  0.64551  0.43352  0.33885  1.0000
  C   C310      1.0  0.37492  0.03216  0.44450  1.0000
  N   N23       1.0  0.43343  0.36144  0.44971  1.0000
  H   H375      1.0  0.64252  0.06926  0.29706  1.0000
  H   H376      1.0  0.37854  0.11634  0.37031  1.0000
  C   C311      1.0  0.38615  0.28043  0.13445  1.0000
  H   H377      1.0  0.39811  0.06731  0.29937  1.0000
  C   C312      1.0  0.35204  0.26070  0.12167  1.0000
  H   H378      1.0  0.53038  0.04970  0.34897  1.0000
  C   C313      1.0  0.49346  0.44937  0.34794  1.0000
  H   H379      1.0  0.46035  0.48034  0.34406  1.0000
  C   C314      1.0  0.59254  0.00135  0.02396  1.0000
  H   H380      1.0  0.46757  0.02607  0.41466  1.0000
  H   H381      1.0  0.47569  0.48923  0.38682  1.0000
  H   H382      1.0  0.63700  0.40389  0.28487  1.0000
  H   H383      1.0  0.45844  0.38291  0.42082  1.0000
  H   H384      1.0  0.42248  0.34939  0.39142  1.0000
  H   H385      1.0  0.35216  0.09779  0.40628  1.0000
  C   C315      1.0  0.39402  0.05885  0.32923  1.0000
  H   H386      1.0  0.50519  0.43733  0.33164  1.0000
  C   C316      1.0  0.35877  0.07936  0.41585  1.0000
  H   H387      1.0  0.34503  0.24011  0.02752  1.0000
  H   H388      1.0  0.47388  0.04386  0.35398  1.0000
  H   H389      1.0  0.34253  0.08140  0.47258  1.0000
  H   H390      1.0  0.35689  0.29707  0.15358  1.0000
  H   H391      1.0  0.39567  0.36770  0.48878  1.0000
  H   H392      1.0  0.39222  0.02954  0.39069  1.0000
  H   H393      1.0  0.44018  0.33182  0.49368  1.0000
  C   C317      1.0  0.40188  0.10053  0.49240  1.0000
  C   C318      1.0  0.51428  0.48942  0.34775  1.0000
  H   H394      1.0  0.36674  0.21763  0.02685  1.0000
  C   C319      1.0  0.35041  0.22046  0.03786  1.0000
  H   H395      1.0  0.64624  0.08286  0.38248  1.0000
  H   H396      1.0  0.35749  0.19001  0.12744  1.0000
  H   H397      1.0  0.50380  0.05614  0.48316  1.0000
  C   C320      1.0  0.35712  0.19211  0.09428  1.0000
  N   N24       1.0  0.34890  0.21814  0.08204  1.0000
  H   H398      1.0  0.33520  0.26259  0.12495  1.0000
  H   H399      1.0  0.34723  0.17581  0.08223  1.0000
  H   H400      1.0  0.46702  0.36040  0.45961  1.0000
  C   C321      1.0  0.42807  0.38116  0.48061  1.0000
  H   H401      1.0  0.52798  0.04406  0.40181  1.0000
  C   C322      1.0  0.60229  0.00091  0.06141  1.0000
  H   H402      1.0  0.53777  0.01907  0.36862  1.0000
  Fe  Fe44      1.0  0.66561  0.01306  0.29630  1.0000
  C   C323      1.0  0.44257  0.40056  0.49414  1.0000
  H   H403      1.0  0.38151  0.48113  0.37614  1.0000
  H   H404      1.0  0.66582  0.06280  0.32621  1.0000
  H   H405      1.0  0.40528  0.47524  0.49634  1.0000
  C   C324      1.0  0.40769  0.38143  0.49805  1.0000
  C   C325      1.0  0.37940  0.49758  0.39629  1.0000
  S   S86       1.0  0.38513  0.46848  0.61775  1.0000
  H   H406      1.0  0.37792  0.41638  0.72064  1.0000
  H   H407      1.0  0.39286  0.11769  0.50032  1.0000
  C   C326      1.0  0.35502  0.32994  0.83916  1.0000
  Fe  Fe45      1.0  0.36736  0.47936  0.56204  1.0000
  H   H408      1.0  0.39085  0.10986  0.83552  1.0000
  H   H409      1.0  0.38313  0.39888  0.84494  1.0000
  H   H410      1.0  0.42146  0.09475  0.71233  1.0000
  Fe  Fe46      1.0  0.36769  0.02222  0.68087  1.0000
  S   S87       1.0  0.36953  0.03306  0.74800  1.0000
  Fe  Fe47      1.0  0.37592  0.04092  0.59435  1.0000
  S   S88       1.0  0.38360  0.07793  0.55888  1.0000
  S   S89       1.0  0.34703  0.04000  0.63354  1.0000
  S   S90       1.0  0.39716  0.02597  0.64314  1.0000
  H   H411      1.0  0.38126  0.35993  0.88263  1.0000
  H   H412      1.0  0.45558  0.02253  0.55680  1.0000
  C   C327      1.0  0.35639  0.05501  0.78140  1.0000
  C   C328      1.0  0.36216  0.05518  0.82224  1.0000
  C   C329      1.0  0.35244  0.07227  0.84991  1.0000
  H   H413      1.0  0.41101  0.03822  0.52371  1.0000
  H   H414      1.0  0.37439  0.04208  0.83254  1.0000
  H   H415      1.0  0.35735  0.07237  0.88096  1.0000
  H   H416      1.0  0.39405  0.42396  0.78706  1.0000
  H   H417      1.0  0.37164  0.32503  0.83200  1.0000
  C   C330      1.0  0.36034  0.37396  0.81291  1.0000
  H   H418      1.0  0.44803  0.43379  0.53285  1.0000
  C   C331      1.0  0.37347  0.40419  0.74591  1.0000
  H   H419      1.0  0.55128  0.00796  0.55789  1.0000
  Fe  Fe48      1.0  0.35665  0.48109  0.65284  1.0000
  C   C332      1.0  0.35316  0.46022  0.81710  1.0000
  C   C333      1.0  0.35317  0.46466  0.77529  1.0000
  H   H420      1.0  0.36488  0.46975  0.83564  1.0000
  H   H421      1.0  0.36485  0.47742  0.76200  1.0000
  H   H422      1.0  0.40296  0.09184  0.77265  1.0000
  H   H423      1.0  0.52809  0.00963  0.61878  1.0000
  S   S91       1.0  0.33820  0.45569  0.69764  1.0000
  H   H424      1.0  0.35014  0.31784  0.86549  1.0000
  H   H425      1.0  0.33911  0.35595  0.76926  1.0000
  H   H426      1.0  0.41228  0.43316  0.56165  1.0000
  C   C334      1.0  0.33683  0.08967  0.83704  1.0000
  C   C335      1.0  0.34046  0.07204  0.76874  1.0000
  H   H427      1.0  0.35817  0.35164  0.91061  1.0000
  H   H428      1.0  0.41213  0.07971  0.66723  1.0000
  N   N25       1.0  0.39021  0.10660  0.69456  1.0000
  C   C336      1.0  0.40717  0.08670  0.69739  1.0000
  C   C337      1.0  0.37200  0.09411  0.67432  1.0000
  C   C338      1.0  0.39811  0.12821  0.66883  1.0000
  C   C339      1.0  0.38349  0.11699  0.73396  1.0000
  S   S92       1.0  0.33909  0.38616  0.97378  1.0000
  C   C340      1.0  0.39169  0.10758  0.77098  1.0000
  S   S93       1.0  0.33852  0.15602  0.96996  1.0000
  S   S94       1.0  0.33791  0.48863  0.59655  1.0000
  C   C341      1.0  0.36788  0.13680  0.73614  1.0000
  H   H429      1.0  0.36051  0.14444  0.70940  1.0000
  H   H430      1.0  0.36373  0.14430  0.83715  1.0000
  H   H431      1.0  0.41133  0.13882  0.68369  1.0000
  C   C342      1.0  0.35797  0.38511  0.74133  1.0000
  H   H432      1.0  0.37648  0.08579  0.64470  1.0000
  H   H433      1.0  0.52931  0.02479  0.50822  1.0000
  H   H434      1.0  0.35051  0.38254  0.71233  1.0000
  H   H435      1.0  0.40385  0.12078  0.63937  1.0000
  C   C343      1.0  0.37603  0.39376  0.81658  1.0000
  C   C344      1.0  0.33833  0.44336  0.83508  1.0000
  C   C345      1.0  0.38484  0.11777  0.80759  1.0000
  C   C346      1.0  0.47822  0.04144  0.51858  1.0000
  C   C347      1.0  0.38251  0.40845  0.78339  1.0000
  C   C348      1.0  0.36103  0.14666  0.77296  1.0000
  H   H436      1.0  0.34870  0.16128  0.77408  1.0000
  C   C349      1.0  0.41679  0.41849  0.53984  1.0000
  C   C350      1.0  0.43691  0.41884  0.52340  1.0000
  C   C351      1.0  0.40030  0.07785  0.51621  1.0000
  C   C352      1.0  0.36954  0.13721  0.80859  1.0000
  S   S95       1.0  0.36928  0.00148  0.56772  1.0000
  C   C353      1.0  0.48620  0.00462  0.56167  1.0000
  H   H437      1.0  0.38569  0.14274  0.66160  1.0000
  C   C354      1.0  0.35150  0.37011  0.77419  1.0000
  C   C355      1.0  0.47180  0.02281  0.54656  1.0000
  N   N26       1.0  0.35272  0.35835  0.84744  1.0000
  H   H438      1.0  0.34498  0.32333  0.81381  1.0000
  H   H439      1.0  0.36555  0.07786  0.69287  1.0000
  C   C356      1.0  0.33840  0.45206  0.75080  1.0000
  H   H440      1.0  0.40180  0.06896  0.71407  1.0000
  H   H441      1.0  0.35894  0.10801  0.66849  1.0000
  H   H442      1.0  0.36197  0.38471  0.89493  1.0000
  C   C357      1.0  0.40219  0.39987  0.52713  1.0000
  S   S96       1.0  0.33974  0.43795  0.88788  1.0000
  H   H443      1.0  0.38630  0.40037  0.53901  1.0000
  S   S97       1.0  0.36323  0.45299  0.50758  1.0000
  C   C358      1.0  0.36413  0.36396  0.88541  1.0000
  C   C359      1.0  0.50759  0.00454  0.54912  1.0000
  C   C360      1.0  0.51351  0.02350  0.51993  1.0000
  C   C361      1.0  0.41211  0.05581  0.50574  1.0000
  H   H444      1.0  0.46706  0.05567  0.50713  1.0000
  H   H445      1.0  0.33549  0.07198  0.73775  1.0000
  C   C362      1.0  0.49897  0.04168  0.50515  1.0000
  H   H446      1.0  0.33361  0.26590  0.92372  1.0000
  Fe  Fe49      1.0  0.62131  0.52612  0.32651  1.0000
  S   S98       1.0  0.60441  0.56087  0.35462  1.0000
  H   H447      1.0  0.48120  0.95758  0.48271  1.0000
  H   H448      1.0  0.53597  0.54091  0.40040  1.0000
  S   S99       1.0  0.61031  0.51219  0.26571  1.0000
  H   H449      1.0  0.62886  0.91290  0.45611  1.0000
  C   C363      1.0  0.64395  0.92233  0.11983  1.0000
  C   C364      1.0  0.48585  0.97146  0.45974  1.0000
  Fe  Fe50      1.0  0.63430  0.97393  0.33419  1.0000
  C   C365      1.0  0.65310  0.59413  0.25097  1.0000
  S   S100      1.0  0.63183  0.94405  0.38487  1.0000
  H   H450      1.0  0.61732  0.52959  0.42403  1.0000
  C   C366      1.0  0.61109  0.94010  0.42009  1.0000
  H   H451      1.0  0.62890  0.91440  0.00897  1.0000
  C   C367      1.0  0.61919  0.57735  0.23276  1.0000
  Fe  Fe51      1.0  0.63772  0.97783  0.24227  1.0000
  H   H452      1.0  0.40792  0.54492  0.44278  1.0000
  S   S101      1.0  0.63352  0.95086  0.18727  1.0000
  H   H453      1.0  0.66219  0.58005  0.23236  1.0000
  C   C368      1.0  0.51062  0.98589  0.40928  1.0000
  H   H454      1.0  0.65817  0.64205  0.20819  1.0000
  H   H455      1.0  0.58931  0.96611  0.39102  1.0000
  C   C369      1.0  0.64145  0.53578  0.12523  1.0000
  C   C370      1.0  0.63952  0.54495  0.08534  1.0000
  H   H456      1.0  0.62908  0.52399  0.13832  1.0000
  H   H457      1.0  0.62553  0.54021  0.06826  1.0000
  C   C371      1.0  0.58814  0.58525  0.42153  1.0000
  C   C372      1.0  0.60001  0.56402  0.40709  1.0000
  H   H458      1.0  0.58175  0.59931  0.40056  1.0000
  C   C373      1.0  0.60816  0.54600  0.43461  1.0000
  C   C374      1.0  0.39666  0.51306  0.40655  1.0000
  H   H459      1.0  0.60737  0.62781  0.24063  1.0000
  H   H460      1.0  0.61655  0.90272  0.29093  1.0000
  H   H461      1.0  0.51388  0.99436  0.32645  1.0000
  C   C375      1.0  0.65054  0.63222  0.18345  1.0000
  C   C376      1.0  0.57547  0.94827  0.44380  1.0000
  H   H462      1.0  0.56051  0.95800  0.44003  1.0000
  H   H463      1.0  0.64921  0.63622  0.08153  1.0000
  H   H464      1.0  0.56885  0.52113  0.37556  1.0000
  C   C377      1.0  0.65040  0.94218  0.14659  1.0000
  S   S102      1.0  0.61022  0.97980  0.28564  1.0000
  C   C378      1.0  0.58458  0.58857  0.46299  1.0000
  C   C379      1.0  0.37460  0.53864  0.45076  1.0000
  C   C380      1.0  0.63001  0.90565  0.27002  1.0000
  H   H465      1.0  0.51491  0.95172  0.44645  1.0000
  C   C381      1.0  0.61398  0.92290  0.45260  1.0000
  H   H466      1.0  0.66335  0.61144  0.25615  1.0000
  C   C382      1.0  0.65345  0.89603  0.32447  1.0000
  H   H467      1.0  0.63783  0.95319  0.04648  1.0000
  C   C383      1.0  0.55377  0.51229  0.36808  1.0000
  H   H468      1.0  0.62620  0.98303  0.09797  1.0000
  H   H469      1.0  0.60325  0.58126  0.22028  1.0000
  N   N27       1.0  0.63287  0.60097  0.23126  1.0000
  C   C384      1.0  0.47275  0.99240  0.45026  1.0000
  H   H470      1.0  0.61671  0.57047  0.26415  1.0000
  C   C385      1.0  0.66633  0.89583  0.25428  1.0000
  C   C386      1.0  0.51563  0.51229  0.37204  1.0000
  C   C387      1.0  0.63686  0.61058  0.19001  1.0000
  C   C388      1.0  0.39431  0.53339  0.43397  1.0000
  H   H471      1.0  0.62905  0.91252  0.12472  1.0000
  H   H472      1.0  0.62634  0.56074  0.21605  1.0000
  H   H473      1.0  0.41201  0.50871  0.39412  1.0000
  H   H474      1.0  0.65149  0.89944  0.06703  1.0000
  H   H475      1.0  0.62434  0.90093  0.23930  1.0000
  H   H476      1.0  0.62467  0.59936  0.09093  1.0000
  C   C389      1.0  0.35969  0.50247  0.41318  1.0000
  H   H477      1.0  0.45798  0.99477  0.46613  1.0000
  C   C390      1.0  0.59176  0.95292  0.41595  1.0000
  H   H478      1.0  0.63685  0.85612  0.24972  1.0000
  H   H479      1.0  0.63059  0.85653  0.30167  1.0000
  C   C391      1.0  0.59294  0.57069  0.49053  1.0000
  C   C392      1.0  0.65489  0.64136  0.14477  1.0000
  H   H480      1.0  0.63376  0.92691  0.27000  1.0000
  C   C393      1.0  0.35655  0.52352  0.44031  1.0000
  C   C394      1.0  0.65950  0.54156  0.14771  1.0000
  C   C395      1.0  0.65546  0.56025  0.06734  1.0000
  C   C396      1.0  0.65661  0.91494  0.08689  1.0000
  C   C397      1.0  0.62241  0.62172  0.25501  1.0000
  Fe  Fe52      1.0  0.64495  0.51078  0.24989  1.0000
  S   S103      1.0  0.66135  0.96942  0.29083  1.0000
  H   H481      1.0  0.61702  0.58241  0.15710  1.0000
  S   S104      1.0  0.65556  0.52698  0.30981  1.0000
  H   H482      1.0  0.57554  0.60508  0.47364  1.0000
  C   C398      1.0  0.66465  0.88971  0.21289  1.0000
  C   C399      1.0  0.62740  0.59915  0.15548  1.0000
  C   C400      1.0  0.59779  0.91848  0.48068  1.0000
  C   C401      1.0  0.57838  0.93100  0.47626  1.0000
  N   N28       1.0  0.33541  0.52848  0.45737  1.0000
  H   H483      1.0  0.52514  0.98203  0.39350  1.0000
  H   H484      1.0  0.37402  0.55439  0.47231  1.0000
  C   C402      1.0  0.50479  0.96823  0.43937  1.0000
  H   H485      1.0  0.47394  0.51095  0.34380  1.0000
  C   C403      1.0  0.64307  0.86179  0.27964  1.0000
  C   C404      1.0  0.53516  0.52343  0.38194  1.0000
  N   N29       1.0  0.64865  0.89000  0.28185  1.0000
  C   C405      1.0  0.60469  0.54939  0.47603  1.0000
  C   C406      1.0  0.63167  0.60869  0.11702  1.0000
  C   C407      1.0  0.61852  0.98328  0.06882  1.0000
  H   H486      1.0  0.65686  0.91720  0.32886  1.0000
  H   H487      1.0  0.61866  0.61484  0.28597  1.0000
  H   H488      1.0  0.63241  0.63949  0.25822  1.0000
  S   S105      1.0  0.66323  0.53018  0.19804  1.0000
  H   H489      1.0  0.65038  0.88142  0.20053  1.0000
  H   H490      1.0  0.65706  0.84934  0.28602  1.0000
  H   H491      1.0  0.63988  0.89167  0.34456  1.0000
  H   H492      1.0  0.50190  0.52201  0.38373  1.0000
  H   H493      1.0  0.61121  0.53542  0.49699  1.0000
  C   C408      1.0  0.33430  0.55292  0.48145  1.0000
  H   H494      1.0  0.33927  0.57031  0.46371  1.0000
  C   C409      1.0  0.64555  0.62950  0.11161  1.0000
  C   C410      1.0  0.62490  0.96582  0.03898  1.0000
  S   S106      1.0  0.65166  0.57194  0.01720  1.0000
  H   H495      1.0  0.65061  0.58486  0.28085  1.0000
  H   H496      1.0  0.66570  0.65757  0.14030  1.0000
  C   C411      1.0  0.61477  0.96501  0.00097  1.0000
  H   H497      1.0  0.49208  0.49930  0.28064  1.0000
  Fe  Fe53      1.0  0.52633  0.62027  0.60763  1.0000
  S   S107      1.0  0.54621  0.63418  0.55548  1.0000
  S   S108      1.0  0.49043  0.61629  0.60529  1.0000
  Fe  Fe54      1.0  0.56394  0.61979  0.66568  1.0000
  S   S109      1.0  0.58645  0.63316  0.61829  1.0000
  S   S110      1.0  0.57049  0.60987  0.73134  1.0000
  Fe  Fe55      1.0  0.56115  0.66185  0.60027  1.0000
  S   S111      1.0  0.57292  0.70314  0.58607  1.0000
  Fe  Fe56      1.0  0.57005  0.60471  0.57691  1.0000
  S   S112      1.0  0.58957  0.57419  0.54323  1.0000
  S   S113      1.0  0.53966  0.65027  0.65060  1.0000
  S   S114      1.0  0.54913  0.58905  0.62608  1.0000
  C   C412      1.0  0.60199  0.56576  0.65625  1.0000
  S   S115      1.0  0.43004  0.51743  0.63172  1.0000
  Fe  Fe57      1.0  0.35024  0.52955  0.59947  1.0000
  S   S116      1.0  0.36754  0.52304  0.65797  1.0000
  S   S117      1.0  0.37859  0.52113  0.56079  1.0000
  H   H498      1.0  0.65106  0.93386  0.99209  1.0000
  H   H499      1.0  0.59724  0.58256  0.67539  1.0000
  Fe  Fe58      1.0  0.54464  0.85398  0.61849  1.0000
  S   S118      1.0  0.54717  0.87607  0.67670  1.0000
  S   S119      1.0  0.53022  0.81327  0.62532  1.0000
  Fe  Fe59      1.0  0.55830  0.90245  0.56885  1.0000
  S   S120      1.0  0.56231  0.92683  0.62448  1.0000
  H   H500      1.0  0.55529  0.97364  0.56494  1.0000
  Fe  Fe60      1.0  0.57762  0.89133  0.65202  1.0000
  S   S121      1.0  0.60930  0.89012  0.68454  1.0000
  Fe  Fe61      1.0  0.53140  0.90923  0.64372  1.0000
  S   S122      1.0  0.50572  0.93504  0.67041  1.0000
  S   S123      1.0  0.57589  0.86775  0.59462  1.0000
  S   S124      1.0  0.52670  0.88622  0.58756  1.0000
  S   S125      1.0  0.36108  0.98072  0.66022  1.0000
  C   C413      1.0  0.46742  0.55498  0.79847  1.0000
  C   C414      1.0  0.60166  0.93251  0.95364  1.0000
  H   H501      1.0  0.40844  0.92052  0.68334  1.0000
  S   S126      1.0  0.41322  0.95507  0.60165  1.0000
  C   C415      1.0  0.48030  0.94100  0.64993  1.0000
  C   C416      1.0  0.46728  0.95976  0.66814  1.0000
  C   C417      1.0  0.44693  0.96494  0.65311  1.0000
  C   C418      1.0  0.43935  0.95125  0.61974  1.0000
  C   C419      1.0  0.45253  0.93284  0.60111  1.0000
  C   C420      1.0  0.47285  0.92767  0.61611  1.0000
  H   H502      1.0  0.47286  0.97017  0.69434  1.0000
  H   H503      1.0  0.63278  0.55742  0.78929  1.0000
  H   H504      1.0  0.44678  0.92209  0.57537  1.0000
  H   H505      1.0  0.48264  0.91331  0.60151  1.0000
  C   C421      1.0  0.62645  0.89514  0.81899  1.0000
  C   C422      1.0  0.64186  0.89059  0.78995  1.0000
  C   C423      1.0  0.63628  0.88924  0.74906  1.0000
  C   C424      1.0  0.61525  0.89224  0.73660  1.0000
  C   C425      1.0  0.59976  0.89644  0.76564  1.0000
  C   C426      1.0  0.60537  0.89801  0.80657  1.0000
  N   N30       1.0  0.62070  0.94615  0.96923  1.0000
  H   H506      1.0  0.64840  0.88596  0.72690  1.0000
  H   H507      1.0  0.58351  0.89875  0.75657  1.0000
  H   H508      1.0  0.59330  0.90150  0.82873  1.0000
  H   H509      1.0  0.51576  0.95450  0.52524  1.0000
  H   H510      1.0  0.59638  0.54727  0.67032  1.0000
  H   H511      1.0  0.52137  0.57217  0.71830  1.0000
  N   N31       1.0  0.52267  0.98563  0.56669  1.0000
  C   C427      1.0  0.48305  0.57337  0.78904  1.0000
  H   H512      1.0  0.48322  0.62364  0.69248  1.0000
  C   C428      1.0  0.56054  0.73351  0.59659  1.0000
  C   C429      1.0  0.57106  0.75695  0.58679  1.0000
  C   C430      1.0  0.56200  0.78152  0.59521  1.0000
  C   C431      1.0  0.54229  0.78288  0.61365  1.0000
  C   C432      1.0  0.53176  0.75947  0.62348  1.0000
  C   C433      1.0  0.54080  0.73490  0.61500  1.0000
  H   H513      1.0  0.58632  0.75604  0.57254  1.0000
  H   H514      1.0  0.57016  0.79933  0.58702  1.0000
  H   H515      1.0  0.51649  0.76029  0.63767  1.0000
  H   H516      1.0  0.53253  0.71704  0.62264  1.0000
  C   C434      1.0  0.59503  0.61429  0.75636  1.0000
  C   C435      1.0  0.59681  0.60745  0.79711  1.0000
  C   C436      1.0  0.61627  0.60943  0.81746  1.0000
  C   C437      1.0  0.63427  0.61792  0.79705  1.0000
  C   C438      1.0  0.63240  0.62504  0.75642  1.0000
  C   C439      1.0  0.61288  0.62353  0.73630  1.0000
  H   H517      1.0  0.58312  0.60033  0.81300  1.0000
  H   H518      1.0  0.61748  0.60373  0.84862  1.0000
  H   H519      1.0  0.62836  0.60749  0.64858  1.0000
  H   H520      1.0  0.61172  0.62921  0.70519  1.0000
  C   C440      1.0  0.49166  0.62737  0.72118  1.0000
  H   H521      1.0  0.53510  0.97577  0.62516  1.0000
  N   N32       1.0  0.62510  0.56555  0.64953  1.0000
  C   C441      1.0  0.65985  0.56412  0.68584  1.0000
  H   H522      1.0  0.65813  0.88836  0.79894  1.0000
  C   C442      1.0  0.58070  0.73754  0.68803  1.0000
  C   C443      1.0  0.51462  0.59099  0.70748  1.0000
  C   C444      1.0  0.47410  0.58797  0.60868  1.0000
  C   C445      1.0  0.45211  0.59099  0.60628  1.0000
  C   C446      1.0  0.43840  0.56948  0.61181  1.0000
  C   C447      1.0  0.44655  0.54468  0.62039  1.0000
  C   C448      1.0  0.46855  0.54160  0.62246  1.0000
  C   C449      1.0  0.48227  0.56301  0.61617  1.0000
  H   H523      1.0  0.44561  0.61020  0.60057  1.0000
  H   H524      1.0  0.42154  0.57223  0.61040  1.0000
  H   H525      1.0  0.47502  0.52252  0.62919  1.0000
  H   H526      1.0  0.49912  0.56025  0.61782  1.0000
  H   H527      1.0  0.57230  0.81678  0.66847  1.0000
  C   C450      1.0  0.45383  0.55758  0.73107  1.0000
  C   C451      1.0  0.63750  0.56316  0.68700  1.0000
  Fe  Fe62      1.0  0.39496  0.51118  0.61885  1.0000
  H   H528      1.0  0.60026  0.90514  0.50544  1.0000
  H   H529      1.0  0.52801  0.60394  0.69934  1.0000
  H   H530      1.0  0.59314  0.56773  0.62761  1.0000
  H   H531      1.0  0.59100  0.94573  0.93679  1.0000
  H   H532      1.0  0.62039  0.54423  0.59441  1.0000
  C   C452      1.0  0.63093  0.96047  0.93586  1.0000
  H   H533      1.0  0.43692  0.97903  0.66792  1.0000
  H   H534      1.0  0.44268  0.55115  0.70833  1.0000
  H   H535      1.0  0.52413  0.59450  0.78425  1.0000
  H   H536      1.0  0.60579  0.91667  0.93208  1.0000
  S   S127      1.0  0.63281  0.89792  0.87083  1.0000
  H   H537      1.0  0.52722  0.62581  0.76215  1.0000
  C   C453      1.0  0.51506  0.61136  0.77203  1.0000
  H   H538      1.0  0.49396  0.57834  0.81270  1.0000
  C   C454      1.0  0.63068  0.59029  0.62861  1.0000
  Fe  Fe63      1.0  0.38906  0.98616  0.61904  1.0000
  H   H539      1.0  0.50588  0.58696  0.67926  1.0000
  H   H540      1.0  0.62621  0.52424  0.63749  1.0000
  H   H541      1.0  0.50597  0.62077  0.79654  1.0000
  H   H542      1.0  0.63241  0.72323  0.67684  1.0000
  H   H543      1.0  0.46943  0.58344  0.69115  1.0000
  H   H544      1.0  0.50824  0.98493  0.62553  1.0000
  H   H545      1.0  0.63533  0.77088  0.68083  1.0000
  H   H546      1.0  0.64624  0.63152  0.74032  1.0000
  H   H547      1.0  0.62085  0.59333  0.60127  1.0000
  C   C455      1.0  0.52354  0.98924  0.61081  1.0000
  C   C456      1.0  0.48441  0.58452  0.75004  1.0000
  C   C457      1.0  0.45289  0.54706  0.76951  1.0000
  H   H548      1.0  0.56551  0.72782  0.68892  1.0000
  C   C458      1.0  0.46927  0.57608  0.72146  1.0000
  H   H549      1.0  0.49960  0.95444  0.56930  1.0000
  H   H550      1.0  0.48029  0.63631  0.74241  1.0000
  H   H551      1.0  0.61120  0.55959  0.72965  1.0000
  C   C459      1.0  0.62985  0.54324  0.62263  1.0000
  C   C460      1.0  0.62804  0.56005  0.72536  1.0000
  H   H552      1.0  0.52617  0.94386  0.57218  1.0000
  C   C461      1.0  0.64029  0.55867  0.76016  1.0000
  H   H553      1.0  0.57539  0.81484  0.72244  1.0000
  C   C462      1.0  0.59881  0.72264  0.68305  1.0000
  N   N33       1.0  0.50115  0.60326  0.73832  1.0000
  H   H554      1.0  0.58535  0.84230  0.69536  1.0000
  H   H555      1.0  0.56716  0.77509  0.69258  1.0000
  N   N34       1.0  0.47171  0.85069  0.66798  1.0000
  C   C463      1.0  0.47204  0.83668  0.62893  1.0000
  C   C464      1.0  0.49210  0.86468  0.67197  1.0000
  C   C465      1.0  0.47028  0.83076  0.70017  1.0000
  C   C466      1.0  0.45406  0.86943  0.67183  1.0000
  C   C467      1.0  0.45254  0.88583  0.70608  1.0000
  C   C468      1.0  0.43790  0.87185  0.64246  1.0000
  C   C469      1.0  0.43620  0.90389  0.71021  1.0000
  C   C470      1.0  0.42153  0.88987  0.64711  1.0000
  C   C471      1.0  0.42073  0.90591  0.68077  1.0000
  H   H556      1.0  0.47348  0.85063  0.60340  1.0000
  H   H557      1.0  0.48576  0.82317  0.62665  1.0000
  H   H558      1.0  0.45779  0.82427  0.62469  1.0000
  H   H559      1.0  0.49334  0.88075  0.64969  1.0000
  H   H560      1.0  0.50565  0.85130  0.66721  1.0000
  H   H561      1.0  0.49451  0.87358  0.70199  1.0000
  H   H562      1.0  0.45500  0.82007  0.69874  1.0000
  H   H563      1.0  0.48316  0.81602  0.69771  1.0000
  H   H564      1.0  0.47162  0.83962  0.73050  1.0000
  H   H565      1.0  0.46418  0.88513  0.72970  1.0000
  H   H566      1.0  0.43770  0.86049  0.61523  1.0000
  H   H567      1.0  0.43574  0.91682  0.73596  1.0000
  H   H568      1.0  0.40977  0.89223  0.62376  1.0000
  S   S128      1.0  0.65975  0.61761  0.81940  1.0000
  H   H569      1.0  0.50386  0.64233  0.71380  1.0000
  H   H570      1.0  0.46668  0.54661  0.82831  1.0000
  H   H571      1.0  0.64664  0.54289  0.61345  1.0000
  H   H572      1.0  0.44094  0.53260  0.77671  1.0000
  N   N35       1.0  0.60363  0.80701  0.68869  1.0000
  C   C472      1.0  0.61753  0.81494  0.72242  1.0000
  C   C473      1.0  0.61298  0.81645  0.65059  1.0000
  C   C474      1.0  0.58321  0.82067  0.69398  1.0000
  C   C475      1.0  0.60164  0.77809  0.68755  1.0000
  C   C476      1.0  0.58194  0.76486  0.69007  1.0000
  C   C477      1.0  0.61983  0.76225  0.68310  1.0000
  H   H573      1.0  0.59762  0.70152  0.68024  1.0000
  C   C478      1.0  0.61836  0.73495  0.68083  1.0000
  H   H574      1.0  0.64725  0.59069  0.61820  1.0000
  H   H575      1.0  0.63390  0.80776  0.71891  1.0000
  H   H576      1.0  0.61876  0.83666  0.72492  1.0000
  H   H577      1.0  0.61145  0.80740  0.75151  1.0000
  H   H578      1.0  0.62925  0.80918  0.64606  1.0000
  H   H579      1.0  0.61397  0.83825  0.64964  1.0000
  H   H580      1.0  0.60339  0.81000  0.62440  1.0000
  H   H581      1.0  0.63582  0.94693  0.91141  1.0000
  H   H582      1.0  0.62028  0.97515  0.92200  1.0000
  H   H583      1.0  0.59087  0.98509  0.96536  1.0000
  C   C479      1.0  0.51563  0.95854  0.55796  1.0000
  S   S129      1.0  0.65422  0.63073  0.94079  1.0000
  H   H584      1.0  0.59256  0.92330  0.97845  1.0000
  H   H585      1.0  0.64532  0.97094  0.94636  1.0000
  H   H586      1.0  0.54526  0.98462  0.51831  1.0000
  H   H587      1.0  0.63885  0.91104  0.95917  1.0000
  H   H588      1.0  0.48044  0.99069  0.58360  1.0000
  Fe  Fe64      1.0  0.66539  0.89032  0.89772  1.0000
  H   H589      1.0  0.34417  0.55173  0.50903  1.0000
  H   H590      1.0  0.34096  0.50407  0.50866  1.0000
  C   C480      1.0  0.54450  0.98833  0.55118  1.0000
  C   C481      1.0  0.59873  0.98380  0.99403  1.0000
  S   S130      1.0  0.55714  0.92530  0.50980  1.0000
  C   C482      1.0  0.63550  0.92557  0.98323  1.0000
  C   C483      1.0  0.66211  0.56054  0.75804  1.0000
  Fe  Fe65      1.0  0.34187  0.99887  0.61039  1.0000
  Fe  Fe66      1.0  0.95427  0.34778  0.09211  1.0000
  S   S131      1.0  0.95867  0.35597  0.15766  1.0000
  S   S132      1.0  0.96368  0.31041  0.05955  1.0000
  Fe  Fe67      1.0  0.93772  0.40290  0.07435  1.0000
  S   S133      1.0  0.94026  0.41515  0.13926  1.0000
  H   H591      1.0  0.99761  0.18437  0.17814  1.0000
  Fe  Fe68      1.0  0.97190  0.39519  0.13846  1.0000
  Fe  Fe69      1.0  0.92689  0.37542  0.15399  1.0000
  S   S134      1.0  0.90124  0.36328  0.19837  1.0000
  S   S135      1.0  0.97017  0.38531  0.07330  1.0000
  S   S136      1.0  0.92169  0.36472  0.08895  1.0000
  Fe  Fe70      1.0  0.84419  0.39347  0.40227  1.0000
  S   S137      1.0  0.81771  0.37340  0.37096  1.0000
  S   S138      1.0  0.87266  0.40873  0.36769  1.0000
  Fe  Fe71      1.0  0.81508  0.34775  0.42559  1.0000
  Fe  Fe72      1.0  0.79612  0.40164  0.40177  1.0000
  S   S139      1.0  0.77356  0.42363  0.35989  1.0000
  S   S140      1.0  0.82298  0.42360  0.43025  1.0000
  H   H592      1.0  0.99802  0.29897  0.13362  1.0000
  S   S141      1.0  0.67929  0.46578  0.37605  1.0000
  C   C484      1.0  0.95870  0.43492  0.25301  1.0000
  Fe  Fe73      1.0  0.78809  0.10470  0.42821  1.0000
  S   S142      1.0  0.81602  0.07893  0.41513  1.0000
  S   S143      1.0  0.75351  0.09138  0.42756  1.0000
  Fe  Fe74      1.0  0.82973  0.11478  0.38505  1.0000
  S   S144      1.0  0.84188  0.11847  0.32084  1.0000
  S   S145      1.0  0.80093  0.13983  0.39511  1.0000
  C   C485      1.0  0.85630  0.28442  0.35173  1.0000
  S   S146      1.0  0.69841  0.03206  0.29403  1.0000
  Fe  Fe75      1.0  0.93511  0.09946  0.09096  1.0000
  S   S147      1.0  0.95695  0.08315  0.13811  1.0000
  S   S148      1.0  0.91918  0.06668  0.05533  1.0000
  Fe  Fe76      1.0  0.94310  0.15619  0.11902  1.0000
  S   S149      1.0  0.96550  0.14316  0.16729  1.0000
  S   S150      1.0  0.93227  0.19875  0.12232  1.0000
  Fe  Fe77      1.0  0.97885  0.11576  0.12099  1.0000
  Fe  Fe78      1.0  0.94156  0.11180  0.18021  1.0000
  S   S151      1.0  0.93282  0.10115  0.24450  1.0000
  S   S152      1.0  0.95783  0.13086  0.07121  1.0000
  S   S153      1.0  0.91841  0.12589  0.13448  1.0000
  C   C486      1.0  0.71378  0.04741  0.33229  1.0000
  C   C487      1.0  0.70636  0.05074  0.37143  1.0000
  C   C488      1.0  0.71892  0.06371  0.40030  1.0000
  C   C489      1.0  0.73909  0.07339  0.39066  1.0000
  C   C490      1.0  0.74659  0.06979  0.35164  1.0000
  C   C491      1.0  0.73398  0.05699  0.32269  1.0000
  H   H593      1.0  0.69097  0.04338  0.37951  1.0000
  H   H594      1.0  0.71292  0.06640  0.43032  1.0000
  H   H595      1.0  0.76199  0.07721  0.34363  1.0000
  H   H596      1.0  0.73991  0.05454  0.29257  1.0000
  C   C492      1.0  0.86763  0.11457  0.30124  1.0000
  C   C493      1.0  0.88445  0.10552  0.32450  1.0000
  C   C494      1.0  0.90442  0.10186  0.30689  1.0000
  C   C495      1.0  0.90786  0.10768  0.26618  1.0000
  C   C496      1.0  0.89119  0.11756  0.24337  1.0000
  C   C497      1.0  0.87116  0.12071  0.26070  1.0000
  H   H597      1.0  0.88199  0.10076  0.35574  1.0000
  H   H598      1.0  0.91723  0.09425  0.32482  1.0000
  H   H599      1.0  0.89367  0.12250  0.21229  1.0000
  H   H600      1.0  0.85827  0.12782  0.24251  1.0000
  H   H601      1.0  0.94090  0.44782  0.39648  1.0000
  H   H602      1.0  0.86069  0.03001  0.13018  1.0000
  C   C498      1.0  0.95269  0.43140  0.34133  1.0000
  H   H603      1.0  0.81189  0.42241  0.31683  1.0000
  H   H604      1.0  0.72871  0.38275  0.32846  1.0000
  C   C499      1.0  0.99178  0.23347  0.14785  1.0000
  H   H605      1.0  0.88632  0.08085  0.11256  1.0000
  H   H606      1.0  0.70501  0.12797  0.42619  1.0000
  C   C500      1.0  0.82097  0.27117  0.46545  1.0000
  C   C501      1.0  0.83099  0.36898  0.23547  1.0000
  H   H607      1.0  0.82625  0.28818  0.48198  1.0000
  C   C502      1.0  0.74704  0.43429  0.36461  1.0000
  C   C503      1.0  0.73457  0.42791  0.39772  1.0000
  C   C504      1.0  0.71385  0.43761  0.40055  1.0000
  C   C505      1.0  0.70521  0.45337  0.37007  1.0000
  C   C506      1.0  0.71753  0.45929  0.33656  1.0000
  C   C507      1.0  0.73833  0.44982  0.33393  1.0000
  H   H608      1.0  0.74082  0.41550  0.42107  1.0000
  H   H609      1.0  0.70442  0.43286  0.42653  1.0000
  H   H610      1.0  0.70838  0.41237  0.28450  1.0000
  H   H611      1.0  0.74778  0.45481  0.30809  1.0000
  C   C508      1.0  0.95466  0.27941  0.07662  1.0000
  C   C509      1.0  0.94060  0.27726  0.10864  1.0000
  C   C510      1.0  0.93394  0.25241  0.12197  1.0000
  C   C511      1.0  0.94130  0.22939  0.10368  1.0000
  C   C512      1.0  0.95512  0.23152  0.07122  1.0000
  C   C513      1.0  0.96181  0.25642  0.05786  1.0000
  H   H612      1.0  0.93485  0.29476  0.12322  1.0000
  H   H613      1.0  0.92305  0.25101  0.14678  1.0000
  H   H614      1.0  0.96027  0.21407  0.05592  1.0000
  H   H615      1.0  0.87764  0.04977  0.30322  1.0000
  C   C514      1.0  0.89363  0.37651  0.24524  1.0000
  C   C515      1.0  0.89983  0.40151  0.25769  1.0000
  C   C516      1.0  0.89317  0.41124  0.29513  1.0000
  C   C517      1.0  0.88004  0.39622  0.32018  1.0000
  C   C518      1.0  0.87343  0.37149  0.30725  1.0000
  C   C519      1.0  0.88035  0.36165  0.27014  1.0000
  H   H616      1.0  0.90952  0.41337  0.23827  1.0000
  H   H617      1.0  0.89829  0.43044  0.30486  1.0000
  H   H618      1.0  0.86329  0.35975  0.32615  1.0000
  H   H619      1.0  0.87540  0.34232  0.26068  1.0000
  H   H620      1.0  0.85539  0.41435  0.24341  1.0000
  H   H621      1.0  0.84466  0.37482  0.21838  1.0000
  C   C520      1.0  0.80044  0.37692  0.27700  1.0000
  H   H622      1.0  0.83752  0.32848  0.22263  1.0000
  H   H623      1.0  0.82026  0.05542  0.23650  1.0000
  H   H624      1.0  0.89810  0.05070  0.24232  1.0000
  C   C521      1.0  0.70028  0.40060  0.30673  1.0000
  N   N36       1.0  0.82211  0.41585  0.25579  1.0000
  C   C522      1.0  0.82597  0.42470  0.29750  1.0000
  C   C523      1.0  0.84075  0.42351  0.23156  1.0000
  C   C524      1.0  0.80360  0.43009  0.23966  1.0000
  C   C525      1.0  0.81789  0.38729  0.25563  1.0000
  H   H625      1.0  0.85647  0.30556  0.35503  1.0000
  C   C526      1.0  0.87667  0.07825  0.14016  1.0000
  Fe  Fe79      1.0  0.82019  0.39537  0.48182  1.0000
  H   H626      1.0  0.83056  0.44572  0.29903  1.0000
  S   S154      1.0  0.80120  0.11870  0.48774  1.0000
  H   H627      1.0  0.86004  0.07780  0.12996  1.0000
  H   H628      1.0  0.84353  0.44505  0.23220  1.0000
  H   H629      1.0  0.83881  0.41786  0.19955  1.0000
  H   H630      1.0  0.99147  0.43064  0.30327  1.0000
  C   C527      1.0  0.88118  0.05109  0.23900  1.0000
  H   H631      1.0  0.79939  0.42290  0.20918  1.0000
  H   H632      1.0  0.85296  0.28564  0.28779  1.0000
  C   C528      1.0  0.85781  0.26851  0.38549  1.0000
  C   C529      1.0  0.83728  0.05390  0.23696  1.0000
  H   H633      1.0  0.78379  0.34250  0.29708  1.0000
  H   H634      1.0  0.78945  0.42780  0.25903  1.0000
  C   C530      1.0  0.98733  0.41270  0.28614  1.0000
  H   H635      1.0  0.99233  0.39548  0.30424  1.0000
  C   C531      1.0  0.90597  0.05513  0.16810  1.0000
  C   C532      1.0  0.93953  0.38815  0.32469  1.0000
  H   H636      1.0  0.91197  0.03727  0.18336  1.0000
  C   C533      1.0  0.92780  0.38799  0.36011  1.0000
  C   C534      1.0  0.81122  0.27440  0.42815  1.0000
  C   C535      1.0  0.81731  0.22340  0.46020  1.0000
  C   C536      1.0  0.68124  0.11693  0.38289  1.0000
  H   H637      1.0  0.80193  0.20965  0.40675  1.0000
  H   H638      1.0  0.98025  0.22049  0.16116  1.0000
  H   H639      1.0  0.88653  0.03131  0.10911  1.0000
  S   S155      1.0  0.84341  0.36628  0.45579  1.0000
  C   C537      1.0  0.70129  0.12538  0.39468  1.0000
  H   H640      1.0  0.85906  0.27745  0.41488  1.0000
  C   C538      1.0  0.96126  0.38819  0.25008  1.0000
  C   C539      1.0  0.94073  0.43109  0.37649  1.0000
  H   H641      1.0  0.93780  0.37116  0.30570  1.0000
  H   H642      1.0  0.91756  0.37154  0.36698  1.0000
  C   C540      1.0  0.74100  0.49609  0.41720  1.0000
  C   C541      1.0  0.80448  0.25197  0.40711  1.0000
  H   H643      1.0  0.67001  0.11375  0.40660  1.0000
  Fe  Fe80      1.0  0.82987  0.09499  0.47291  1.0000
  H   H644      1.0  0.93599  0.34421  0.01133  1.0000
  C   C542      1.0  0.82401  0.24580  0.48131  1.0000
  H   H645      1.0  0.71113  0.47143  0.31294  1.0000
  C   C543      1.0  0.67643  0.11210  0.34186  1.0000
  H   H646      1.0  0.97256  0.25790  0.03286  1.0000
  H   H647      1.0  0.79755  0.47152  0.45976  1.0000
  H   H648      1.0  0.67279  0.36015  0.38972  1.0000
  H   H649      1.0  0.96667  0.43543  0.22327  1.0000
  N   N37       1.0  0.96456  0.41127  0.27643  1.0000
  Fe  Fe81      1.0  0.81643  0.15158  0.45293  1.0000
  H   H650      1.0  0.72538  0.12692  0.30422  1.0000
  H   H651      1.0  0.79692  0.25425  0.37825  1.0000
  C   C544      1.0  0.92820  0.40950  0.38569  1.0000
  S   S156      1.0  0.84591  0.12863  0.44099  1.0000
  N   N38       1.0  0.85238  0.20033  0.33876  1.0000
  C   C545      1.0  0.83155  0.19388  0.32107  1.0000
  C   C546      1.0  0.86915  0.19082  0.31153  1.0000
  C   C547      1.0  0.85429  0.18546  0.37688  1.0000
  C   C548      1.0  0.85422  0.22907  0.34382  1.0000
  C   C549      1.0  0.85309  0.24589  0.30994  1.0000
  C   C550      1.0  0.85673  0.24124  0.38188  1.0000
  H   H652      1.0  0.82960  0.20202  0.29044  1.0000
  H   H653      1.0  0.82916  0.17231  0.31842  1.0000
  H   H654      1.0  0.81856  0.20166  0.33995  1.0000
  H   H655      1.0  0.86762  0.19870  0.28064  1.0000
  H   H656      1.0  0.86872  0.16910  0.30846  1.0000
  H   H657      1.0  0.88505  0.19624  0.32297  1.0000
  H   H658      1.0  0.84143  0.19042  0.39818  1.0000
  H   H659      1.0  0.85317  0.16395  0.37170  1.0000
  H   H660      1.0  0.86972  0.18903  0.39175  1.0000
  H   H661      1.0  0.85113  0.23807  0.28008  1.0000
  H   H662      1.0  0.85731  0.23025  0.40952  1.0000
  C   C551      1.0  0.85411  0.27314  0.31397  1.0000
  H   H663      1.0  0.83878  0.41317  0.31167  1.0000
  N   N39       1.0  0.88276  0.05436  0.16273  1.0000
  S   S157      1.0  0.82193  0.19189  0.48131  1.0000
  H   H664      1.0  0.80737  0.31163  0.26220  1.0000
  C   C552      1.0  0.87768  0.03107  0.13801  1.0000
  C   C553      1.0  0.87104  0.05312  0.20105  1.0000
  C   C554      1.0  0.84869  0.05404  0.20114  1.0000
  C   C555      1.0  0.71285  0.12474  0.32597  1.0000
  C   C556      1.0  0.86957  0.05056  0.27456  1.0000
  H   H665      1.0  0.97072  0.38980  0.22220  1.0000
  C   C557      1.0  0.84772  0.05233  0.27360  1.0000
  H   H666      1.0  0.80660  0.45154  0.23765  1.0000
  C   C558      1.0  0.95220  0.41010  0.31399  1.0000
  C   C559      1.0  0.82708  0.34204  0.23770  1.0000
  C   C560      1.0  0.79676  0.34995  0.27923  1.0000
  H   H667      1.0  0.88181  0.01269  0.15413  1.0000
  H   H668      1.0  0.97896  0.18736  0.11307  1.0000
  H   H669      1.0  0.91092  0.07262  0.18561  1.0000
  H   H670      1.0  0.96634  0.36969  0.26475  1.0000
  H   H671      1.0  0.69053  0.11273  0.28219  1.0000
  H   H672      1.0  0.78993  0.38957  0.29350  1.0000
  H   H673      1.0  0.91435  0.05625  0.13890  1.0000
  H   H674      1.0  0.99716  0.41308  0.25845  1.0000
  H   H675      1.0  0.83890  0.05301  0.30141  1.0000
  H   H676      1.0  0.96323  0.45342  0.26823  1.0000
  S   S158      1.0  0.80769  0.30573  0.40565  1.0000
  H   H677      1.0  0.83987  0.05529  0.17351  1.0000
  H   H678      1.0  0.73278  0.13472  0.37593  1.0000
  H   H679      1.0  0.96215  0.44859  0.33547  1.0000
  C   C561      1.0  0.80743  0.22663  0.42304  1.0000
  S   S159      1.0  0.79161  0.37488  0.45463  1.0000
  C   C562      1.0  0.71704  0.12923  0.36633  1.0000
  C   C563      1.0  0.81010  0.33253  0.25979  1.0000
  H   H680      1.0  0.77421  0.43396  0.45260  1.0000
  S   S160      1.0  0.93250  0.43250  0.02393  1.0000
  C   C564      1.0  0.67966  0.37164  0.36595  1.0000
  H   H681      1.0  0.76951  0.47462  0.42010  1.0000
  H   H682      1.0  0.87880  0.09608  0.15891  1.0000
  H   H683      1.0  0.76108  0.47055  0.01954  1.0000
  C   C565      1.0  0.70148  0.36956  0.36110  1.0000
  H   H684      1.0  0.97436  0.26735  0.16698  1.0000
  H   H685      1.0  0.71057  0.35698  0.38075  1.0000
  H   H686      1.0  0.91838  0.40958  0.41226  1.0000
  H   H687      1.0  0.94146  0.43554  0.24732  1.0000
  C   C566      1.0  0.69285  0.11643  0.31376  1.0000
  C   C567      1.0  0.71175  0.38395  0.33151  1.0000
  H   H688      1.0  0.90301  0.02595  0.00511  1.0000
  H   H689      1.0  0.94449  0.38625  0.24059  1.0000
  C   C568      1.0  0.98814  0.26035  0.15117  1.0000
  C   C569      1.0  0.67853  0.40307  0.31159  1.0000
  C   C570      1.0  0.75682  0.48264  0.43778  1.0000
  H   H690      1.0  0.74193  0.49843  0.38494  1.0000
  S   S161      1.0  0.99886  0.41607  0.17113  1.0000
  C   C571      1.0  0.90804  0.06773  0.00661  1.0000
  H   H691      1.0  0.99598  0.16270  0.09358  1.0000
  H   H692      1.0  0.92512  0.37594  0.00055  1.0000
  C   C572      1.0  0.99439  0.18416  0.09815  1.0000
  H   H693      1.0  0.99347  0.19341  0.06802  1.0000
  C   C573      1.0  0.66747  0.38844  0.34104  1.0000
  H   H694      1.0  0.89419  0.40312  0.00126  1.0000
  C   C574      1.0  0.75569  0.47843  0.47981  1.0000
  H   H695      1.0  0.67049  0.41705  0.29271  1.0000
  H   H696      1.0  0.75437  0.42703  0.48936  1.0000
  H   H697      1.0  0.66770  0.07913  0.27912  1.0000
  C   C575      1.0  0.77046  0.43524  0.48509  1.0000
  C   C576      1.0  0.79327  0.47285  0.49193  1.0000
  Fe  Fe82      1.0  0.86805  0.47900  0.83330  1.0000
  S   S162      1.0  0.86670  0.44666  0.88056  1.0000
  C   C577      1.0  0.90568  0.38147  0.87184  1.0000
  S   S163      1.0  0.87157  0.47445  0.67642  1.0000
  H   H698      1.0  0.93528  0.06269  0.93291  1.0000
  S   S164      1.0  0.84172  0.47777  0.78779  1.0000
  H   H699      1.0  0.92174  0.03151  0.89045  1.0000
  C   C578      1.0  0.98572  0.06072  0.96465  1.0000
  S   S165      1.0  0.81656  0.41008  0.54696  1.0000
  C   C579      1.0  0.89252  0.04390  0.95004  1.0000
  H   H700      1.0  0.97551  0.37494  0.94585  1.0000
  S   S166      1.0  0.88955  0.03437  0.77888  1.0000
  S   S167      1.0  0.84282  0.02061  0.81283  1.0000
  Fe  Fe83      1.0  0.85928  0.01914  0.75274  1.0000
  S   S168      1.0  0.83898  0.03645  0.70172  1.0000
  Fe  Fe84      1.0  0.87410  0.03248  0.83932  1.0000
  S   S169      1.0  0.88000  0.06796  0.87922  1.0000
  H   H701      1.0  0.87984  0.45826  0.59528  1.0000
  H   H702      1.0  0.77365  0.00952  0.73065  1.0000
  H   H703      1.0  0.91077  0.10942  0.99868  1.0000
  H   H704      1.0  0.73539  0.48625  0.53171  1.0000
  H   H705      1.0  0.83043  0.48744  0.87729  1.0000
  C   C580      1.0  0.89022  0.06730  0.92870  1.0000
  C   C581      1.0  0.89676  0.09091  0.94663  1.0000
  H   H706      1.0  0.89499  0.10912  0.93039  1.0000
  C   C582      1.0  0.84268  0.04611  0.65059  1.0000
  C   C583      1.0  0.82570  0.05752  0.62970  1.0000
  C   C584      1.0  0.82778  0.06576  0.58941  1.0000
  C   C585      1.0  0.84690  0.06256  0.56919  1.0000
  C   C586      1.0  0.86387  0.05117  0.59011  1.0000
  C   C587      1.0  0.86183  0.04303  0.63047  1.0000
  H   H707      1.0  0.81081  0.06008  0.64482  1.0000
  H   H708      1.0  0.81449  0.07426  0.57387  1.0000
  H   H709      1.0  0.87873  0.04849  0.57488  1.0000
  H   H710      1.0  0.87506  0.03431  0.64589  1.0000
  H   H711      1.0  0.90323  0.47741  0.90637  1.0000
  C   C588      1.0  0.93690  0.07220  0.84834  1.0000
  H   H712      1.0  0.92713  0.07008  0.82073  1.0000
  C   C589      1.0  0.76471  0.48134  0.99241  1.0000
  C   C590      1.0  0.90121  0.46118  0.92687  1.0000
  H   H713      1.0  0.97246  0.05509  0.81398  1.0000
  C   C591      1.0  0.85584  0.45670  0.64084  1.0000
  C   C592      1.0  0.86416  0.45147  0.60250  1.0000
  C   C593      1.0  0.85248  0.43736  0.57342  1.0000
  C   C594      1.0  0.83222  0.42815  0.58224  1.0000
  C   C595      1.0  0.82384  0.43353  0.62046  1.0000
  C   C596      1.0  0.83551  0.44767  0.64952  1.0000
  H   H714      1.0  0.85015  0.18734  0.56110  1.0000
  H   H715      1.0  0.85924  0.43346  0.54431  1.0000
  H   H716      1.0  0.80825  0.42651  0.62786  1.0000
  H   H717      1.0  0.82881  0.45143  0.67872  1.0000
  C   C597      1.0  0.88451  0.44365  0.92140  1.0000
  C   C598      1.0  0.88211  0.42270  0.94849  1.0000
  H   H718      1.0  0.86922  0.40906  0.94452  1.0000
  H   H719      1.0  0.88745  0.02562  0.93672  1.0000
  C   C599      1.0  0.99548  0.05232  0.92956  1.0000
  H   H720      1.0  0.92569  0.07802  0.87225  1.0000
  H   H721      1.0  0.78160  0.42207  0.50095  1.0000
  C   C600      1.0  0.94945  0.33363  0.93762  1.0000
  H   H722      1.0  0.77007  0.48137  0.55801  1.0000
  H   H723      1.0  0.77610  0.46074  0.86031  1.0000
  H   H724      1.0  0.79653  0.43450  0.91181  1.0000
  C   C601      1.0  0.91554  0.45751  0.95868  1.0000
  H   H725      1.0  0.96040  0.39077  0.98491  1.0000
  C   C602      1.0  0.92912  0.35662  0.98718  1.0000
  H   H726      1.0  0.92851  0.47108  0.96240  1.0000
  C   C603      1.0  0.93263  0.02670  0.86560  1.0000
  C   C604      1.0  0.95203  0.05963  0.93087  1.0000
  C   C605      1.0  0.96399  0.06414  0.96538  1.0000
  S   S170      1.0  0.85050  0.07231  0.51806  1.0000
  N   N40       1.0  0.84060  0.15099  0.58874  1.0000
  C   C606      1.0  0.85461  0.17423  0.58652  1.0000
  C   C607      1.0  0.84306  0.13556  0.55151  1.0000
  C   C608      1.0  0.81852  0.16055  0.58969  1.0000
  C   C609      1.0  0.84639  0.13461  0.62372  1.0000
  C   C610      1.0  0.83207  0.12861  0.65520  1.0000
  C   C611      1.0  0.86689  0.12373  0.62671  1.0000
  C   C612      1.0  0.83805  0.11268  0.68739  1.0000
  C   C613      1.0  0.87265  0.10779  0.65897  1.0000
  C   C614      1.0  0.85828  0.10233  0.68928  1.0000
  H   H727      1.0  0.87132  0.16876  0.58151  1.0000
  H   H728      1.0  0.93533  0.32198  0.92921  1.0000
  H   H729      1.0  0.95425  0.41079  0.92595  1.0000
  C   C615      1.0  0.96050  0.04003  0.82198  1.0000
  H   H730      1.0  0.85943  0.12870  0.54654  1.0000
  H   H731      1.0  0.83869  0.14714  0.52455  1.0000
  H   H732      1.0  0.80707  0.14397  0.58944  1.0000
  H   H733      1.0  0.81558  0.17311  0.61630  1.0000
  H   H734      1.0  0.90885  0.34777  0.90868  1.0000
  H   H735      1.0  0.81605  0.13553  0.65535  1.0000
  H   H736      1.0  0.87849  0.12692  0.60355  1.0000
  H   H737      1.0  0.82679  0.10763  0.71054  1.0000
  H   H738      1.0  0.88814  0.09896  0.65991  1.0000
  H   H739      1.0  0.86256  0.08927  0.71362  1.0000
  C   C616      1.0  0.96359  0.37173  0.96973  1.0000
  H   H740      1.0  0.94803  0.08879  0.84375  1.0000
  C   C617      1.0  0.79016  0.47376  0.85961  1.0000
  H   H741      1.0  0.92254  0.02334  0.83885  1.0000
  C   C618      1.0  0.93390  0.37594  0.92167  1.0000
  C   C619      1.0  0.94119  0.40137  0.91098  1.0000
  C   C620      1.0  0.76945  0.46143  0.54462  1.0000
  C   C621      1.0  0.93110  0.41604  0.88122  1.0000
  H   H742      1.0  0.81472  0.17267  0.56280  1.0000
  C   C622      1.0  0.91339  0.40614  0.86175  1.0000
  Fe  Fe85      1.0  0.86593  0.48840  0.74143  1.0000
  H   H743      1.0  0.99213  0.04106  0.86881  1.0000
  H   H744      1.0  0.78233  0.44988  0.55902  1.0000
  H   H745      1.0  0.80566  0.46162  0.50831  1.0000
  H   H746      1.0  0.94040  0.00776  0.87255  1.0000
  C   C623      1.0  0.78445  0.48534  0.92936  1.0000
  H   H747      1.0  0.89150  0.37426  0.85739  1.0000
  H   H748      1.0  0.85383  0.18589  0.61463  1.0000
  C   C624      1.0  0.91573  0.36652  0.90129  1.0000
  H   H749      1.0  0.95792  0.32166  0.96054  1.0000
  N   N41       1.0  0.94397  0.35993  0.95339  1.0000
  H   H750      1.0  0.93650  0.43570  0.87436  1.0000
  N   N42       1.0  0.80007  0.47583  0.89985  1.0000
  H   H751      1.0  0.90513  0.41806  0.83986  1.0000
  N   N43       1.0  0.94830  0.04765  0.85809  1.0000
  C   C625      1.0  0.89636  0.41915  0.98052  1.0000
  H   H752      1.0  0.81817  0.45031  0.93830  1.0000
  H   H753      1.0  0.95972  0.33527  0.91076  1.0000
  C   C626      1.0  0.96143  0.05155  0.89438  1.0000
  C   C627      1.0  0.90574  0.09114  0.98532  1.0000
  C   C628      1.0  0.98360  0.04763  0.89486  1.0000
  H   H754      1.0  0.83289  0.11782  0.55227  1.0000
  H   H755      1.0  0.78778  0.00044  0.77512  1.0000
  C   C629      1.0  0.81784  0.49464  0.89759  1.0000
  H   H756      1.0  0.82035  0.44306  0.88648  1.0000
  S   S171      1.0  0.89284  0.48596  0.78615  1.0000
  H   H757      1.0  0.75453  0.45157  0.55354  1.0000
  H   H758      1.0  0.97099  0.35890  0.99286  1.0000
  C   C630      1.0  0.80901  0.44976  0.90981  1.0000
  H   H759      1.0  0.91412  0.34714  0.97799  1.0000
  C   C631      1.0  0.80244  0.00343  0.94794  1.0000
  H   H760      1.0  0.82513  0.49786  0.92756  1.0000
  C   C632      1.0  0.77951  0.47155  0.96522  1.0000
  H   H761      1.0  0.80134  0.46596  0.83690  1.0000
  C   C633      1.0  0.90133  0.04415  0.98882  1.0000
  C   C634      1.0  0.78882  0.00165  0.74192  1.0000
  H   H762      1.0  0.80095  0.01669  0.73459  1.0000
  C   C635      1.0  0.91331  0.43643  0.98553  1.0000
  H   H763      1.0  0.96833  0.02070  0.82605  1.0000
  H   H764      1.0  0.83161  0.24357  0.51013  1.0000
  H   H765      1.0  0.99497  0.06451  0.99143  1.0000
  H   H766      1.0  0.75543  0.01401  0.99239  1.0000
  H   H767      1.0  0.78604  0.03791  0.96697  1.0000
  H   H768      1.0  0.95010  0.03763  0.79523  1.0000
  H   H769      1.0  0.95632  0.07047  0.99281  1.0000
  H   H770      1.0  0.78688  0.45323  0.97302  1.0000
  C   C636      1.0  0.76814  0.00284  0.97948  1.0000
  H   H771      1.0  0.78503  0.49306  0.84768  1.0000
  C   C637      1.0  0.78559  0.01672  0.96508  1.0000
  H   H772      1.0  0.81589  0.01418  0.93643  1.0000
  H   H773      1.0  0.98055  0.00675  0.99602  1.0000
  C   C638      1.0  0.73776  0.48862  0.49991  1.0000
  H   H774      1.0  0.79463  0.49373  0.50115  1.0000
  N   N44       1.0  0.77187  0.46242  0.50032  1.0000
  H   H775      1.0  0.71580  0.92327  0.25040  1.0000
  H   H776      1.0  0.71192  0.91161  0.17874  1.0000
  S   S172      1.0  0.69221  0.92013  0.03783  1.0000
  H   H777      1.0  0.68950  0.56144  0.14665  1.0000
  H   H778      1.0  0.68580  0.57796  0.07681  1.0000
  H   H779      1.0  0.74296  0.98701  0.04244  1.0000
  C   C639      1.0  0.72346  0.50537  0.43759  1.0000
  C   C640      1.0  0.74581  0.96601  0.03583  1.0000
  C   C641      1.0  0.68233  0.94733  0.10674  1.0000
  C   C642      1.0  0.69947  0.90697  0.19976  1.0000
  H   H780      1.0  0.69718  0.95723  0.10191  1.0000
  H   H781      1.0  0.74314  0.51262  0.00601  1.0000
  C   C643      1.0  0.72191  0.50182  0.47887  1.0000
  H   H782      1.0  0.71084  0.51486  0.42117  1.0000
  C   C644      1.0  0.67544  0.55681  0.12972  1.0000
  H   H783      1.0  0.73210  0.95503  0.04846  1.0000
  H   H784      1.0  0.67520  0.74780  0.00882  1.0000
  C   C645      1.0  0.67343  0.56617  0.08997  1.0000
  H   H785      1.0  0.76011  0.95990  0.05272  1.0000
  H   H786      1.0  0.68808  0.91383  0.29781  1.0000
  C   C646      1.0  0.67577  0.92771  0.07972  1.0000
  C   C647      1.0  0.68539  0.90794  0.26715  1.0000
  H   H787      1.0  0.67506  0.96971  0.16020  1.0000
  C   C648      1.0  0.70160  0.91350  0.24008  1.0000
  H   H788      1.0  0.70811  0.50895  0.49446  1.0000
  H   H789      1.0  0.67937  0.89031  0.15470  1.0000
  C   C649      1.0  0.68111  0.89492  0.18627  1.0000
  H   H790      1.0  0.76332  0.92362  0.00270  1.0000
  C   C650      1.0  0.66978  0.95452  0.13990  1.0000
  H   H791      1.0  0.66709  0.88454  0.33572  1.0000
  H   H792      1.0  0.73536  0.92211  0.99951  1.0000
  H   H793      1.0  0.75954  0.68126  0.87379  1.0000
  S   S173      1.0  0.86369  0.52166  0.84814  1.0000
  S   S174      1.0  0.86118  0.53160  0.75121  1.0000
  Fe  Fe86      1.0  0.88691  0.52875  0.79778  1.0000
  S   S175      1.0  0.91119  0.56221  0.79883  1.0000
  Fe  Fe87      1.0  0.83852  0.52096  0.80053  1.0000
  S   S176      1.0  0.80435  0.53541  0.80267  1.0000
  Fe  Fe88      1.0  0.68360  0.65442  0.95255  1.0000
  Fe  Fe89      1.0  0.71271  0.60846  0.92904  1.0000
  S   S177      1.0  0.68530  0.58169  0.91578  1.0000
  S   S178      1.0  0.74825  0.59962  0.92807  1.0000
  H   H794      1.0  0.73236  0.76361  0.99094  1.0000
  S   S179      1.0  0.69912  0.64257  0.89511  1.0000
  C   C651      1.0  0.94033  0.55217  0.68520  1.0000
  C   C652      1.0  0.75672  0.95967  0.73142  1.0000
  C   C653      1.0  0.76770  0.72681  0.91524  1.0000
  Fe  Fe90      1.0  0.85401  0.97936  0.82124  1.0000
  S   S180      1.0  0.83391  0.94575  0.84609  1.0000
  S   S181      1.0  0.86919  0.97688  0.76002  1.0000
  C   C654      1.0  0.70251  0.75424  0.90582  1.0000
  C   C655      1.0  0.74949  0.93212  0.98692  1.0000
  S   S182      1.0  0.69366  0.87409  0.86639  1.0000
  Fe  Fe91      1.0  0.69779  0.84989  0.92277  1.0000
  Fe  Fe92      1.0  0.71271  0.90514  0.89816  1.0000
  S   S183      1.0  0.73430  0.93627  0.87036  1.0000
  S   S184      1.0  0.68384  0.92337  0.92516  1.0000
  C   C656      1.0  0.80625  0.94381  0.85399  1.0000
  C   C657      1.0  0.79293  0.96504  0.84674  1.0000
  C   C658      1.0  0.77100  0.96240  0.85225  1.0000
  C   C659      1.0  0.76214  0.93868  0.86573  1.0000
  C   C660      1.0  0.77552  0.91767  0.87417  1.0000
  C   C661      1.0  0.79743  0.92022  0.86812  1.0000
  H   H795      1.0  0.81498  0.96599  0.93133  1.0000
  H   H796      1.0  0.76081  0.97882  0.84588  1.0000
  H   H797      1.0  0.76897  0.89927  0.88442  1.0000
  H   H798      1.0  0.80761  0.90370  0.87404  1.0000
  C   C662      1.0  0.97953  0.91862  0.81322  1.0000
  C   C663      1.0  0.95822  0.91721  0.82467  1.0000
  C   C664      1.0  0.94394  0.93734  0.81464  1.0000
  C   C665      1.0  0.95081  0.95914  0.79282  1.0000
  C   C666      1.0  0.97217  0.96069  0.78176  1.0000
  C   C667      1.0  0.98645  0.94061  0.79190  1.0000
  H   H799      1.0  0.95268  0.90034  0.84128  1.0000
  H   H800      1.0  0.92758  0.93579  0.82331  1.0000
  H   H801      1.0  0.97766  0.97739  0.76473  1.0000
  H   H802      1.0  0.98195  0.93896  0.89004  1.0000
  C   C668      1.0  0.78942  0.55472  0.83683  1.0000
  C   C669      1.0  0.76757  0.55716  0.83060  1.0000
  C   C670      1.0  0.75477  0.57098  0.85788  1.0000
  C   C671      1.0  0.76368  0.58264  0.89186  1.0000
  C   C672      1.0  0.78556  0.58040  0.89796  1.0000
  C   C673      1.0  0.79838  0.56659  0.87064  1.0000
  H   H803      1.0  0.76043  0.54807  0.80461  1.0000
  H   H804      1.0  0.73799  0.57248  0.85272  1.0000
  H   H805      1.0  0.79265  0.58927  0.92416  1.0000
  H   H806      1.0  0.81514  0.56502  0.87589  1.0000
  C   C674      1.0  0.98393  0.56820  0.79665  1.0000
  C   C675      1.0  0.97142  0.59056  0.80026  1.0000
  C   C676      1.0  0.94926  0.58824  0.80154  1.0000
  C   C677      1.0  0.93928  0.56359  0.79957  1.0000
  C   C678      1.0  0.95185  0.54117  0.79712  1.0000
  C   C679      1.0  0.97399  0.54350  0.79543  1.0000
  H   H807      1.0  0.97876  0.60970  0.80132  1.0000
  H   H808      1.0  0.93975  0.60572  0.80363  1.0000
  H   H809      1.0  0.94454  0.52204  0.79634  1.0000
  H   H810      1.0  0.81292  0.51404  0.88577  1.0000
  H   H811      1.0  0.71492  0.95852  0.97995  1.0000
  S   S185      1.0  0.93361  0.98509  0.77878  1.0000
  H   H812      1.0  0.70033  0.71191  0.90307  1.0000
  H   H813      1.0  0.67139  0.56076  0.78540  1.0000
  H   H814      1.0  0.77529  0.65008  0.94489  1.0000
  H   H815      1.0  0.73172  0.71636  0.99006  1.0000
  C   C680      1.0  0.96116  0.54224  0.68269  1.0000
  C   C681      1.0  0.73922  0.67027  0.96616  1.0000
  H   H816      1.0  0.75142  0.53766  0.94458  1.0000
  C   C682      1.0  0.68792  0.77458  0.96485  1.0000
  S   S186      1.0  0.69909  0.62211  0.98813  1.0000
  H   H817      1.0  0.82149  0.95089  0.72234  1.0000
  S   S187      1.0  0.88426  0.99134  0.85242  1.0000
  C   C683      1.0  0.76947  0.91472  0.77222  1.0000
  C   C684      1.0  0.92324  0.52244  0.63828  1.0000
  C   C685      1.0  0.79330  0.97792  0.68005  1.0000
  C   C686      1.0  0.74789  0.67521  0.89676  1.0000
  H   H818      1.0  0.77762  0.71747  0.89326  1.0000
  H   H819      1.0  0.75414  0.78860  0.94321  1.0000
  C   C687      1.0  0.67190  0.56306  0.72094  1.0000
  C   C688      1.0  0.96389  0.96793  0.91981  1.0000
  Fe  Fe93      1.0  0.89854  0.99224  0.79079  1.0000
  H   H820      1.0  0.92307  0.58828  0.69946  1.0000
  S   S188      1.0  0.68194  0.69555  0.98003  1.0000
  H   H821      1.0  0.82719  0.98493  0.72523  1.0000
  H   H822      1.0  0.89889  0.55653  0.71178  1.0000
  H   H823      1.0  0.78497  0.94122  0.95491  1.0000
  H   H824      1.0  0.73649  0.90603  0.77832  1.0000
  C   C689      1.0  0.98235  0.95382  0.91306  1.0000
  H   H825      1.0  0.94994  0.96369  0.90205  1.0000
  C   C690      1.0  0.97869  0.55819  0.68999  1.0000
  H   H826      1.0  0.88801  0.53433  0.67600  1.0000
  C   C691      1.0  0.77540  0.67194  0.94637  1.0000
  H   H827      1.0  0.68890  0.56476  0.71961  1.0000
  H   H828      1.0  0.81793  0.96839  0.76900  1.0000
  S   S189      1.0  0.71891  0.88007  0.95218  1.0000
  H   H829      1.0  0.78094  0.67768  0.97680  1.0000
  N   N45       1.0  0.79402  0.97575  0.72437  1.0000
  C   C692      1.0  0.75490  0.76738  0.94351  1.0000
  H   H830      1.0  0.68468  0.79187  0.98246  1.0000
  N   N46       1.0  0.92204  0.53461  0.67858  1.0000
  C   C693      1.0  0.68263  0.74952  0.97980  1.0000
  H   H831      1.0  0.96404  0.52187  0.67607  1.0000
  C   C694      1.0  0.74262  0.75324  0.97045  1.0000
  Fe  Fe94      1.0  0.67064  0.61676  0.88501  1.0000
  C   C695      1.0  0.69680  0.72922  0.92038  1.0000
  H   H832      1.0  0.77433  0.89749  0.78883  1.0000
  H   H833      1.0  0.66816  0.56624  0.65783  1.0000
  C   C696      1.0  0.90140  0.54811  0.68133  1.0000
  C   C697      1.0  0.81605  0.96959  0.73586  1.0000
  C   C698      1.0  0.72910  0.97011  0.97117  1.0000
  H   H834      1.0  0.80076  0.92796  0.76552  1.0000
  H   H835      1.0  0.92403  0.53767  0.61445  1.0000
  C   C699      1.0  0.69823  0.77708  0.92802  1.0000
  H   H836      1.0  0.79686  0.95876  0.66569  1.0000
  C   C700      1.0  0.76700  0.97511  0.97691  1.0000
  H   H837      1.0  0.75022  0.92676  0.95456  1.0000
  C   C701      1.0  0.68718  0.72668  0.95787  1.0000
  H   H838      1.0  0.73090  0.96819  0.93812  1.0000
  H   H839      1.0  0.71062  0.75589  0.87746  1.0000
  C   C702      1.0  0.77859  0.95587  0.73808  1.0000
  S   S190      1.0  0.70830  0.80769  0.91074  1.0000
  C   C703      1.0  0.96329  0.98703  0.94958  1.0000
  C   C704      1.0  0.75921  0.51908  0.95029  1.0000
  H   H840      1.0  0.77766  0.98439  0.66894  1.0000
  H   H841      1.0  0.80504  0.99250  0.66877  1.0000
  H   H842      1.0  0.77702  0.76533  0.89515  1.0000
  H   H843      1.0  0.92094  0.52198  0.73976  1.0000
  H   H844      1.0  0.72543  0.99092  0.97760  1.0000
  C   C705      1.0  0.75458  0.50503  0.98493  1.0000
  C   C706      1.0  0.97604  0.58449  0.69958  1.0000
  Fe  Fe95      1.0  0.68913  0.89727  0.97836  1.0000
  H   H845      1.0  0.98348  0.52605  0.79279  1.0000
  C   C707      1.0  0.74241  0.72587  0.96947  1.0000
  N   N47       1.0  0.75424  0.68285  0.93798  1.0000
  H   H846      1.0  0.73250  0.68418  0.88853  1.0000
  C   C708      1.0  0.92215  0.51356  0.70914  1.0000
  H   H847      1.0  0.78736  0.67869  0.92438  1.0000
  C   C709      1.0  0.93820  0.57910  0.69531  1.0000
  S   S191      1.0  0.99700  0.89315  0.82820  1.0000
  C   C710      1.0  0.75478  0.71178  0.94132  1.0000
  H   H848      1.0  0.75099  0.97671  0.71566  1.0000
  C   C711      1.0  0.74813  0.91947  0.76627  1.0000
  C   C712      1.0  0.74176  0.94181  0.74566  1.0000
  H   H849      1.0  0.90000  0.56404  0.65876  1.0000
  C   C713      1.0  0.78457  0.93258  0.75855  1.0000
  Fe  Fe96      1.0  0.67081  0.59751  0.97304  1.0000
  C   C714      1.0  0.77388  0.50942  0.92293  1.0000
  H   H850      1.0  0.79956  0.98348  0.83706  1.0000
  H   H851      1.0  0.99443  0.55004  0.68941  1.0000
  C   C715      1.0  0.95586  0.59493  0.70207  1.0000
  H   H852      1.0  0.72510  0.94542  0.74129  1.0000
  H   H853      1.0  0.74621  0.65355  0.89375  1.0000
  H   H854      1.0  0.95388  0.61520  0.71093  1.0000
  C   C716      1.0  0.78447  0.96217  0.95913  1.0000
  H   H855      1.0  0.77695  0.52109  0.89666  1.0000
  C   C717      1.0  0.80191  0.97624  0.94518  1.0000
  H   H856      1.0  0.73913  0.64859  0.96298  1.0000
  H   H857      1.0  0.90921  0.50980  0.63213  1.0000
  H   H858      1.0  0.72280  0.67685  0.96045  1.0000
  N   N48       1.0  0.74829  0.96094  0.99231  1.0000
  C   C718      1.0  0.76759  0.75420  0.91622  1.0000
  C   C719      1.0  0.98118  0.99205  0.97260  1.0000
  H   H859      1.0  0.90865  0.49986  0.70504  1.0000
  H   H860      1.0  0.93662  0.50148  0.70822  1.0000
  H   H861      1.0  0.93717  0.50954  0.63504  1.0000
  H   H862      1.0  0.98965  0.59658  0.70651  1.0000
  S   S192      1.0  0.66845  0.86497  0.95312  1.0000
  H   H863      1.0  0.74331  0.67437  0.99796  1.0000
  H   H864      1.0  0.94890  0.99782  0.95509  1.0000
  C   C720      1.0  0.99981  0.97813  0.96587  1.0000
