data_image0
_chemical_formula_structural       SHS3FeS2FeHFeSHSFeS2FeHSC7H7S3HCNC6H4C7H7CHCHFeHC2H4C2H2CH2CHSHC5HC2HCHNCHCNC6H6CH10CHC2HCHCH4CH3CH3FeH5C2HNSCHSCFeS2FeCFeSHSH2C2S2C6H6C3HSH2C7H4C7H4C2H2SC2NC5H2CSNHC4HCH2FeH2CH5CHC2H2CSNSH3CH2CFeCFeC4H2C3H4SHC2H2CHCHFeCHCHSHNCH6CH5C2H4C2FeSHFeS2FeSFeS3FeSHFeSHC2FeSCSH2C2SHC6H4C6H4C6HCH2C6H6NC2HCHCH4CFeHCSCH2SH2CHNCH2SCH3FeHCHC2SH4SH3C3SHCH2CNC3H6CH3CNCHC3H2C3H2NCHCH3CHCH2CFeH4CH2FeCH5CH3S2CFeSHFeS2FeSFeS3FeS2FeCHFeSFeS3H3FeS2C6H2CHC5H3CHC6H4C6H2CHN2C6SH2CH11C3S2CHNHC4H4CHCH4CH2NC9H15SH4FeCH2CHC2H7C2HCHCHFeS2H2CFeSFeSH3CSCHSCFeS2H2C3H5CHCH4SCHC6H4C6H4SCHC2HCHCHFeHCH2CH2CH2SHCH2FeH3C2HCH5CHCNHNFeH2SH2C3S2HCH4NHCHCHCHC2NCNSHC2HC2HC3HFeC4H4C2H2C2H2CFeC2H3CFeS2H3FeSHSFeS2FeS2CH2C3HC4H4CHC5H4C6H4C6H4SH4CHSHC3H2C2HCHNH2SCNH2CH2CHCHNH2C3H3C2HC5HC2HSFeH2C2H5C2HCH2FeS2FeSCS2FeS2FeS2FeHSCS2C6H4C6H4C4FeC3H2C6HNH2FeHCH3C2HC2H2FeHCH2CHCHC3SHSCHFeHC3HNCNH3C2H2C3HCHCHCH2C2H3SH2NH2CH2CHC2H2CH6CHC2H2CSFeH5FeS2FeSCSFe2HSHS2HCHCSHC6H4C6H6C4HC2HC6H3C4H5FeH3CHNHC2H2FeHSH2SH4C3HNC6SH9CH3CH5NC2H2SHCHCFeS2HS2FeHFeSHSFeS2FeSCFeSFeS3H2SCHSC6H4C7H3C6H4C6H4NC4HC3SH7SCH2CH6NH4CHCH2C2H8CH3CH2C2H2C2HNH2CHCH5NC2FeH2C3HC2FeNCH2CHC4H2CH2SFeS2CS2FeHFeSCSFeS2FeSCFeSFeS3H4S2C6H4C6H4C6H4C6H4NCHSNC5H9SNC9H16SH3C2HFeSCNCSHCHC2HCHFeH2FeCSH2CHCH4CHCH4C2H2CFeC2H2C3FeS2FeCNFeSHCS2HCSCS2H2CH2CFeHC4HC3HSH2C6H3C7H4NC9H15SFeNH2SH2CHCH3SC5H6CSCHCH4CHSHCH4CH5CH2C2HCFe2S2FeHSFeSCS3H2SHS2CH2CH4CHC6H4C4HCH3C7H4NHC10H4SH8CH3CHCH2C3FeH2SH3FeH2CNSC2HSC2HCNC3H5NCH2CHCH4C2H3SC3HCHC
_chemical_formula_sum              "S192 H864 Fe96 C720 N48"
_cell_length_a       40.8232
_cell_length_b       41.4027
_cell_length_c       34.4346
_cell_angle_alpha    90.0457
_cell_angle_beta     89.6888
_cell_angle_gamma    89.8452

_space_group_name_H-M_alt    "P 1"
_space_group_IT_number       1

loop_
  _space_group_symop_operation_xyz
  'x, y, z'

loop_
  _atom_site_type_symbol
  _atom_site_label
  _atom_site_symmetry_multiplicity
  _atom_site_fract_x
  _atom_site_fract_y
  _atom_site_fract_z
  _atom_site_occupancy
  S   S1        1.0  0.32086  0.22843  0.19003  1.0000
  H   H1        1.0  0.03441  0.08473  0.15982  1.0000
  S   S2        1.0  0.33582  0.20656  0.39209  1.0000
  S   S3        1.0  0.15817  0.29463  0.03725  1.0000
  S   S4        1.0  0.06790  0.33479  0.02466  1.0000
  Fe  Fe1       1.0  0.10212  0.22434  0.07557  1.0000
  S   S5        1.0  0.10146  0.27412  0.10168  1.0000
  S   S6        1.0  0.06686  0.18329  0.09014  1.0000
  Fe  Fe2       1.0  0.10323  0.29408  0.04083  1.0000
  H   H2        1.0  0.15189  0.33796  0.46958  1.0000
  Fe  Fe3       1.0  0.15638  0.27155  0.09649  1.0000
  S   S7        1.0  0.18459  0.29290  0.14663  1.0000
  H   H3        1.0  0.34505  0.26768  0.10776  1.0000
  S   S8        1.0  0.15697  0.22013  0.07490  1.0000
  Fe  Fe4       1.0  0.05173  0.03339  0.24014  1.0000
  S   S9        1.0  0.08601  0.07278  0.21738  1.0000
  S   S10       1.0  0.03393  0.04315  0.30094  1.0000
  Fe  Fe5       1.0  0.05686  0.48507  0.44020  1.0000
  H   H4        1.0  0.03570  0.22073  0.16855  1.0000
  S   S11       1.0  0.06103  0.48203  0.37504  1.0000
  C   C1        1.0  0.07331  0.15191  0.12439  1.0000
  C   C2        1.0  0.04924  0.12793  0.12909  1.0000
  C   C3        1.0  0.05295  0.10315  0.15683  1.0000
  C   C4        1.0  0.08070  0.10228  0.18046  1.0000
  C   C5        1.0  0.10504  0.12593  0.17523  1.0000
  C   C6        1.0  0.10146  0.15056  0.14730  1.0000
  C   C7        1.0  0.24566  0.06146  0.33976  1.0000
  H   H5        1.0  0.15714  0.02885  0.26754  1.0000
  H   H6        1.0  0.12672  0.12538  0.19313  1.0000
  H   H7        1.0  0.12022  0.16878  0.14395  1.0000
  H   H8        1.0  0.12566  0.09413  0.28915  1.0000
  H   H9        1.0  0.10128  0.30412  0.47614  1.0000
  H   H10       1.0  0.04341  0.40605  0.37859  1.0000
  H   H11       1.0  0.32688  0.11952  0.37281  1.0000
  S   S12       1.0  0.19089  0.23520  0.45204  1.0000
  S   S13       1.0  0.33874  0.26603  0.29976  1.0000
  S   S14       1.0  0.09724  0.46274  0.47736  1.0000
  H   H12       1.0  0.17249  0.34054  0.42284  1.0000
  C   C8        1.0  0.30920  0.30541  0.42729  1.0000
  N   N1        1.0  0.12790  0.31254  0.42312  1.0000
  C   C9        1.0  0.28258  0.24616  0.17947  1.0000
  C   C10       1.0  0.26904  0.27058  0.20265  1.0000
  C   C11       1.0  0.23892  0.28477  0.19237  1.0000
  C   C12       1.0  0.22213  0.27448  0.15909  1.0000
  C   C13       1.0  0.23563  0.24998  0.13605  1.0000
  C   C14       1.0  0.26574  0.23592  0.14621  1.0000
  H   H13       1.0  0.28191  0.27871  0.22823  1.0000
  H   H14       1.0  0.22862  0.30375  0.21029  1.0000
  H   H15       1.0  0.22297  0.24192  0.11034  1.0000
  H   H16       1.0  0.27591  0.21685  0.12833  1.0000
  C   C15       1.0  0.29568  0.21574  0.40833  1.0000
  C   C16       1.0  0.28779  0.21163  0.44777  1.0000
  C   C17       1.0  0.25587  0.21783  0.46158  1.0000
  C   C18       1.0  0.23143  0.22775  0.43589  1.0000
  C   C19       1.0  0.23926  0.23170  0.39638  1.0000
  C   C20       1.0  0.27135  0.22606  0.38268  1.0000
  C   C21       1.0  0.21433  0.07026  0.32710  1.0000
  H   H17       1.0  0.15025  0.30965  0.36652  1.0000
  H   H18       1.0  0.22048  0.23928  0.37629  1.0000
  H   H19       1.0  0.27710  0.22917  0.35221  1.0000
  H   H20       1.0  0.34766  0.34329  0.00828  1.0000
  H   H21       1.0  0.17559  0.34825  0.09649  1.0000
  H   H22       1.0  0.31129  0.30909  0.39629  1.0000
  H   H23       1.0  0.11746  0.28148  0.37416  1.0000
  C   C22       1.0  0.09025  0.39581  0.40406  1.0000
  H   H24       1.0  0.30646  0.20370  0.46782  1.0000
  C   C23       1.0  0.14067  0.03244  0.29305  1.0000
  H   H25       1.0  0.22798  0.24238  0.01657  1.0000
  Fe  Fe6       1.0  0.34850  0.23616  0.24620  1.0000
  H   H26       1.0  0.11604  0.03897  0.28176  1.0000
  C   C24       1.0  0.09150  0.44394  0.06249  1.0000
  C   C25       1.0  0.02332  0.15591  0.22738  1.0000
  H   H27       1.0  0.17458  0.30443  0.45081  1.0000
  H   H28       1.0  0.34519  0.15110  0.34512  1.0000
  H   H29       1.0  0.13094  0.03628  0.37041  1.0000
  H   H30       1.0  0.16657  0.08899  0.27196  1.0000
  C   C26       1.0  0.33976  0.24657  0.08873  1.0000
  C   C27       1.0  0.10509  0.33857  0.41123  1.0000
  H   H31       1.0  0.15619  0.27441  0.39621  1.0000
  H   H32       1.0  0.13421  0.38040  0.43009  1.0000
  C   C28       1.0  0.11856  0.11546  0.03653  1.0000
  H   H33       1.0  0.06619  0.18271  0.21011  1.0000
  H   H34       1.0  0.09060  0.27721  0.43754  1.0000
  C   C29       1.0  0.07473  0.33084  0.39354  1.0000
  H   H35       1.0  0.27515  0.02484  0.36730  1.0000
  S   S15       1.0  0.09896  0.24455  0.01499  1.0000
  H   H36       1.0  0.28817  0.24800  0.00838  1.0000
  C   C30       1.0  0.19348  0.01899  0.35006  1.0000
  C   C31       1.0  0.27805  0.29904  0.44243  1.0000
  C   C32       1.0  0.02259  0.20235  0.18479  1.0000
  C   C33       1.0  0.13187  0.05951  0.35426  1.0000
  C   C34       1.0  0.03975  0.18085  0.20819  1.0000
  H   H37       1.0  0.10609  0.06522  0.34624  1.0000
  C   C35       1.0  0.05280  0.35497  0.38194  1.0000
  C   C36       1.0  0.15798  0.32462  0.44237  1.0000
  H   H38       1.0  0.02952  0.34869  0.36897  1.0000
  C   C37       1.0  0.25091  0.03158  0.35735  1.0000
  H   H39       1.0  0.15849  0.10958  0.31766  1.0000
  N   N2        1.0  0.15350  0.05762  0.31957  1.0000
  C   C38       1.0  0.13833  0.29376  0.38847  1.0000
  H   H40       1.0  0.25015  0.21467  0.49205  1.0000
  C   C39       1.0  0.11219  0.37194  0.41622  1.0000
  N   N3        1.0  0.14166  0.38326  0.12023  1.0000
  C   C40       1.0  0.11586  0.35905  0.12886  1.0000
  C   C41       1.0  0.16257  0.37088  0.08812  1.0000
  C   C42       1.0  0.16255  0.38607  0.15529  1.0000
  C   C43       1.0  0.12639  0.41415  0.10822  1.0000
  C   C44       1.0  0.10519  0.41504  0.07573  1.0000
  C   C45       1.0  0.13255  0.44404  0.12724  1.0000
  H   H41       1.0  0.21202  0.09378  0.31386  1.0000
  H   H42       1.0  0.04485  0.41517  0.48673  1.0000
  H   H43       1.0  0.26598  0.07800  0.33607  1.0000
  H   H44       1.0  0.10154  0.35227  0.10269  1.0000
  H   H45       1.0  0.12654  0.33609  0.14009  1.0000
  H   H46       1.0  0.09830  0.36828  0.15108  1.0000
  C   C46       1.0  0.15121  0.08901  0.29879  1.0000
  H   H47       1.0  0.18144  0.38891  0.07959  1.0000
  H   H48       1.0  0.14812  0.36503  0.06176  1.0000
  H   H49       1.0  0.18362  0.40259  0.15025  1.0000
  H   H50       1.0  0.14819  0.39466  0.18087  1.0000
  H   H51       1.0  0.17340  0.36228  0.16360  1.0000
  H   H52       1.0  0.09932  0.39330  0.06003  1.0000
  H   H53       1.0  0.14825  0.44592  0.15227  1.0000
  H   H54       1.0  0.03810  0.13875  0.24324  1.0000
  H   H55       1.0  0.06764  0.30605  0.38879  1.0000
  H   H56       1.0  0.12361  0.13379  0.05950  1.0000
  C   C47       1.0  0.11845  0.47286  0.11401  1.0000
  H   H57       1.0  0.14049  0.07827  0.37497  1.0000
  C   C48       1.0  0.33717  0.30662  0.45157  1.0000
  C   C49       1.0  0.11126  0.29050  0.45082  1.0000
  H   H58       1.0  0.12832  0.27179  0.46226  1.0000
  C   C50       1.0  0.18718  0.04911  0.33185  1.0000
  H   H59       1.0  0.09598  0.42110  0.40858  1.0000
  C   C51       1.0  0.09811  0.47282  0.08161  1.0000
  H   H60       1.0  0.13617  0.09536  0.04112  1.0000
  H   H61       1.0  0.07592  0.44391  0.03700  1.0000
  H   H62       1.0  0.07327  0.15188  0.00230  1.0000
  H   H63       1.0  0.33568  0.22580  0.10871  1.0000
  C   C52       1.0  0.27381  0.29367  0.48204  1.0000
  H   H64       1.0  0.31611  0.25069  0.07359  1.0000
  H   H65       1.0  0.25716  0.29749  0.42324  1.0000
  H   H66       1.0  0.09345  0.10601  0.04221  1.0000
  C   C53       1.0  0.06056  0.38738  0.38724  1.0000
  H   H67       1.0  0.08751  0.49523  0.07120  1.0000
  H   H68       1.0  0.33536  0.30063  0.05436  1.0000
  H   H69       1.0  0.16167  0.16091  0.01096  1.0000
  Fe  Fe7       1.0  0.15387  0.24342  0.01608  1.0000
  H   H70       1.0  0.12350  0.49544  0.12885  1.0000
  H   H71       1.0  0.02747  0.12868  0.11134  1.0000
  H   H72       1.0  0.33604  0.21367  0.02175  1.0000
  H   H73       1.0  0.10612  0.17609  0.01885  1.0000
  H   H74       1.0  0.24975  0.28801  0.49356  1.0000
  C   C54       1.0  0.33197  0.30113  0.49196  1.0000
  C   C55       1.0  0.34583  0.12462  0.35024  1.0000
  H   H75       1.0  0.33814  0.11293  0.32271  1.0000
  N   N4        1.0  0.12105  0.12957  0.99700  1.0000
  S   S16       1.0  0.17754  0.22255  0.96238  1.0000
  C   C56       1.0  0.18081  0.30363  0.90829  1.0000
  H   H76       1.0  0.07057  0.12936  0.94100  1.0000
  S   S17       1.0  0.18600  0.29456  0.53639  1.0000
  C   C57       1.0  0.07947  0.08452  0.91344  1.0000
  Fe  Fe8       1.0  0.15348  0.22029  0.59553  1.0000
  S   S18       1.0  0.15734  0.27049  0.62109  1.0000
  S   S19       1.0  0.14286  0.17830  0.63739  1.0000
  Fe  Fe9       1.0  0.13670  0.28803  0.56395  1.0000
  C   C58       1.0  0.22361  0.21725  0.67880  1.0000
  Fe  Fe10      1.0  0.20635  0.27276  0.59102  1.0000
  S   S20       1.0  0.25655  0.28851  0.61165  1.0000
  H   H77       1.0  0.10778  0.34328  0.90557  1.0000
  S   S21       1.0  0.20409  0.22186  0.56862  1.0000
  H   H78       1.0  0.24483  0.14274  0.64633  1.0000
  H   H79       1.0  0.25432  0.38322  0.67055  1.0000
  C   C59       1.0  0.05347  0.41369  0.95585  1.0000
  C   C60       1.0  0.04481  0.45186  0.70860  1.0000
  S   S22       1.0  0.09289  0.45813  0.91683  1.0000
  S   S23       1.0  0.05618  0.48410  0.81833  1.0000
  C   C61       1.0  0.11051  0.14952  0.64172  1.0000
  C   C62       1.0  0.11048  0.12812  0.67353  1.0000
  C   C63       1.0  0.08572  0.10463  0.67816  1.0000
  C   C64       1.0  0.06065  0.10203  0.65080  1.0000
  C   C65       1.0  0.06073  0.12332  0.61887  1.0000
  C   C66       1.0  0.08536  0.14700  0.61440  1.0000
  H   H80       1.0  0.12973  0.12975  0.69488  1.0000
  H   H81       1.0  0.08610  0.08851  0.70286  1.0000
  H   H82       1.0  0.33228  0.13059  0.72437  1.0000
  H   H83       1.0  0.08504  0.16312  0.58971  1.0000
  H   H84       1.0  0.27729  0.23640  0.70743  1.0000
  H   H85       1.0  0.22178  0.14030  0.71227  1.0000
  C   C67       1.0  0.20184  0.32686  0.89100  1.0000
  C   C68       1.0  0.08519  0.42301  0.94520  1.0000
  C   C69       1.0  0.11184  0.40441  0.95829  1.0000
  H   H86       1.0  0.31463  0.38409  0.66756  1.0000
  S   S24       1.0  0.34907  0.30673  0.87779  1.0000
  H   H87       1.0  0.14273  0.38480  0.87512  1.0000
  H   H88       1.0  0.13649  0.41151  0.95048  1.0000
  C   C70       1.0  0.25613  0.34705  0.86909  1.0000
  C   C71       1.0  0.28415  0.30739  0.73868  1.0000
  C   C72       1.0  0.30826  0.30038  0.71094  1.0000
  C   C73       1.0  0.29941  0.29490  0.67205  1.0000
  C   C74       1.0  0.26639  0.29553  0.66081  1.0000
  C   C75       1.0  0.24221  0.30203  0.68868  1.0000
  C   C76       1.0  0.25114  0.30840  0.72737  1.0000
  H   H89       1.0  0.33379  0.29984  0.71927  1.0000
  H   H90       1.0  0.31826  0.28988  0.65065  1.0000
  H   H91       1.0  0.21672  0.30282  0.68025  1.0000
  H   H92       1.0  0.23238  0.31412  0.74861  1.0000
  C   C77       1.0  0.28852  0.23300  0.94842  1.0000
  C   C78       1.0  0.09852  0.05662  0.91124  1.0000
  C   C79       1.0  0.12496  0.37840  0.52878  1.0000
  C   C80       1.0  0.22033  0.22605  0.95791  1.0000
  C   C81       1.0  0.23538  0.21887  0.92221  1.0000
  C   C82       1.0  0.26933  0.22281  0.91726  1.0000
  C   C83       1.0  0.24142  0.29162  0.85974  1.0000
  H   H93       1.0  0.21281  0.16905  0.63160  1.0000
  H   H94       1.0  0.22069  0.21045  0.89819  1.0000
  H   H95       1.0  0.28079  0.21713  0.88967  1.0000
  H   H96       1.0  0.17590  0.50621  0.72594  1.0000
  C   C84       1.0  0.26702  0.40608  0.66716  1.0000
  C   C85       1.0  0.30110  0.40664  0.66537  1.0000
  H   H97       1.0  0.24779  0.35294  0.83916  1.0000
  H   H98       1.0  0.25089  0.48597  0.65856  1.0000
  S   S25       1.0  0.09387  0.32252  0.55435  1.0000
  C   C86       1.0  0.30047  0.46578  0.65807  1.0000
  C   C87       1.0  0.18713  0.35638  0.87889  1.0000
  N   N5        1.0  0.23746  0.18429  0.68380  1.0000
  C   C88       1.0  0.33573  0.18203  0.72995  1.0000
  C   C89       1.0  0.06724  0.40508  0.49831  1.0000
  C   C90       1.0  0.12504  0.40947  0.51200  1.0000
  C   C91       1.0  0.11277  0.10481  0.96754  1.0000
  C   C92       1.0  0.05796  0.48714  0.65505  1.0000
  H   H99       1.0  0.17463  0.50156  0.82109  1.0000
  H   H100      1.0  0.19839  0.21657  0.66659  1.0000
  C   C93       1.0  0.13375  0.33869  0.90139  1.0000
  S   S26       1.0  0.02889  0.07261  0.65494  1.0000
  N   N6        1.0  0.03675  0.48304  0.68974  1.0000
  H   H101      1.0  0.03999  0.43088  0.68930  1.0000
  C   C94       1.0  0.04859  0.38634  0.97963  1.0000
  C   C95       1.0  0.13161  0.07599  0.96454  1.0000
  C   C96       1.0  0.07441  0.46939  0.58963  1.0000
  C   C97       1.0  0.09925  0.15833  0.99610  1.0000
  H   H102      1.0  0.22171  0.23040  0.70692  1.0000
  C   C98       1.0  0.23758  0.16856  0.64505  1.0000
  H   H103      1.0  0.15817  0.15094  0.96058  1.0000
  H   H104      1.0  0.18932  0.16696  0.69944  1.0000
  Fe  Fe11      1.0  0.01930  0.03523  0.70295  1.0000
  H   H105      1.0  0.24123  0.29015  0.93742  1.0000
  H   H106      1.0  0.23166  0.29685  0.83026  1.0000
  C   C99       1.0  0.12453  0.05235  0.93676  1.0000
  H   H107      1.0  0.29709  0.29033  0.53759  1.0000
  H   H108      1.0  0.27650  0.13154  0.69873  1.0000
  H   H109      1.0  0.20095  0.37545  0.86517  1.0000
  H   H110      1.0  0.25452  0.36903  0.88758  1.0000
  H   H111      1.0  0.02397  0.37975  0.98822  1.0000
  C   C100      1.0  0.06704  0.37426  0.51569  1.0000
  H   H112      1.0  0.26774  0.28491  0.85613  1.0000
  C   C101      1.0  0.08633  0.10837  0.94108  1.0000
  C   C102      1.0  0.14737  0.30958  0.91355  1.0000
  H   H113      1.0  0.24876  0.33222  0.94503  1.0000
  H   H114      1.0  0.22874  0.26977  0.87067  1.0000
  C   C103      1.0  0.25209  0.31201  0.92407  1.0000
  S   S27       1.0  0.29456  0.31688  0.78706  1.0000
  N   N7        1.0  0.23723  0.31980  0.88595  1.0000
  S   S28       1.0  0.12943  0.23764  0.54060  1.0000
  H   H115      1.0  0.19003  0.28049  0.91776  1.0000
  H   H116      1.0  0.27884  0.30684  0.92138  1.0000
  H   H117      1.0  0.13197  0.29142  0.92713  1.0000
  C   C104      1.0  0.15356  0.36206  0.88419  1.0000
  H   H118      1.0  0.28265  0.34096  0.86612  1.0000
  H   H119      1.0  0.35161  0.30145  0.51280  1.0000
  C   C105      1.0  0.31776  0.43594  0.66083  1.0000
  Fe  Fe12      1.0  0.05512  0.48828  0.88357  1.0000
  C   C106      1.0  0.28801  0.21272  0.71037  1.0000
  Fe  Fe13      1.0  0.18039  0.24347  0.51612  1.0000
  C   C107      1.0  0.09583  0.36075  0.53107  1.0000
  C   C108      1.0  0.26574  0.46430  0.66022  1.0000
  C   C109      1.0  0.27350  0.23986  0.98428  1.0000
  C   C110      1.0  0.31973  0.15347  0.72041  1.0000
  H   H120      1.0  0.23861  0.23178  0.65818  1.0000
  H   H121      1.0  0.13850  0.50762  0.87855  1.0000
  C   C111      1.0  0.15505  0.14110  0.99051  1.0000
  C   C112      1.0  0.27105  0.18405  0.69994  1.0000
  C   C113      1.0  0.21510  0.16625  0.70999  1.0000
  H   H122      1.0  0.07115  0.45336  0.56500  1.0000
  H   H123      1.0  0.04164  0.12146  0.59734  1.0000
  H   H124      1.0  0.21527  0.17669  0.73980  1.0000
  H   H125      1.0  0.09311  0.03828  0.88962  1.0000
  S   S29       1.0  0.33839  0.24014  0.82551  1.0000
  H   H126      1.0  0.14720  0.36851  0.54095  1.0000
  C   C114      1.0  0.10693  0.37661  0.98129  1.0000
  C   C115      1.0  0.28786  0.15434  0.70570  1.0000
  H   H127      1.0  0.25473  0.18107  0.62480  1.0000
  H   H128      1.0  0.12770  0.36255  0.99091  1.0000
  C   C116      1.0  0.07522  0.36754  0.99233  1.0000
  H   H129      1.0  0.13929  0.03057  0.93482  1.0000
  C   C117      1.0  0.23942  0.23672  0.98895  1.0000
  H   H130      1.0  0.03272  0.42784  0.94624  1.0000
  Fe  Fe14      1.0  0.33894  0.29372  0.81538  1.0000
  C   C118      1.0  0.24937  0.43486  0.66460  1.0000
  H   H131      1.0  0.14751  0.42324  0.51117  1.0000
  C   C119      1.0  0.31991  0.21155  0.72499  1.0000
  H   H132      1.0  0.05925  0.08763  0.89343  1.0000
  S   S30       1.0  0.33136  0.23602  0.94387  1.0000
  H   H133      1.0  0.22282  0.43435  0.66599  1.0000
  N   N8        1.0  0.31716  0.49732  0.65341  1.0000
  C   C120      1.0  0.05454  0.46625  0.62258  1.0000
  H   H134      1.0  0.03666  0.44705  0.62248  1.0000
  H   H135      1.0  0.07110  0.45088  0.71699  1.0000
  H   H136      1.0  0.04436  0.36087  0.51742  1.0000
  H   H137      1.0  0.10092  0.17130  0.96783  1.0000
  H   H138      1.0  0.03001  0.44802  0.73547  1.0000
  H   H139      1.0  0.34414  0.43447  0.65961  1.0000
  C   C121      1.0  0.09864  0.49295  0.58820  1.0000
  H   H140      1.0  0.15206  0.07157  0.98362  1.0000
  H   H141      1.0  0.11395  0.49512  0.56246  1.0000
  H   H142      1.0  0.33258  0.23370  0.73250  1.0000
  H   H143      1.0  0.31019  0.49737  0.59151  1.0000
  H   H144      1.0  0.02332  0.50610  0.74387  1.0000
  C   C122      1.0  0.30065  0.29474  0.50675  1.0000
  C   C123      1.0  0.08328  0.51068  0.65292  1.0000
  H   H145      1.0  0.02499  0.02879  0.58645  1.0000
  H   H146      1.0  0.31552  0.50683  0.71480  1.0000
  H   H147      1.0  0.06564  0.50876  0.73212  1.0000
  H   H148      1.0  0.17361  0.12176  0.99449  1.0000
  C   C124      1.0  0.04075  0.50901  0.71913  1.0000
  C   C125      1.0  0.09621  0.42300  0.49672  1.0000
  Fe  Fe15      1.0  0.30991  0.61121  0.20635  1.0000
  S   S31       1.0  0.26834  0.61035  0.16409  1.0000
  H   H149      1.0  0.26026  0.87185  0.32538  1.0000
  Fe  Fe16      1.0  0.27513  0.66288  0.25611  1.0000
  S   S32       1.0  0.23167  0.66626  0.21601  1.0000
  S   S33       1.0  0.27203  0.68497  0.31627  1.0000
  Fe  Fe17      1.0  0.23414  0.61190  0.21570  1.0000
  S   S34       1.0  0.19390  0.57419  0.22381  1.0000
  Fe  Fe18      1.0  0.26985  0.66464  0.16815  1.0000
  S   S35       1.0  0.27889  0.69107  0.11097  1.0000
  S   S36       1.0  0.27575  0.60875  0.25752  1.0000
  S   S37       1.0  0.31325  0.66535  0.20868  1.0000
  Fe  Fe19      1.0  0.31303  0.84852  0.41173  1.0000
  S   S38       1.0  0.26133  0.84058  0.43122  1.0000
  H   H150      1.0  0.20103  0.54593  0.37276  1.0000
  Fe  Fe20      1.0  0.32127  0.90978  0.46195  1.0000
  S   S39       1.0  0.20813  0.80236  0.01505  1.0000
  H   H151      1.0  0.12649  0.97322  0.43369  1.0000
  C   C126      1.0  0.31083  0.79967  0.10457  1.0000
  C   C127      1.0  0.05152  0.83617  0.05453  1.0000
  Fe  Fe21      1.0  0.25467  0.89413  0.42204  1.0000
  S   S40       1.0  0.21723  0.90937  0.37618  1.0000
  C   C128      1.0  0.29846  0.60264  0.06253  1.0000
  S   S41       1.0  0.30606  0.90130  0.40000  1.0000
  H   H152      1.0  0.06385  0.73652  0.09203  1.0000
  H   H153      1.0  0.03161  0.85240  0.06237  1.0000
  C   C129      1.0  0.10886  0.82734  0.04086  1.0000
  C   C130      1.0  0.18538  0.60721  0.46549  1.0000
  S   S42       1.0  0.04919  0.53916  0.44041  1.0000
  H   H154      1.0  0.19965  0.55705  0.32261  1.0000
  C   C131      1.0  0.17879  0.92955  0.37664  1.0000
  C   C132      1.0  0.16591  0.94439  0.40991  1.0000
  C   C133      1.0  0.13585  0.96128  0.40800  1.0000
  C   C134      1.0  0.11823  0.96315  0.37302  1.0000
  C   C135      1.0  0.13090  0.94784  0.34002  1.0000
  C   C136      1.0  0.16115  0.93156  0.34174  1.0000
  H   H155      1.0  0.17931  0.94327  0.43691  1.0000
  H   H156      1.0  0.17406  0.00189  0.35519  1.0000
  H   H157      1.0  0.11764  0.94891  0.31296  1.0000
  H   H158      1.0  0.17096  0.92068  0.31563  1.0000
  C   C137      1.0  0.22769  0.77134  0.04166  1.0000
  C   C138      1.0  0.21379  0.76049  0.07677  1.0000
  C   C139      1.0  0.22896  0.73583  0.09854  1.0000
  C   C140      1.0  0.25812  0.72181  0.08516  1.0000
  C   C141      1.0  0.27192  0.73268  0.05006  1.0000
  C   C142      1.0  0.25686  0.75733  0.02844  1.0000
  H   H159      1.0  0.19116  0.77119  0.08714  1.0000
  H   H160      1.0  0.21797  0.72754  0.12537  1.0000
  H   H161      1.0  0.29448  0.72201  0.03949  1.0000
  H   H162      1.0  0.20961  0.87019  0.26280  1.0000
  C   C143      1.0  0.29072  0.72179  0.32895  1.0000
  C   C144      1.0  0.31262  0.73741  0.30394  1.0000
  C   C145      1.0  0.32646  0.76713  0.31487  1.0000
  C   C146      1.0  0.31826  0.78149  0.35060  1.0000
  C   C147      1.0  0.29639  0.76579  0.37557  1.0000
  C   C148      1.0  0.28283  0.73597  0.36485  1.0000
  H   H163      1.0  0.31893  0.72660  0.27628  1.0000
  C   C149      1.0  0.04519  0.80346  0.04790  1.0000
  H   H164      1.0  0.29013  0.77644  0.40332  1.0000
  H   H165      1.0  0.26599  0.72393  0.38439  1.0000
  C   C150      1.0  0.16019  0.57561  0.25663  1.0000
  C   C151      1.0  0.14711  0.60486  0.27002  1.0000
  C   C152      1.0  0.12044  0.60495  0.29621  1.0000
  C   C153      1.0  0.10659  0.57587  0.30948  1.0000
  C   C154      1.0  0.11959  0.54660  0.29605  1.0000
  C   C155      1.0  0.14602  0.54653  0.26946  1.0000
  H   H166      1.0  0.15735  0.62742  0.25986  1.0000
  H   H167      1.0  0.11042  0.62772  0.30618  1.0000
  H   H168      1.0  0.28505  0.83904  0.30801  1.0000
  H   H169      1.0  0.24870  0.64538  0.39514  1.0000
  H   H170      1.0  0.25009  0.72807  0.25089  1.0000
  H   H171      1.0  0.24908  0.80468  0.16738  1.0000
  N   N9        1.0  0.06323  0.74705  0.03077  1.0000
  C   C156      1.0  0.24708  0.79668  0.19729  1.0000
  C   C157      1.0  0.24975  0.76389  0.20576  1.0000
  H   H172      1.0  0.15573  0.52378  0.25901  1.0000
  C   C158      1.0  0.34735  0.55668  0.03946  1.0000
  H   H173      1.0  0.29948  0.89837  0.10830  1.0000
  C   C159      1.0  0.08327  0.84809  0.05104  1.0000
  H   H174      1.0  0.24315  0.66581  0.46154  1.0000
  H   H175      1.0  0.11085  0.72770  0.04486  1.0000
  H   H176      1.0  0.20983  0.61215  0.30240  1.0000
  H   H177      1.0  0.13361  0.83666  0.03793  1.0000
  C   C160      1.0  0.07068  0.78158  0.03764  1.0000
  Fe  Fe22      1.0  0.04962  0.53521  0.37511  1.0000
  H   H178      1.0  0.10906  0.52405  0.30580  1.0000
  C   C161      1.0  0.24207  0.77563  0.27413  1.0000
  S   S43       1.0  0.07315  0.57752  0.34266  1.0000
  C   C162      1.0  0.33481  0.84668  0.04413  1.0000
  H   H179      1.0  0.31191  0.75249  0.13106  1.0000
  H   H180      1.0  0.33008  0.77276  0.19500  1.0000
  S   S44       1.0  0.33304  0.85733  0.47160  1.0000
  H   H181      1.0  0.18064  0.62807  0.33699  1.0000
  H   H182      1.0  0.33113  0.82170  0.03319  1.0000
  C   C163      1.0  0.34937  0.76268  0.45531  1.0000
  H   H183      1.0  0.24106  0.84436  0.21934  1.0000
  N   N10       1.0  0.21577  0.59506  0.36108  1.0000
  C   C164      1.0  0.31660  0.88999  0.08515  1.0000
  H   H184      1.0  0.26704  0.60720  0.35316  1.0000
  H   H185      1.0  0.03006  0.60397  0.39815  1.0000
  S   S45       1.0  0.26904  0.90675  0.48354  1.0000
  C   C165      1.0  0.24745  0.75349  0.24410  1.0000
  H   H186      1.0  0.04372  0.70647  0.06282  1.0000
  H   H187      1.0  0.03304  0.64542  0.34628  1.0000
  H   H188      1.0  0.02492  0.67400  0.38365  1.0000
  Fe  Fe23      1.0  0.05290  0.99336  0.31488  1.0000
  H   H189      1.0  0.27270  0.86978  0.03631  1.0000
  C   C166      1.0  0.21159  0.60767  0.40106  1.0000
  H   H190      1.0  0.16872  0.57188  0.35452  1.0000
  C   C167      1.0  0.20662  0.62053  0.33294  1.0000
  C   C168      1.0  0.18831  0.59486  0.42779  1.0000
  S   S46       1.0  0.33579  0.81890  0.36322  1.0000
  H   H191      1.0  0.27259  0.82802  0.04786  1.0000
  H   H192      1.0  0.32381  0.64124  0.11469  1.0000
  H   H193      1.0  0.25949  0.56943  0.37760  1.0000
  H   H194      1.0  0.31656  0.66123  0.04586  1.0000
  S   S47       1.0  0.07344  0.98483  0.25537  1.0000
  H   H195      1.0  0.33706  0.64313  0.46577  1.0000
  H   H196      1.0  0.30313  0.78964  0.07715  1.0000
  H   H197      1.0  0.25891  0.85672  0.08343  1.0000
  C   C169      1.0  0.19538  0.56621  0.35268  1.0000
  C   C170      1.0  0.34120  0.62305  0.10286  1.0000
  C   C171      1.0  0.25054  0.58585  0.35436  1.0000
  S   S48       1.0  0.08174  0.98650  0.37086  1.0000
  H   H198      1.0  0.22180  0.64255  0.33597  1.0000
  C   C172      1.0  0.20521  0.63258  0.47758  1.0000
  H   H199      1.0  0.17198  0.57535  0.42033  1.0000
  H   H200      1.0  0.25395  0.57310  0.32612  1.0000
  C   C173      1.0  0.31590  0.77817  0.13527  1.0000
  N   N11       1.0  0.23346  0.83339  0.29766  1.0000
  C   C174      1.0  0.22675  0.81883  0.33633  1.0000
  C   C175      1.0  0.26297  0.85393  0.30138  1.0000
  C   C176      1.0  0.23903  0.80923  0.26655  1.0000
  H   H201      1.0  0.26827  0.86777  0.27450  1.0000
  H   H202      1.0  0.19823  0.87042  0.31243  1.0000
  H   H203      1.0  0.22122  0.83764  0.35864  1.0000
  H   H204      1.0  0.24836  0.80539  0.34742  1.0000
  H   H205      1.0  0.20527  0.80236  0.33548  1.0000
  H   H206      1.0  0.29052  0.59540  0.03294  1.0000
  C   C177      1.0  0.20489  0.85409  0.28795  1.0000
  H   H207      1.0  0.31218  0.90591  0.05963  1.0000
  H   H208      1.0  0.08802  0.87348  0.05616  1.0000
  H   H209      1.0  0.24071  0.76574  0.30310  1.0000
  C   C178      1.0  0.23105  0.63387  0.41418  1.0000
  N   N12       1.0  0.31135  0.85539  0.07549  1.0000
  C   C179      1.0  0.22794  0.64593  0.45197  1.0000
  H   H210      1.0  0.25391  0.74649  0.18264  1.0000
  C   C180      1.0  0.33138  0.82247  0.17668  1.0000
  C   C181      1.0  0.27751  0.85229  0.06029  1.0000
  C   C182      1.0  0.24223  0.81914  0.22721  1.0000
  H   H211      1.0  0.18291  0.83919  0.28147  1.0000
  H   H212      1.0  0.32234  0.54849  0.04146  1.0000
  C   C183      1.0  0.32619  0.78953  0.17125  1.0000
  C   C184      1.0  0.04807  0.73291  0.06614  1.0000
  C   C185      1.0  0.22485  0.01035  0.36241  1.0000
  H   H213      1.0  0.25575  0.78048  0.48608  1.0000
  H   H214      1.0  0.33210  0.86285  0.01853  1.0000
  N   N13       1.0  0.33308  0.61364  0.06257  1.0000
  C   C186      1.0  0.33514  0.64268  0.03741  1.0000
  H   H215      1.0  0.29463  0.58209  0.08293  1.0000
  C   C187      1.0  0.31604  0.83336  0.10892  1.0000
  H   H216      1.0  0.12395  0.78005  0.02645  1.0000
  H   H217      1.0  0.02008  0.79548  0.05085  1.0000
  H   H218      1.0  0.34024  0.60174  0.12248  1.0000
  C   C188      1.0  0.03991  0.74413  0.99804  1.0000
  H   H219      1.0  0.34354  0.77908  0.29556  1.0000
  C   C189      1.0  0.10285  0.79455  0.03425  1.0000
  H   H220      1.0  0.28144  0.62216  0.07247  1.0000
  H   H221      1.0  0.33953  0.83113  0.20476  1.0000
  C   C190      1.0  0.32652  0.84420  0.14608  1.0000
  Fe  Fe24      1.0  0.28031  0.85354  0.49037  1.0000
  H   H222      1.0  0.34473  0.96637  0.02495  1.0000
  H   H223      1.0  0.34233  0.89472  0.09405  1.0000
  H   H224      1.0  0.33148  0.86929  0.15218  1.0000
  H   H225      1.0  0.24881  0.72098  0.48857  1.0000
  C   C191      1.0  0.09256  0.72726  0.02097  1.0000
  H   H226      1.0  0.08604  0.70142  0.01622  1.0000
  H   H227      1.0  0.13746  0.00877  0.30761  1.0000
  Fe  Fe25      1.0  0.02388  0.96407  0.24098  1.0000
  C   C192      1.0  0.34267  0.76087  0.49493  1.0000
  H   H228      1.0  0.34773  0.78566  0.44031  1.0000
  H   H229      1.0  0.22885  0.98705  0.37617  1.0000
  H   H230      1.0  0.16754  0.59705  0.48548  1.0000
  H   H231      1.0  0.02595  0.64690  0.00387  1.0000
  H   H232      1.0  0.02360  0.74351  0.07275  1.0000
  C   C193      1.0  0.04811  0.98651  0.47154  1.0000
  H   H233      1.0  0.33104  0.63628  0.00642  1.0000
  H   H234      1.0  0.26768  0.76529  0.00136  1.0000
  H   H235      1.0  0.07078  0.98722  0.45502  1.0000
  S   S49       1.0  0.01927  0.91282  0.21694  1.0000
  S   S50       1.0  0.35023  0.57332  0.19989  1.0000
  C   C194      1.0  0.01841  0.98939  0.45218  1.0000
  Fe  Fe26      1.0  0.31420  0.61228  0.65079  1.0000
  S   S51       1.0  0.27561  0.59749  0.60863  1.0000
  H   H236      1.0  0.34385  0.58468  0.56628  1.0000
  Fe  Fe27      1.0  0.26631  0.65613  0.69678  1.0000
  S   S52       1.0  0.22488  0.64458  0.65626  1.0000
  S   S53       1.0  0.24632  0.68458  0.74822  1.0000
  Fe  Fe28      1.0  0.24209  0.59327  0.66057  1.0000
  S   S54       1.0  0.21208  0.54861  0.67483  1.0000
  Fe  Fe29      1.0  0.26244  0.65030  0.60890  1.0000
  S   S55       1.0  0.25385  0.67511  0.55137  1.0000
  S   S56       1.0  0.28177  0.60429  0.70322  1.0000
  S   S57       1.0  0.30286  0.66568  0.64877  1.0000
  Fe  Fe30      1.0  0.27804  0.82403  0.89231  1.0000
  S   S58       1.0  0.22401  0.81687  0.90031  1.0000
  S   S59       1.0  0.30944  0.79713  0.84820  1.0000
  Fe  Fe31      1.0  0.27983  0.88216  0.94709  1.0000
  C   C195      1.0  0.03935  0.94780  0.58686  1.0000
  H   H237      1.0  0.24383  0.88709  0.68253  1.0000
  Fe  Fe32      1.0  0.23357  0.82652  0.96365  1.0000
  S   S60       1.0  0.27031  0.82722  0.54700  1.0000
  Fe  Fe33      1.0  0.22013  0.87081  0.89287  1.0000
  S   S61       1.0  0.18611  0.88536  0.84305  1.0000
  S   S62       1.0  0.28829  0.82911  0.95643  1.0000
  S   S63       1.0  0.27418  0.87750  0.88254  1.0000
  H   H238      1.0  0.21727  0.88697  0.74194  1.0000
  H   H239      1.0  0.33553  0.78259  0.51057  1.0000
  H   H240      1.0  0.32476  0.68042  0.56301  1.0000
  Fe  Fe34      1.0  0.05578  0.53816  0.81755  1.0000
  S   S64       1.0  0.05869  0.54294  0.88269  1.0000
  S   S65       1.0  0.08214  0.57085  0.77429  1.0000
  C   C196      1.0  0.15445  0.91488  0.83966  1.0000
  C   C197      1.0  0.14698  0.93622  0.87000  1.0000
  C   C198      1.0  0.12185  0.95944  0.86551  1.0000
  C   C199      1.0  0.10378  0.96147  0.83085  1.0000
  C   C200      1.0  0.11119  0.94003  0.80063  1.0000
  C   C201      1.0  0.13645  0.91703  0.80499  1.0000
  H   H241      1.0  0.16059  0.93494  0.89681  1.0000
  H   H242      1.0  0.27218  0.82661  0.78800  1.0000
  C   C202      1.0  0.33219  0.64806  0.49699  1.0000
  H   H243      1.0  0.14205  0.90083  0.78128  1.0000
  C   C203      1.0  0.26826  0.78471  0.54653  1.0000
  C   C204      1.0  0.27374  0.76774  0.58112  1.0000
  C   C205      1.0  0.26996  0.73407  0.58255  1.0000
  C   C206      1.0  0.26048  0.71712  0.54942  1.0000
  C   C207      1.0  0.35015  0.67207  0.55652  1.0000
  H   H244      1.0  0.30714  0.90479  0.76031  1.0000
  H   H245      1.0  0.28054  0.78074  0.60702  1.0000
  H   H246      1.0  0.27391  0.72124  0.60937  1.0000
  C   C208      1.0  0.04873  0.98279  0.51187  1.0000
  H   H247      1.0  0.31923  0.53630  0.61191  1.0000
  C   C209      1.0  0.26531  0.71502  0.77594  1.0000
  C   C210      1.0  0.29671  0.72651  0.76741  1.0000
  C   C211      1.0  0.31015  0.75164  0.78988  1.0000
  C   C212      1.0  0.29224  0.76541  0.82075  1.0000
  C   C213      1.0  0.26080  0.75399  0.82889  1.0000
  C   C214      1.0  0.24748  0.72887  0.80669  1.0000
  H   H248      1.0  0.31066  0.71604  0.74373  1.0000
  H   H249      1.0  0.04006  0.94378  0.61888  1.0000
  H   H250      1.0  0.24687  0.76420  0.85265  1.0000
  H   H251      1.0  0.22310  0.72030  0.81337  1.0000
  C   C215      1.0  0.17436  0.55353  0.69986  1.0000
  C   C216      1.0  0.15650  0.58227  0.69702  1.0000
  C   C217      1.0  0.12778  0.58662  0.71917  1.0000
  C   C218      1.0  0.11677  0.56254  0.74475  1.0000
  C   C219      1.0  0.13386  0.53324  0.74653  1.0000
  C   C220      1.0  0.16246  0.52869  0.72392  1.0000
  H   H252      1.0  0.16504  0.60137  0.67813  1.0000
  H   H253      1.0  0.11441  0.60917  0.71717  1.0000
  C   C221      1.0  0.25591  0.73391  0.51446  1.0000
  H   H254      1.0  0.20286  0.54817  0.79352  1.0000
  N   N14       1.0  0.02080  0.97754  0.57686  1.0000
  N   N15       1.0  0.20079  0.61135  0.81802  1.0000
  C   C222      1.0  0.23671  0.60587  0.81575  1.0000
  C   C223      1.0  0.18810  0.61582  0.77818  1.0000
  C   C224      1.0  0.19532  0.64208  0.83945  1.0000
  C   C225      1.0  0.18442  0.58310  0.83598  1.0000
  C   C226      1.0  0.16348  0.58568  0.86904  1.0000
  C   C227      1.0  0.18816  0.55188  0.81936  1.0000
  S   S66       1.0  0.04865  0.98962  0.71208  1.0000
  H   H255      1.0  0.31315  0.83015  0.61992  1.0000
  H   H256      1.0  0.11632  0.97587  0.88908  1.0000
  C   C228      1.0  0.27659  0.85916  0.64856  1.0000
  H   H257      1.0  0.24331  0.58525  0.79654  1.0000
  H   H258      1.0  0.24971  0.62725  0.80342  1.0000
  H   H259      1.0  0.19788  0.63800  0.76418  1.0000
  H   H260      1.0  0.16086  0.61766  0.77836  1.0000
  H   H261      1.0  0.19508  0.59548  0.75882  1.0000
  H   H262      1.0  0.20446  0.64049  0.86978  1.0000
  H   H263      1.0  0.20852  0.66257  0.82540  1.0000
  H   H264      1.0  0.16891  0.64892  0.83991  1.0000
  H   H265      1.0  0.04946  0.75625  0.97148  1.0000
  H   H266      1.0  0.12543  0.51438  0.76584  1.0000
  H   H267      1.0  0.09758  0.94135  0.77381  1.0000
  C   C229      1.0  0.15156  0.52838  0.86707  1.0000
  C   C230      1.0  0.10323  0.51339  0.61990  1.0000
  C   C231      1.0  0.35013  0.92488  0.98755  1.0000
  S   S67       1.0  0.22513  0.88002  0.95712  1.0000
  S   S68       1.0  0.07267  0.99143  0.82637  1.0000
  C   C232      1.0  0.25990  0.76764  0.51296  1.0000
  H   H268      1.0  0.02225  0.60144  0.95667  1.0000
  N   N16       1.0  0.26616  0.87217  0.75806  1.0000
  H   H269      1.0  0.23219  0.90596  0.78450  1.0000
  C   C233      1.0  0.23985  0.89695  0.75527  1.0000
  C   C234      1.0  0.25317  0.84498  0.78144  1.0000
  C   C235      1.0  0.27762  0.85987  0.71993  1.0000
  C   C236      1.0  0.30298  0.83780  0.64766  1.0000
  H   H270      1.0  0.03615  0.53337  0.70659  1.0000
  H   H271      1.0  0.03493  0.71839  0.99061  1.0000
  H   H272      1.0  0.27942  0.51946  0.61816  1.0000
  H   H273      1.0  0.06529  0.94869  0.57715  1.0000
  C   C237      1.0  0.31631  0.82653  0.68228  1.0000
  H   H274      1.0  0.32228  0.54197  0.68520  1.0000
  C   C238      1.0  0.14742  0.55860  0.88419  1.0000
  H   H275      1.0  0.08831  0.52722  0.67640  1.0000
  H   H276      1.0  0.23301  0.83255  0.76606  1.0000
  H   H277      1.0  0.07246  0.98110  0.52550  1.0000
  H   H278      1.0  0.24332  0.85327  0.80997  1.0000
  C   C239      1.0  0.29406  0.88701  0.77900  1.0000
  H   H279      1.0  0.33866  0.73168  0.54495  1.0000
  H   H280      1.0  0.28587  0.90011  0.80556  1.0000
  N   N17       1.0  0.20650  0.76883  0.67790  1.0000
  C   C240      1.0  0.24206  0.76639  0.68589  1.0000
  C   C241      1.0  0.19244  0.73576  0.67726  1.0000
  C   C242      1.0  0.20250  0.78264  0.63834  1.0000
  C   C243      1.0  0.19070  0.78837  0.70886  1.0000
  C   C244      1.0  0.19011  0.77703  0.74778  1.0000
  C   C245      1.0  0.17656  0.81928  0.70192  1.0000
  C   C246      1.0  0.17581  0.79515  0.77772  1.0000
  C   C247      1.0  0.16210  0.83711  0.73207  1.0000
  C   C248      1.0  0.16170  0.82507  0.76984  1.0000
  H   H281      1.0  0.24707  0.75492  0.71440  1.0000
  H   H282      1.0  0.25492  0.75135  0.66383  1.0000
  H   H283      1.0  0.25370  0.79064  0.68612  1.0000
  H   H284      1.0  0.19806  0.72179  0.70397  1.0000
  H   H285      1.0  0.20256  0.72103  0.65284  1.0000
  H   H286      1.0  0.16532  0.73658  0.67408  1.0000
  H   H287      1.0  0.21549  0.80614  0.63504  1.0000
  H   H288      1.0  0.21291  0.76649  0.61551  1.0000
  H   H289      1.0  0.17619  0.78596  0.63097  1.0000
  H   H290      1.0  0.20100  0.75410  0.75541  1.0000
  H   H291      1.0  0.17619  0.83020  0.67345  1.0000
  H   H292      1.0  0.17592  0.78614  0.80731  1.0000
  H   H293      1.0  0.15102  0.86045  0.72621  1.0000
  H   H294      1.0  0.15066  0.83908  0.79319  1.0000
  H   H295      1.0  0.33683  0.80983  0.68146  1.0000
  S   S69       1.0  0.30721  0.92137  0.98021  1.0000
  H   H296      1.0  0.24705  0.60095  0.84500  1.0000
  H   H297      1.0  0.24813  0.91848  0.73858  1.0000
  H   H298      1.0  0.13107  0.56108  0.90898  1.0000
  H   H299      1.0  0.15854  0.60837  0.88334  1.0000
  Fe  Fe35      1.0  0.03698  0.99635  0.77562  1.0000
  C   C249      1.0  0.26391  0.87012  0.68406  1.0000
  H   H300      1.0  0.26641  0.86773  0.62131  1.0000
  H   H301      1.0  0.12248  0.53142  0.61897  1.0000
  C   C250      1.0  0.17198  0.52501  0.83480  1.0000
  H   H302      1.0  0.06350  0.00794  0.58443  1.0000
  C   C251      1.0  0.30377  0.83720  0.71795  1.0000
  C   C252      1.0  0.30893  0.51854  0.68682  1.0000
  H   H303      1.0  0.31225  0.86876  0.78899  1.0000
  H   H304      1.0  0.02784  0.92605  0.57369  1.0000
  H   H305      1.0  0.31509  0.82800  0.74410  1.0000
  H   H306      1.0  0.33456  0.76033  0.78348  1.0000
  H   H307      1.0  0.30690  0.65811  0.49934  1.0000
  H   H308      1.0  0.20288  0.64205  0.50685  1.0000
  H   H309      1.0  0.28239  0.52468  0.68813  1.0000
  C   C253      1.0  0.01939  0.98149  0.53414  1.0000
  C   C254      1.0  0.03761  0.00578  0.59415  1.0000
  H   H310      1.0  0.03809  0.00445  0.62645  1.0000
  C   C255      1.0  0.34467  0.73127  0.51440  1.0000
  H   H311      1.0  0.33234  0.62427  0.51202  1.0000
  C   C256      1.0  0.30595  0.51322  0.61721  1.0000
  H   H312      1.0  0.10449  0.73574  0.99367  1.0000
  Fe  Fe36      1.0  0.39270  0.27807  0.29783  1.0000
  S   S70       1.0  0.40802  0.23525  0.33339  1.0000
  S   S71       1.0  0.40280  0.33142  0.31092  1.0000
  H   H313      1.0  0.36316  0.50935  0.02030  1.0000
  H   H314      1.0  0.55097  0.08278  0.49432  1.0000
  C   C257      1.0  0.48253  0.47665  0.25736  1.0000
  Fe  Fe37      1.0  0.41160  0.20732  0.27709  1.0000
  S   S72       1.0  0.45360  0.17194  0.26497  1.0000
  Fe  Fe38      1.0  0.55843  0.49621  0.49141  1.0000
  S   S73       1.0  0.40116  0.25159  0.24116  1.0000
  H   H315      1.0  0.64363  0.09500  0.04413  1.0000
  H   H316      1.0  0.59050  0.09132  0.07616  1.0000
  H   H317      1.0  0.43524  0.05358  0.28355  1.0000
  C   C258      1.0  0.39692  0.23402  0.08398  1.0000
  S   S74       1.0  0.44723  0.04739  0.15510  1.0000
  C   C259      1.0  0.35850  0.21012  0.03941  1.0000
  H   H318      1.0  0.36796  0.06382  0.31192  1.0000
  S   S75       1.0  0.56275  0.47649  0.43094  1.0000
  C   C260      1.0  0.67134  0.45803  0.11435  1.0000
  Fe  Fe39      1.0  0.51232  0.45592  0.43940  1.0000
  S   S76       1.0  0.50601  0.40325  0.41998  1.0000
  S   S77       1.0  0.49533  0.49380  0.07069  1.0000
  H   H319      1.0  0.37713  0.26451  0.41678  1.0000
  H   H320      1.0  0.59077  0.49053  0.17849  1.0000
  C   C261      1.0  0.63852  0.46364  0.10374  1.0000
  C   C262      1.0  0.61373  0.44352  0.11777  1.0000
  C   C263      1.0  0.62217  0.41773  0.14246  1.0000
  H   H321      1.0  0.62187  0.15766  0.16403  1.0000
  H   H322      1.0  0.42737  0.11012  0.33859  1.0000
  H   H323      1.0  0.63242  0.48364  0.08488  1.0000
  H   H324      1.0  0.49396  0.40276  0.30089  1.0000
  H   H325      1.0  0.51903  0.44107  0.16221  1.0000
  C   C264      1.0  0.36167  0.32104  0.00737  1.0000
  H   H326      1.0  0.41240  0.12645  0.40860  1.0000
  C   C265      1.0  0.60296  0.12403  0.12233  1.0000
  H   H327      1.0  0.37813  0.20235  0.01898  1.0000
  H   H328      1.0  0.61682  0.16384  0.37218  1.0000
  H   H329      1.0  0.40487  0.25641  0.09918  1.0000
  H   H330      1.0  0.54304  0.42615  0.22431  1.0000
  S   S78       1.0  0.35953  0.19084  0.27981  1.0000
  C   C266      1.0  0.37299  0.26676  0.03311  1.0000
  H   H331      1.0  0.67465  0.13203  0.00812  1.0000
  C   C267      1.0  0.45145  0.13873  0.23216  1.0000
  C   C268      1.0  0.48059  0.12417  0.21867  1.0000
  C   C269      1.0  0.47983  0.09702  0.19381  1.0000
  C   C270      1.0  0.44981  0.08356  0.18296  1.0000
  C   C271      1.0  0.42071  0.09790  0.19686  1.0000
  C   C272      1.0  0.42146  0.12556  0.22080  1.0000
  H   H332      1.0  0.50391  0.13410  0.22737  1.0000
  H   H333      1.0  0.50243  0.08624  0.18358  1.0000
  H   H334      1.0  0.39737  0.08765  0.18875  1.0000
  H   H335      1.0  0.39883  0.13646  0.23076  1.0000
  C   C273      1.0  0.43206  0.35083  0.34098  1.0000
  C   C274      1.0  0.42908  0.38427  0.34773  1.0000
  C   C275      1.0  0.45088  0.40058  0.37259  1.0000
  C   C276      1.0  0.47657  0.38376  0.39019  1.0000
  C   C277      1.0  0.47960  0.35035  0.38335  1.0000
  C   C278      1.0  0.45739  0.33389  0.35914  1.0000
  H   H336      1.0  0.40938  0.39756  0.33411  1.0000
  H   H337      1.0  0.44772  0.42609  0.37824  1.0000
  H   H338      1.0  0.49939  0.33709  0.39683  1.0000
  H   H339      1.0  0.46010  0.30821  0.35421  1.0000
  S   S79       1.0  0.57191  0.44996  0.10602  1.0000
  C   C279      1.0  0.52024  0.40986  0.30269  1.0000
  H   H340      1.0  0.58888  0.16402  0.43254  1.0000
  C   C280      1.0  0.65787  0.14623  0.11993  1.0000
  C   C281      1.0  0.62157  0.12216  0.43288  1.0000
  H   H341      1.0  0.65804  0.15885  0.35529  1.0000
  C   C282      1.0  0.59226  0.13930  0.44172  1.0000
  H   H342      1.0  0.56335  0.47975  0.29494  1.0000
  C   C283      1.0  0.39814  0.26400  0.00457  1.0000
  H   H343      1.0  0.60016  0.05091  0.47737  1.0000
  Fe  Fe40      1.0  0.55025  0.48772  0.06492  1.0000
  H   H344      1.0  0.39907  0.28982  0.47802  1.0000
  C   C284      1.0  0.67864  0.11812  0.40817  1.0000
  H   H345      1.0  0.39029  0.15994  0.38885  1.0000
  H   H346      1.0  0.35961  0.36490  0.43696  1.0000
  C   C285      1.0  0.60942  0.10649  0.08863  1.0000
  H   H347      1.0  0.39529  0.10999  0.30296  1.0000
  H   H348      1.0  0.52933  0.40154  0.33152  1.0000
  C   C286      1.0  0.37822  0.28946  0.40471  1.0000
  H   H349      1.0  0.67503  0.34420  0.08976  1.0000
  H   H350      1.0  0.39275  0.33273  0.48632  1.0000
  S   S80       1.0  0.48813  0.50028  0.41540  1.0000
  H   H351      1.0  0.41280  0.24236  0.00200  1.0000
  C   C287      1.0  0.63796  0.14686  0.37202  1.0000
  H   H352      1.0  0.54543  0.13902  0.47119  1.0000
  H   H353      1.0  0.37922  0.02382  0.44684  1.0000
  Fe  Fe41      1.0  0.53343  0.02889  0.04612  1.0000
  H   H354      1.0  0.36944  0.13313  0.42044  1.0000
  H   H355      1.0  0.66118  0.39214  0.17196  1.0000
  H   H356      1.0  0.39282  0.21520  0.10666  1.0000
  C   C288      1.0  0.52253  0.44272  0.22469  1.0000
  C   C289      1.0  0.62337  0.08950  0.44556  1.0000
  H   H357      1.0  0.57908  0.12243  0.13614  1.0000
  C   C290      1.0  0.65506  0.41204  0.15298  1.0000
  H   H358      1.0  0.67835  0.38829  0.04425  1.0000
  H   H359      1.0  0.47084  0.48707  0.28262  1.0000
  H   H360      1.0  0.47173  0.47830  0.15934  1.0000
  H   H361      1.0  0.44812  0.50093  0.21977  1.0000
  H   H362      1.0  0.57386  0.44060  0.27573  1.0000
  C   C291      1.0  0.38821  0.13390  0.39683  1.0000
  H   H363      1.0  0.66385  0.33879  0.02294  1.0000
  C   C292      1.0  0.64002  0.10868  0.07049  1.0000
  N   N18       1.0  0.36980  0.31387  0.43474  1.0000
  H   H364      1.0  0.57079  0.44648  0.32694  1.0000
  N   N19       1.0  0.37867  0.11372  0.36300  1.0000
  Fe  Fe42      1.0  0.48409  0.02364  0.11362  1.0000
  H   H365      1.0  0.54620  0.03067  0.23290  1.0000
  H   H366      1.0  0.60313  0.40205  0.15349  1.0000
  S   S81       1.0  0.47827  0.02540  0.04848  1.0000
  H   H367      1.0  0.42086  0.31912  0.44995  1.0000
  H   H368      1.0  0.36138  0.29024  0.37949  1.0000
  C   C293      1.0  0.56708  0.12515  0.46348  1.0000
  C   C294      1.0  0.57447  0.50858  0.19090  1.0000
  C   C295      1.0  0.50883  0.45097  0.18890  1.0000
  S   S82       1.0  0.55504  0.06544  0.00346  1.0000
  S   S83       1.0  0.54873  0.48326  0.99967  1.0000
  H   H369      1.0  0.63047  0.12492  0.35564  1.0000
  C   C296      1.0  0.55955  0.45330  0.29864  1.0000
  H   H370      1.0  0.64471  0.07448  0.44081  1.0000
  H   H371      1.0  0.63856  0.18729  0.43134  1.0000
  H   H372      1.0  0.40608  0.14649  0.32615  1.0000
  H   H373      1.0  0.38407  0.08144  0.43506  1.0000
  N   N20       1.0  0.52415  0.44526  0.29770  1.0000
  H   H374      1.0  0.48226  0.45524  0.33429  1.0000
  C   C297      1.0  0.37729  0.07871  0.37174  1.0000
  H   H375      1.0  0.39386  0.35405  0.40688  1.0000
  C   C298      1.0  0.37123  0.05604  0.34161  1.0000
  H   H376      1.0  0.53385  0.39581  0.28031  1.0000
  C   C299      1.0  0.50871  0.46120  0.33183  1.0000
  H   H377      1.0  0.68123  0.17101  0.02944  1.0000
  C   C300      1.0  0.50981  0.45526  0.26011  1.0000
  C   C301      1.0  0.62712  0.14384  0.13796  1.0000
  N   N21       1.0  0.64866  0.13837  0.41179  1.0000
  C   C302      1.0  0.38014  0.06619  0.41007  1.0000
  N   N22       1.0  0.36693  0.24004  0.06088  1.0000
  S   S84       1.0  0.53852  0.03119  0.11121  1.0000
  H   H378      1.0  0.52002  0.45298  0.35953  1.0000
  C   C303      1.0  0.46909  0.48483  0.22133  1.0000
  C   C304      1.0  0.59779  0.07547  0.46677  1.0000
  H   H379      1.0  0.40318  0.29341  0.39241  1.0000
  C   C305      1.0  0.39665  0.31382  0.46373  1.0000
  C   C306      1.0  0.40280  0.12011  0.33142  1.0000
  H   H380      1.0  0.35354  0.34686  0.38991  1.0000
  C   C307      1.0  0.53329  0.01219  0.21525  1.0000
  C   C308      1.0  0.66526  0.12853  0.08554  1.0000
  C   C309      1.0  0.48220  0.47198  0.18721  1.0000
  H   H381      1.0  0.67416  0.09575  0.39113  1.0000
  Fe  Fe43      1.0  0.49472  0.49282  0.00535  1.0000
  C   C310      1.0  0.56997  0.09338  0.47626  1.0000
  C   C311      1.0  0.65795  0.16848  0.43243  1.0000
  C   C312      1.0  0.36904  0.34627  0.41639  1.0000
  C   C313      1.0  0.67984  0.43228  0.13902  1.0000
  H   H382      1.0  0.51173  0.48793  0.33078  1.0000
  H   H383      1.0  0.66312  0.16349  0.46357  1.0000
  H   H384      1.0  0.41774  0.22550  0.06572  1.0000
  H   H385      1.0  0.60970  0.02026  0.01255  1.0000
  C   C314      1.0  0.61837  0.04134  0.99708  1.0000
  C   C315      1.0  0.37740  0.03304  0.41739  1.0000
  H   H386      1.0  0.46878  0.02937  0.23285  1.0000
  H   H387      1.0  0.67529  0.16230  0.13329  1.0000
  C   C316      1.0  0.47376  0.02254  0.26253  1.0000
  C   C317      1.0  0.45847  0.02771  0.33023  1.0000
  H   H388      1.0  0.54405  0.51052  0.14049  1.0000
  H   H389      1.0  0.68023  0.17979  0.41943  1.0000
  C   C318      1.0  0.36870  0.02294  0.34931  1.0000
  Fe  Fe44      1.0  0.35461  0.22219  0.33294  1.0000
  C   C319      1.0  0.35489  0.29620  0.03378  1.0000
  C   C320      1.0  0.45406  0.03629  0.29149  1.0000
  H   H390      1.0  0.51415  0.02474  0.19798  1.0000
  H   H391      1.0  0.35386  0.18949  0.05941  1.0000
  H   H392      1.0  0.44307  0.03818  0.35269  1.0000
  C   C321      1.0  0.37174  0.01148  0.38716  1.0000
  Fe  Fe45      1.0  0.40241  0.30401  0.86217  1.0000
  S   S85       1.0  0.40650  0.25074  0.87461  1.0000
  S   S86       1.0  0.44433  0.33321  0.88858  1.0000
  H   H393      1.0  0.66088  0.02878  0.68821  1.0000
  H   H394      1.0  0.48479  0.40944  0.78085  1.0000
  H   H395      1.0  0.66787  0.02341  0.99120  1.0000
  Fe  Fe46      1.0  0.39261  0.24237  0.81226  1.0000
  S   S87       1.0  0.41985  0.21278  0.76599  1.0000
  H   H396      1.0  0.60891  0.10294  0.70104  1.0000
  S   S88       1.0  0.39216  0.29580  0.79854  1.0000
  Fe  Fe47      1.0  0.54398  0.04997  0.62541  1.0000
  S   S89       1.0  0.55118  0.05254  0.69013  1.0000
  S   S90       1.0  0.57068  0.08670  0.58709  1.0000
  Fe  Fe48      1.0  0.49684  0.04544  0.69551  1.0000
  S   S91       1.0  0.46783  0.06630  0.74703  1.0000
  S   S92       1.0  0.48856  0.04702  0.63061  1.0000
  C   C322      1.0  0.50659  0.44905  0.86323  1.0000
  H   H397      1.0  0.47505  0.10582  0.86063  1.0000
  H   H398      1.0  0.67083  0.12627  0.52303  1.0000
  C   C323      1.0  0.58837  0.01726  0.86940  1.0000
  C   C324      1.0  0.52945  0.47546  0.80655  1.0000
  C   C325      1.0  0.53476  0.10515  0.89177  1.0000
  H   H399      1.0  0.50307  0.44651  0.89417  1.0000
  C   C326      1.0  0.62598  0.43052  0.60530  1.0000
  C   C327      1.0  0.60989  0.44936  0.57703  1.0000
  C   C328      1.0  0.62713  0.47305  0.55651  1.0000
  C   C329      1.0  0.66080  0.47697  0.56389  1.0000
  H   H400      1.0  0.51801  0.45317  0.75160  1.0000
  H   H401      1.0  0.61222  0.41275  0.62159  1.0000
  H   H402      1.0  0.58398  0.44617  0.57190  1.0000
  H   H403      1.0  0.58534  0.46881  0.87846  1.0000
  C   C330      1.0  0.67125  0.09084  0.71708  1.0000
  H   H404      1.0  0.65825  0.29849  0.97152  1.0000
  C   C331      1.0  0.56668  0.48071  0.89737  1.0000
  C   C332      1.0  0.40462  0.28897  0.97831  1.0000
  C   C333      1.0  0.60997  0.08129  0.56546  1.0000
  C   C334      1.0  0.62747  0.10851  0.55247  1.0000
  C   C335      1.0  0.66315  0.07047  0.96502  1.0000
  H   H405      1.0  0.42370  0.28627  0.95643  1.0000
  H   H406      1.0  0.51445  0.05493  0.93365  1.0000
  H   H407      1.0  0.61713  0.13234  0.55676  1.0000
  H   H408      1.0  0.67433  0.49537  0.54839  1.0000
  C   C336      1.0  0.43281  0.17185  0.76180  1.0000
  C   C337      1.0  0.45201  0.16277  0.72949  1.0000
  C   C338      1.0  0.46270  0.13061  0.72442  1.0000
  C   C339      1.0  0.45411  0.10698  0.75155  1.0000
  C   C340      1.0  0.43463  0.11593  0.78374  1.0000
  C   C341      1.0  0.42414  0.14819  0.78897  1.0000
  H   H409      1.0  0.45874  0.18082  0.70821  1.0000
  H   H410      1.0  0.47758  0.12417  0.69948  1.0000
  H   H411      1.0  0.42741  0.09779  0.80462  1.0000
  H   H412      1.0  0.40914  0.15474  0.81376  1.0000
  C   C342      1.0  0.44493  0.37078  0.91352  1.0000
  C   C343      1.0  0.47328  0.37952  0.93406  1.0000
  C   C344      1.0  0.47567  0.40979  0.95262  1.0000
  C   C345      1.0  0.44987  0.43197  0.95023  1.0000
  C   C346      1.0  0.42139  0.42315  0.92998  1.0000
  C   C347      1.0  0.41880  0.39266  0.91190  1.0000
  H   H413      1.0  0.49365  0.36278  0.93540  1.0000
  H   H414      1.0  0.49769  0.41613  0.96818  1.0000
  H   H415      1.0  0.40133  0.44016  0.92788  1.0000
  H   H416      1.0  0.39697  0.38640  0.89594  1.0000
  S   S93       1.0  0.50926  0.47236  0.50202  1.0000
  H   H417      1.0  0.50655  0.49511  0.92122  1.0000
  H   H418      1.0  0.68382  0.13855  0.69438  1.0000
  H   H419      1.0  0.48625  0.03893  0.89877  1.0000
  H   H420      1.0  0.55086  0.09877  0.91657  1.0000
  C   C348      1.0  0.62540  0.10212  0.67519  1.0000
  H   H421      1.0  0.47753  0.40663  0.85203  1.0000
  S   S94       1.0  0.60767  0.49941  0.52290  1.0000
  H   H422      1.0  0.47827  0.06830  0.83518  1.0000
  C   C349      1.0  0.68226  0.30368  0.98329  1.0000
  C   C350      1.0  0.59681  0.06677  0.98923  1.0000
  C   C351      1.0  0.65132  0.04316  0.98485  1.0000
  H   H423      1.0  0.55556  0.46162  0.91589  1.0000
  H   H424      1.0  0.54381  0.49368  0.79196  1.0000
  C   C352      1.0  0.66658  0.37051  0.54348  1.0000
  C   C353      1.0  0.64086  0.04676  0.68419  1.0000
  H   H425      1.0  0.63297  0.12728  0.66853  1.0000
  C   C354      1.0  0.65959  0.43461  0.61289  1.0000
  H   H426      1.0  0.65019  0.11683  0.94135  1.0000
  N   N23       1.0  0.65368  0.08028  0.68179  1.0000
  H   H427      1.0  0.50492  0.10159  0.82311  1.0000
  H   H428      1.0  0.56405  0.01534  0.77538  1.0000
  S   S95       1.0  0.45261  0.47139  0.97044  1.0000
  C   C355      1.0  0.65370  0.04721  0.53969  1.0000
  N   N24       1.0  0.51710  0.07665  0.87640  1.0000
  H   H429      1.0  0.65028  0.35146  0.53159  1.0000
  H   H430      1.0  0.52407  0.05352  0.79941  1.0000
  C   C356      1.0  0.52572  0.47457  0.84766  1.0000
  H   H431      1.0  0.36385  0.48419  0.67820  1.0000
  H   H432      1.0  0.59219  0.11391  0.96317  1.0000
  C   C357      1.0  0.62356  0.05060  0.55958  1.0000
  H   H433      1.0  0.65902  0.37473  0.57422  1.0000
  C   C358      1.0  0.56440  0.02202  0.80583  1.0000
  H   H434      1.0  0.61045  0.09408  0.65018  1.0000
  N   N25       1.0  0.54183  0.49796  0.87391  1.0000
  H   H435      1.0  0.68367  0.10686  0.64056  1.0000
  H   H436      1.0  0.66394  0.07252  0.62088  1.0000
  C   C359      1.0  0.67704  0.45768  0.59161  1.0000
  C   C360      1.0  0.51470  0.45222  0.78286  1.0000
  C   C361      1.0  0.56535  0.03922  0.88418  1.0000
  H   H437      1.0  0.47938  0.07786  0.92066  1.0000
  H   H438      1.0  0.36049  0.18132  0.74119  1.0000
  H   H439      1.0  0.66349  0.02331  0.53424  1.0000
  C   C362      1.0  0.54103  0.05326  0.86006  1.0000
  C   C363      1.0  0.67415  0.07125  0.75086  1.0000
  H   H440      1.0  0.62286  0.04401  0.70835  1.0000
  C   C364      1.0  0.67092  0.07439  0.52606  1.0000
  C   C365      1.0  0.49600  0.42756  0.79921  1.0000
  C   C366      1.0  0.35346  0.49474  0.65120  1.0000
  C   C367      1.0  0.38644  0.31740  0.97970  1.0000
  C   C368      1.0  0.49289  0.08848  0.84758  1.0000
  H   H441      1.0  0.66421  0.04713  0.75249  1.0000
  C   C369      1.0  0.54137  0.04410  0.82022  1.0000
  C   C370      1.0  0.49193  0.42601  0.83932  1.0000
  H   H442      1.0  0.51754  0.12401  0.90278  1.0000
  S   S96       1.0  0.67848  0.41006  0.64887  1.0000
  Fe  Fe49      1.0  0.35233  0.25328  0.88665  1.0000
  H   H443      1.0  0.61035  0.02942  0.56918  1.0000
  H   H444      1.0  0.57984  0.49746  0.91724  1.0000
  C   C371      1.0  0.64148  0.09575  0.95681  1.0000
  C   C372      1.0  0.65792  0.10514  0.53324  1.0000
  H   H445      1.0  0.56698  0.04547  0.91464  1.0000
  H   H446      1.0  0.36153  0.48007  0.62575  1.0000
  H   H447      1.0  0.66111  0.39355  0.52821  1.0000
  H   H448      1.0  0.55039  0.11638  0.86888  1.0000
  H   H449      1.0  0.39162  0.33658  0.95914  1.0000
  C   C373      1.0  0.60853  0.09391  0.96898  1.0000
  C   C374      1.0  0.49854  0.06138  0.90868  1.0000
  H   H450      1.0  0.62765  0.03965  0.65722  1.0000
  C   C375      1.0  0.67593  0.08182  0.64758  1.0000
  H   H451      1.0  0.49268  0.60209  0.18607  1.0000
  H   H452      1.0  0.56369  0.55206  0.27300  1.0000
  Fe  Fe50      1.0  0.62637  0.79134  0.26422  1.0000
  S   S97       1.0  0.62719  0.73997  0.24302  1.0000
  S   S98       1.0  0.58395  0.82114  0.23956  1.0000
  Fe  Fe51      1.0  0.63400  0.72462  0.30505  1.0000
  S   S99       1.0  0.60167  0.69223  0.34287  1.0000
  C   C376      1.0  0.62951  0.57227  0.45489  1.0000
  S   S100      1.0  0.62954  0.77579  0.32658  1.0000
  S   S101      1.0  0.53616  0.54352  0.47139  1.0000
  Fe  Fe52      1.0  0.48581  0.97170  0.04963  1.0000
  S   S102      1.0  0.48760  0.96912  0.11491  1.0000
  S   S103      1.0  0.46099  0.93512  0.00976  1.0000
  Fe  Fe53      1.0  0.54182  0.97668  0.10851  1.0000
  S   S104      1.0  0.58244  0.95338  0.14433  1.0000
  S   S105      1.0  0.54080  0.97524  0.04310  1.0000
  Fe  Fe54      1.0  0.50505  0.54683  0.06522  1.0000
  H   H453      1.0  0.47946  0.58927  0.28963  1.0000
  S   S106      1.0  0.48151  0.58719  0.10072  1.0000
  C   C377      1.0  0.68282  0.79270  0.08850  1.0000
  S   S107      1.0  0.56116  0.54393  0.35660  1.0000
  S   S108      1.0  0.56009  0.54127  0.06409  1.0000
  C   C378      1.0  0.59232  0.65053  0.34677  1.0000
  C   C379      1.0  0.57056  0.64060  0.37617  1.0000
  C   C380      1.0  0.56165  0.60794  0.38023  1.0000
  C   C381      1.0  0.57437  0.58476  0.35477  1.0000
  C   C382      1.0  0.59688  0.59451  0.32594  1.0000
  C   C383      1.0  0.60577  0.62727  0.32184  1.0000
  H   H454      1.0  0.56017  0.65838  0.39576  1.0000
  H   H455      1.0  0.54447  0.60084  0.40267  1.0000
  H   H456      1.0  0.60753  0.57672  0.30663  1.0000
  H   H457      1.0  0.62282  0.63452  0.29934  1.0000
  C   C384      1.0  0.58275  0.91564  0.16881  1.0000
  C   C385      1.0  0.61160  0.90556  0.18750  1.0000
  C   C386      1.0  0.61256  0.87658  0.20896  1.0000
  C   C387      1.0  0.58448  0.85750  0.21230  1.0000
  C   C388      1.0  0.55567  0.86750  0.19346  1.0000
  C   C389      1.0  0.55483  0.89626  0.17157  1.0000
  H   H458      1.0  0.63330  0.92044  0.18565  1.0000
  H   H459      1.0  0.63482  0.86933  0.22352  1.0000
  H   H460      1.0  0.53384  0.85285  0.19580  1.0000
  H   H461      1.0  0.53253  0.90351  0.15714  1.0000
  C   C390      1.0  0.35374  0.70243  0.49445  1.0000
  C   C391      1.0  0.64631  0.62517  0.47706  1.0000
  C   C392      1.0  0.55864  0.54365  0.24403  1.0000
  C   C393      1.0  0.39566  0.95295  0.01909  1.0000
  Fe  Fe55      1.0  0.55454  0.53768  0.99912  1.0000
  C   C394      1.0  0.67633  0.70392  0.01874  1.0000
  C   C395      1.0  0.64850  0.80456  0.16379  1.0000
  C   C396      1.0  0.41350  0.57320  0.03381  1.0000
  H   H462      1.0  0.40430  0.97219  0.03766  1.0000
  H   H463      1.0  0.48812  0.94502  0.23359  1.0000
  C   C397      1.0  0.38647  0.57762  0.17190  1.0000
  C   C398      1.0  0.40070  0.60785  0.16551  1.0000
  C   C399      1.0  0.42946  0.61042  0.14301  1.0000
  C   C400      1.0  0.44435  0.58284  0.12682  1.0000
  C   C401      1.0  0.43028  0.55257  0.13341  1.0000
  C   C402      1.0  0.40158  0.55000  0.15609  1.0000
  H   H464      1.0  0.44039  0.63389  0.13834  1.0000
  N   N26       1.0  0.63113  0.79339  0.12858  1.0000
  H   H465      1.0  0.36593  0.63392  0.10509  1.0000
  H   H466      1.0  0.36258  0.73646  0.40382  1.0000
  Fe  Fe56      1.0  0.48724  0.51833  0.47755  1.0000
  H   H467      1.0  0.58414  0.79919  0.15712  1.0000
  C   C403      1.0  0.65190  0.67842  0.08972  1.0000
  H   H468      1.0  0.64554  0.84986  0.01125  1.0000
  H   H469      1.0  0.53949  0.94465  0.27036  1.0000
  H   H470      1.0  0.55042  0.60652  0.26903  1.0000
  C   C404      1.0  0.35786  0.73487  0.43482  1.0000
  C   C405      1.0  0.49916  0.96477  0.21598  1.0000
  H   H471      1.0  0.52064  0.97431  0.32098  1.0000
  C   C406      1.0  0.53104  0.61109  0.24718  1.0000
  C   C407      1.0  0.54774  0.96674  0.25472  1.0000
  H   H472      1.0  0.39078  0.52650  0.16103  1.0000
  H   H473      1.0  0.54342  0.61951  0.22012  1.0000
  Fe  Fe57      1.0  0.53846  0.52225  0.41152  1.0000
  H   H474      1.0  0.51518  0.56626  0.29944  1.0000
  C   C408      1.0  0.36004  0.70516  0.45396  1.0000
  H   H475      1.0  0.59763  0.83383  0.13106  1.0000
  H   H476      1.0  0.46697  0.57123  0.20750  1.0000
  C   C409      1.0  0.40356  0.54205  0.02447  1.0000
  H   H477      1.0  0.39987  0.61972  0.05406  1.0000
  C   C410      1.0  0.65582  0.83390  0.03303  1.0000
  H   H478      1.0  0.35928  0.65487  0.03938  1.0000
  C   C411      1.0  0.49636  0.57089  0.27689  1.0000
  C   C412      1.0  0.54816  0.52005  0.16937  1.0000
  C   C413      1.0  0.59737  0.80692  0.13026  1.0000
  S   S109      1.0  0.35374  0.95310  0.47695  1.0000
  H   H479      1.0  0.43925  0.57945  0.03224  1.0000
  S   S110      1.0  0.68088  0.79820  0.25897  1.0000
  C   C414      1.0  0.48348  0.59189  0.21402  1.0000
  H   H480      1.0  0.63592  0.56277  0.39414  1.0000
  Fe  Fe58      1.0  0.68204  0.74609  0.24079  1.0000
  H   H481      1.0  0.39521  0.65137  0.47729  1.0000
  C   C415      1.0  0.65285  0.61051  0.40933  1.0000
  C   C416      1.0  0.50266  0.99166  0.31132  1.0000
  C   C417      1.0  0.52710  0.54356  0.18474  1.0000
  H   H482      1.0  0.61349  0.74950  0.15510  1.0000
  N   N27       1.0  0.51088  0.58201  0.23964  1.0000
  C   C418      1.0  0.49910  0.00026  0.27156  1.0000
  N   N28       1.0  0.51966  0.98617  0.24022  1.0000
  H   H483      1.0  0.65256  0.71595  0.43142  1.0000
  H   H484      1.0  0.66219  0.66882  0.36982  1.0000
  H   H485      1.0  0.38956  0.62923  0.17803  1.0000
  C   C419      1.0  0.36187  0.94958  0.01180  1.0000
  C   C420      1.0  0.53184  0.55625  0.22270  1.0000
  H   H486      1.0  0.61204  0.83315  0.06594  1.0000
  H   H487      1.0  0.36062  0.84868  0.05417  1.0000
  C   C421      1.0  0.41814  0.93158  0.00210  1.0000
  C   C422      1.0  0.68232  0.67127  0.39124  1.0000
  C   C423      1.0  0.63679  0.82394  0.06468  1.0000
  H   H488      1.0  0.67299  0.79315  0.16710  1.0000
  C   C424      1.0  0.64992  0.80325  0.09370  1.0000
  H   H489      1.0  0.56358  0.95784  0.23046  1.0000
  C   C425      1.0  0.62840  0.75769  0.12978  1.0000
  H   H490      1.0  0.47873  0.97817  0.20189  1.0000
  C   C426      1.0  0.65691  0.63399  0.43914  1.0000
  H   H491      1.0  0.46788  0.61100  0.22751  1.0000
  H   H492      1.0  0.50743  0.55139  0.16614  1.0000
  C   C427      1.0  0.48256  0.00531  0.34007  1.0000
  C   C428      1.0  0.39060  0.59621  0.04614  1.0000
  H   H493      1.0  0.42150  0.52417  0.01533  1.0000
  H   H494      1.0  0.48226  0.54823  0.27277  1.0000
  H   H495      1.0  0.51388  0.95331  0.19235  1.0000
  S   S111      1.0  0.50042  0.54681  0.00021  1.0000
  H   H496      1.0  0.58235  0.79870  0.10530  1.0000
  H   H497      1.0  0.51605  0.63149  0.25876  1.0000
  N   N29       1.0  0.67030  0.66668  0.43168  1.0000
  H   H498      1.0  0.63460  0.79857  0.19062  1.0000
  H   H499      1.0  0.55111  0.00255  0.19347  1.0000
  C   C429      1.0  0.64424  0.69090  0.02173  1.0000
  H   H500      1.0  0.65204  0.83120  0.16336  1.0000
  H   H501      1.0  0.44154  0.53115  0.12121  1.0000
  C   C430      1.0  0.63937  0.58017  0.41734  1.0000
  H   H502      1.0  0.36658  0.68429  0.43669  1.0000
  C   C431      1.0  0.63237  0.67821  0.05667  1.0000
  C   C432      1.0  0.57974  0.52039  0.22820  1.0000
  H   H503      1.0  0.62219  0.68591  0.42129  1.0000
  H   H504      1.0  0.36938  0.98585  0.39340  1.0000
  C   C433      1.0  0.64432  0.69108  0.43903  1.0000
  H   H505      1.0  0.56373  0.98126  0.27408  1.0000
  H   H506      1.0  0.48562  0.99835  0.37023  1.0000
  H   H507      1.0  0.64282  0.66827  0.11673  1.0000
  H   H508      1.0  0.61688  0.74821  0.10288  1.0000
  H   H509      1.0  0.63635  0.69157  0.46991  1.0000
  H   H510      1.0  0.61884  0.54878  0.46089  1.0000
  C   C434      1.0  0.68330  0.69145  0.08799  1.0000
  H   H511      1.0  0.65263  0.74571  0.13283  1.0000
  C   C435      1.0  0.35674  0.58878  0.04908  1.0000
  C   C436      1.0  0.63300  0.59468  0.48471  1.0000
  H   H512      1.0  0.60802  0.66777  0.05788  1.0000
  H   H513      1.0  0.65932  0.61510  0.37943  1.0000
  C   C437      1.0  0.37059  0.53379  0.02732  1.0000
  S   S112      1.0  0.43757  0.54204  0.49193  1.0000
  Fe  Fe59      1.0  0.68418  0.77776  0.31969  1.0000
  H   H514      1.0  0.60045  0.51169  0.24480  1.0000
  H   H515      1.0  0.36405  0.00603  0.32591  1.0000
  H   H516      1.0  0.62816  0.69012  0.99682  1.0000
  H   H517      1.0  0.49636  0.98808  0.78413  1.0000
  H   H518      1.0  0.54460  0.79528  0.71272  1.0000
  Fe  Fe60      1.0  0.62008  0.81216  0.83389  1.0000
  S   S113      1.0  0.61598  0.76207  0.80931  1.0000
  S   S114      1.0  0.57934  0.84851  0.82157  1.0000
  Fe  Fe61      1.0  0.62937  0.74268  0.86830  1.0000
  S   S115      1.0  0.59925  0.70958  0.90824  1.0000
  C   C438      1.0  0.37259  0.90339  0.97070  1.0000
  S   S116      1.0  0.62913  0.79281  0.89353  1.0000
  Fe  Fe62      1.0  0.49675  0.99307  0.63160  1.0000
  Fe  Fe63      1.0  0.67037  0.76654  0.79841  1.0000
  H   H519      1.0  0.50638  0.96160  0.95352  1.0000
  S   S117      1.0  0.46849  0.95159  0.60336  1.0000
  H   H520      1.0  0.38410  0.90105  0.52204  1.0000
  S   S118      1.0  0.59751  0.97578  0.72019  1.0000
  S   S119      1.0  0.55154  0.99633  0.62230  1.0000
  H   H521      1.0  0.36396  0.88426  0.95197  1.0000
  C   C439      1.0  0.56726  0.80477  0.72615  1.0000
  H   H522      1.0  0.54279  0.93818  0.95648  1.0000
  C   C440      1.0  0.62167  0.82525  0.71792  1.0000
  S   S120      1.0  0.58856  0.55988  0.95338  1.0000
  H   H523      1.0  0.54131  0.53869  0.83488  1.0000
  C   C441      1.0  0.59656  0.66766  0.91950  1.0000
  C   C442      1.0  0.61616  0.64430  0.90128  1.0000
  C   C443      1.0  0.61348  0.61148  0.91206  1.0000
  C   C444      1.0  0.59124  0.60159  0.94110  1.0000
  C   C445      1.0  0.57172  0.62497  0.95935  1.0000
  C   C446      1.0  0.57441  0.65774  0.94860  1.0000
  H   H524      1.0  0.63332  0.65148  0.87887  1.0000
  H   H525      1.0  0.62874  0.59364  0.89776  1.0000
  H   H526      1.0  0.42525  0.99713  0.87541  1.0000
  H   H527      1.0  0.55912  0.67556  0.96291  1.0000
  C   C447      1.0  0.59200  0.94054  0.74846  1.0000
  C   C448      1.0  0.61935  0.92590  0.76578  1.0000
  C   C449      1.0  0.61591  0.89759  0.78805  1.0000
  C   C450      1.0  0.58498  0.88378  0.79334  1.0000
  C   C451      1.0  0.55759  0.89861  0.77632  1.0000
  C   C452      1.0  0.56106  0.92680  0.75387  1.0000
  H   H528      1.0  0.64337  0.93640  0.76177  1.0000
  H   H529      1.0  0.63716  0.88654  0.80126  1.0000
  H   H530      1.0  0.53356  0.88806  0.78016  1.0000
  H   H531      1.0  0.53982  0.93768  0.74048  1.0000
  H   H532      1.0  0.36782  0.68832  0.57131  1.0000
  H   H533      1.0  0.63198  0.80357  0.73269  1.0000
  C   C453      1.0  0.42078  0.92392  0.55792  1.0000
  C   C454      1.0  0.43597  0.95296  0.56903  1.0000
  C   C455      1.0  0.42522  0.98187  0.55224  1.0000
  C   C456      1.0  0.44846  0.98767  0.86484  1.0000
  H   H534      1.0  0.55981  0.82385  0.74729  1.0000
  C   C457      1.0  0.39531  0.92363  0.53034  1.0000
  C   C458      1.0  0.59849  0.79205  0.66836  1.0000
  H   H535      1.0  0.50807  0.86615  0.62354  1.0000
  C   C459      1.0  0.38514  0.57692  0.60367  1.0000
  C   C460      1.0  0.36898  0.57657  0.56796  1.0000
  C   C461      1.0  0.38538  0.56555  0.53428  1.0000
  C   C462      1.0  0.41804  0.55457  0.53578  1.0000
  C   C463      1.0  0.43405  0.55451  0.57161  1.0000
  C   C464      1.0  0.41765  0.56564  0.60531  1.0000
  H   H536      1.0  0.37272  0.56548  0.50676  1.0000
  H   H537      1.0  0.45915  0.54619  0.57328  1.0000
  H   H538      1.0  0.43040  0.56568  0.63279  1.0000
  C   C465      1.0  0.57605  0.84592  0.67726  1.0000
  C   C466      1.0  0.54611  0.84259  0.65676  1.0000
  C   C467      1.0  0.59035  0.87721  0.67777  1.0000
  C   C468      1.0  0.45889  0.99488  0.82723  1.0000
  H   H539      1.0  0.42887  0.90142  0.57065  1.0000
  H   H540      1.0  0.61285  0.88237  0.69289  1.0000
  H   H541      1.0  0.61514  0.80132  0.64521  1.0000
  H   H542      1.0  0.58648  0.92709  0.66012  1.0000
  H   H543      1.0  0.53038  0.95395  0.82441  1.0000
  Fe  Fe64      1.0  0.55508  0.99850  0.68738  1.0000
  H   H544      1.0  0.55448  0.61781  0.98170  1.0000
  H   H545      1.0  0.44404  0.01006  0.80851  1.0000
  H   H546      1.0  0.62503  0.58829  0.51383  1.0000
  C   C469      1.0  0.57535  0.90335  0.65910  1.0000
  H   H547      1.0  0.61760  0.84346  0.74112  1.0000
  N   N30       1.0  0.59081  0.81771  0.69713  1.0000
  H   H548      1.0  0.43654  0.00441  0.56054  1.0000
  C   C470      1.0  0.48844  0.98241  0.81347  1.0000
  C   C471      1.0  0.55868  0.52474  0.85322  1.0000
  H   H549      1.0  0.42352  0.89003  0.96475  1.0000
  H   H550      1.0  0.56974  0.54232  0.87394  1.0000
  Fe  Fe65      1.0  0.68249  0.79391  0.87818  1.0000
  H   H551      1.0  0.61100  0.77101  0.68220  1.0000
  S   S121      1.0  0.50140  0.99112  0.69683  1.0000
  H   H552      1.0  0.57621  0.78249  0.65405  1.0000
  H   H553      1.0  0.64111  0.83400  0.69777  1.0000
  S   S122      1.0  0.67353  0.81768  0.82038  1.0000
  H   H554      1.0  0.49664  0.52371  0.88401  1.0000
  H   H555      1.0  0.52824  0.53212  0.91876  1.0000
  H   H556      1.0  0.53381  0.81957  0.65495  1.0000
  H   H557      1.0  0.39337  0.63414  0.52448  1.0000
  C   C472      1.0  0.53119  0.86898  0.63857  1.0000
  C   C473      1.0  0.38481  0.95246  0.51320  1.0000
  C   C474      1.0  0.54574  0.89931  0.63984  1.0000
  H   H558      1.0  0.57798  0.78449  0.74307  1.0000
  N   N31       1.0  0.51771  0.93410  0.90163  1.0000
  C   C475      1.0  0.49789  0.90604  0.91458  1.0000
  C   C476      1.0  0.54791  0.92106  0.88299  1.0000
  C   C477      1.0  0.52775  0.95295  0.93621  1.0000
  C   C478      1.0  0.49793  0.95488  0.87566  1.0000
  C   C479      1.0  0.46769  0.96814  0.88886  1.0000
  C   C480      1.0  0.50783  0.96274  0.83713  1.0000
  S   S123      1.0  0.36547  0.59060  0.64694  1.0000
  H   H559      1.0  0.53390  0.91977  0.62598  1.0000
  H   H560      1.0  0.35272  0.64791  0.57048  1.0000
  H   H561      1.0  0.48884  0.89191  0.88929  1.0000
  H   H562      1.0  0.51226  0.88935  0.93333  1.0000
  H   H563      1.0  0.47623  0.91332  0.93221  1.0000
  H   H564      1.0  0.54197  0.90580  0.85734  1.0000
  H   H565      1.0  0.56201  0.90521  0.90303  1.0000
  H   H566      1.0  0.56486  0.94063  0.87372  1.0000
  H   H567      1.0  0.64184  0.73730  0.96469  1.0000
  C   C481      1.0  0.39988  0.98156  0.52444  1.0000
  H   H568      1.0  0.54231  0.97454  0.92774  1.0000
  H   H569      1.0  0.45858  0.96332  0.91790  1.0000
  H   H570      1.0  0.60565  0.99159  0.81869  1.0000
  C   C482      1.0  0.40639  0.90678  0.97794  1.0000
  H   H571      1.0  0.66087  0.68393  0.94456  1.0000
  H   H572      1.0  0.36520  0.51887  0.64770  1.0000
  H   H573      1.0  0.57932  0.51577  0.83489  1.0000
  H   H574      1.0  0.39183  0.00405  0.51179  1.0000
  H   H575      1.0  0.64785  0.64191  0.50104  1.0000
  N   N32       1.0  0.35638  0.67063  0.51398  1.0000
  C   C483      1.0  0.38981  0.65713  0.50820  1.0000
  C   C484      1.0  0.66787  0.74416  0.96904  1.0000
  H   H576      1.0  0.40882  0.67439  0.51834  1.0000
  H   H577      1.0  0.67645  0.75448  0.94104  1.0000
  S   S124      1.0  0.68371  0.74290  0.85555  1.0000
  H   H578      1.0  0.66836  0.76391  0.99092  1.0000
  C   C485      1.0  0.58780  0.00857  0.83029  1.0000
  H   H579      1.0  0.60701  0.00731  0.88834  1.0000
  C   C486      1.0  0.51725  0.51278  0.90049  1.0000
  Fe  Fe66      1.0  0.81601  0.11745  0.45078  1.0000
  S   S125      1.0  0.76842  0.10784  0.42013  1.0000
  S   S126      1.0  0.86782  0.09655  0.44506  1.0000
  H   H580      1.0  0.81356  0.23175  0.01317  1.0000
  S   S127      1.0  0.73363  0.16061  0.47995  1.0000
  S   S128      1.0  0.74485  0.21122  0.01659  1.0000
  Fe  Fe67      1.0  0.74374  0.10739  0.47908  1.0000
  H   H581      1.0  0.86580  0.37654  0.33553  1.0000
  Fe  Fe68      1.0  0.76117  0.16189  0.42303  1.0000
  S   S129      1.0  0.73910  0.18465  0.36917  1.0000
  H   H582      1.0  0.79413  0.35803  0.38865  1.0000
  S   S130      1.0  0.81030  0.17160  0.45002  1.0000
  Fe  Fe69      1.0  0.77484  0.34535  0.25114  1.0000
  S   S131      1.0  0.82672  0.34192  0.22892  1.0000
  S   S132      1.0  0.76635  0.32838  0.31327  1.0000
  Fe  Fe70      1.0  0.75266  0.39044  0.18512  1.0000
  S   S133      1.0  0.80345  0.39000  0.15971  1.0000
  C   C487      1.0  0.93600  0.12549  0.24043  1.0000
  Fe  Fe71      1.0  0.80308  0.33674  0.17018  1.0000
  S   S134      1.0  0.82702  0.30817  0.12133  1.0000
  Fe  Fe72      1.0  0.82268  0.39532  0.22007  1.0000
  S   S135      1.0  0.85988  0.43470  0.23283  1.0000
  S   S136      1.0  0.75105  0.33618  0.19258  1.0000
  S   S137      1.0  0.77211  0.39957  0.24507  1.0000
  H   H583      1.0  0.74545  0.15183  0.06931  1.0000
  H   H584      1.0  0.97059  0.07286  0.23533  1.0000
  S   S138      1.0  0.93557  0.03889  0.29184  1.0000
  C   C488      1.0  0.70539  0.38936  0.04757  1.0000
  H   H585      1.0  0.68821  0.11123  0.43721  1.0000
  S   S139      1.0  0.98364  0.43149  0.34490  1.0000
  C   C489      1.0  0.89414  0.43311  0.26418  1.0000
  C   C490      1.0  0.90771  0.40383  0.27647  1.0000
  C   C491      1.0  0.93505  0.40378  0.30128  1.0000
  C   C492      1.0  0.94894  0.43290  0.31426  1.0000
  C   C493      1.0  0.93527  0.46215  0.30205  1.0000
  C   C494      1.0  0.90820  0.46220  0.27684  1.0000
  H   H586      1.0  0.89733  0.38124  0.26678  1.0000
  H   H587      1.0  0.94557  0.38105  0.31052  1.0000
  H   H588      1.0  0.94582  0.48472  0.31163  1.0000
  H   H589      1.0  0.89798  0.48498  0.26730  1.0000
  C   C495      1.0  0.76877  0.23713  0.04582  1.0000
  C   C496      1.0  0.80174  0.24341  0.03767  1.0000
  C   C497      1.0  0.81941  0.26507  0.06119  1.0000
  C   C498      1.0  0.80432  0.28048  0.09302  1.0000
  C   C499      1.0  0.77142  0.27401  0.10125  1.0000
  C   C500      1.0  0.75374  0.25252  0.07768  1.0000
  C   C501      1.0  0.79406  0.41719  0.34801  1.0000
  H   H590      1.0  0.84487  0.26990  0.05464  1.0000
  H   H591      1.0  0.75960  0.28550  0.12581  1.0000
  H   H592      1.0  0.72820  0.24793  0.08404  1.0000
  C   C502      1.0  0.74999  0.22370  0.35274  1.0000
  C   C503      1.0  0.76618  0.24566  0.37677  1.0000
  C   C504      1.0  0.77210  0.27737  0.36377  1.0000
  C   C505      1.0  0.76239  0.28724  0.32647  1.0000
  C   C506      1.0  0.74721  0.26495  0.30199  1.0000
  C   C507      1.0  0.74076  0.23342  0.31525  1.0000
  H   H593      1.0  0.77344  0.23843  0.40566  1.0000
  H   H594      1.0  0.78398  0.29441  0.38285  1.0000
  H   H595      1.0  0.73936  0.27233  0.27337  1.0000
  H   H596      1.0  0.72820  0.21659  0.29651  1.0000
  C   C508      1.0  0.88633  0.08082  0.40206  1.0000
  C   C509      1.0  0.86965  0.07968  0.36670  1.0000
  C   C510      1.0  0.88513  0.06678  0.33337  1.0000
  C   C511      1.0  0.91742  0.05489  0.33486  1.0000
  C   C512      1.0  0.93425  0.05626  0.37012  1.0000
  C   C513      1.0  0.91874  0.06912  0.40350  1.0000
  H   H597      1.0  0.84474  0.08858  0.36509  1.0000
  H   H598      1.0  0.87186  0.06587  0.30628  1.0000
  H   H599      1.0  0.74184  0.28850  0.44593  1.0000
  H   H600      1.0  0.93188  0.06988  0.43067  1.0000
  N   N33       1.0  0.91408  0.38541  0.14098  1.0000
  C   C514      1.0  0.93133  0.41252  0.16044  1.0000
  C   C515      1.0  0.90172  0.36352  0.17183  1.0000
  C   C516      1.0  0.83381  0.36991  0.47339  1.0000
  C   C517      1.0  0.93504  0.36712  0.11336  1.0000
  H   H601      1.0  0.89739  0.33189  0.09809  1.0000
  C   C518      1.0  0.96803  0.37587  0.10485  1.0000
  C   C519      1.0  0.88567  0.39924  0.12002  1.0000
  C   C520      1.0  0.72278  0.33259  0.42204  1.0000
  S   S140      1.0  0.72186  0.42611  0.15008  1.0000
  H   H602      1.0  0.91497  0.42559  0.18121  1.0000
  H   H603      1.0  0.95255  0.40378  0.17771  1.0000
  H   H604      1.0  0.93979  0.43098  0.13918  1.0000
  H   H605      1.0  0.75547  0.38360  0.09468  1.0000
  H   H606      1.0  0.88531  0.34438  0.16034  1.0000
  H   H607      1.0  0.89384  0.41444  0.09515  1.0000
  H   H608      1.0  0.92756  0.12361  0.20983  1.0000
  S   S141      1.0  0.00293  0.47445  0.44190  1.0000
  C   C521      1.0  0.85391  0.39562  0.46291  1.0000
  H   H609      1.0  0.69879  0.13109  0.39288  1.0000
  H   H610      1.0  0.97984  0.39633  0.11818  1.0000
  C   C522      1.0  0.81233  0.35680  0.44640  1.0000
  H   H611      1.0  0.70438  0.36352  0.11995  1.0000
  H   H612      1.0  0.71616  0.39732  0.01942  1.0000
  H   H613      1.0  0.78344  0.43348  0.37053  1.0000
  H   H614      1.0  0.76922  0.37299  0.04704  1.0000
  H   H615      1.0  0.76866  0.31907  0.02515  1.0000
  H   H616      1.0  0.72706  0.14100  0.11487  1.0000
  N   N34       1.0  0.97234  0.12440  0.24310  1.0000
  H   H617      1.0  0.00708  0.11759  0.28993  1.0000
  H   H618      1.0  0.97927  0.09525  0.19198  1.0000
  H   H619      1.0  0.95909  0.04723  0.37177  1.0000
  H   H620      1.0  0.79692  0.33666  0.45467  1.0000
  C   C523      1.0  0.84868  0.43811  0.35067  1.0000
  H   H621      1.0  0.97561  0.21605  0.16253  1.0000
  C   C524      1.0  0.94158  0.32226  0.06707  1.0000
  H   H622      1.0  0.89056  0.16840  0.47964  1.0000
  H   H623      1.0  0.92228  0.35141  0.18719  1.0000
  C   C525      1.0  0.71149  0.09848  0.05876  1.0000
  C   C526      1.0  0.97382  0.33141  0.05950  1.0000
  H   H624      1.0  0.73610  0.09976  0.04467  1.0000
  H   H625      1.0  0.71378  0.17659  0.08825  1.0000
  H   H626      1.0  0.88699  0.37691  0.19391  1.0000
  H   H627      1.0  0.71408  0.08536  0.08676  1.0000
  H   H628      1.0  0.69032  0.47385  0.10339  1.0000
  H   H629      1.0  0.94582  0.17386  0.19624  1.0000
  H   H630      1.0  0.84560  0.44778  0.32069  1.0000
  H   H631      1.0  0.79206  0.42970  0.31950  1.0000
  C   C527      1.0  0.73075  0.31177  0.45236  1.0000
  H   H632      1.0  0.01205  0.36518  0.07192  1.0000
  H   H633      1.0  0.83866  0.39228  0.29897  1.0000
  H   H634      1.0  0.01031  0.08998  0.22813  1.0000
  C   C528      1.0  0.71688  0.33387  0.02882  1.0000
  H   H635      1.0  0.87537  0.43299  0.35376  1.0000
  H   H636      1.0  0.97448  0.14581  0.30001  1.0000
  C   C529      1.0  0.83065  0.39587  0.39722  1.0000
  C   C530      1.0  0.98875  0.19950  0.18126  1.0000
  H   H637      1.0  0.82504  0.36130  0.33108  1.0000
  H   H638      1.0  0.86912  0.42816  0.41920  1.0000
  C   C531      1.0  0.98366  0.09435  0.22385  1.0000
  C   C532      1.0  0.92237  0.33983  0.09346  1.0000
  H   H639      1.0  0.93137  0.30145  0.05233  1.0000
  N   N35       1.0  0.71977  0.35811  0.06026  1.0000
  H   H640      1.0  0.92592  0.14796  0.25371  1.0000
  H   H641      1.0  0.92441  0.10480  0.25606  1.0000
  C   C533      1.0  0.85259  0.40847  0.42538  1.0000
  H   H642      1.0  0.87073  0.40557  0.48405  1.0000
  C   C534      1.0  0.98073  0.12277  0.28499  1.0000
  H   H643      1.0  0.77808  0.39554  0.34573  1.0000
  H   H644      1.0  0.84163  0.45789  0.37096  1.0000
  H   H645      1.0  0.70983  0.40895  0.06908  1.0000
  H   H646      1.0  0.87033  0.41476  0.13945  1.0000
  H   H647      1.0  0.96723  0.10298  0.30008  1.0000
  N   N36       1.0  0.82855  0.40871  0.35718  1.0000
  C   C535      1.0  0.75415  0.36447  0.07198  1.0000
  C   C536      1.0  0.98884  0.15221  0.22443  1.0000
  Fe  Fe73      1.0  0.00620  0.47447  0.37655  1.0000
  H   H648      1.0  0.69662  0.08320  0.03904  1.0000
  H   H649      1.0  0.86919  0.38019  0.10838  1.0000
  C   C537      1.0  0.81080  0.36939  0.40879  1.0000
  C   C538      1.0  0.84000  0.38364  0.32951  1.0000
  C   C539      1.0  0.72173  0.15091  0.08555  1.0000
  H   H650      1.0  0.76590  0.34268  0.08480  1.0000
  C   C540      1.0  0.74417  0.31622  0.01398  1.0000
  C   C541      1.0  0.68577  0.32676  0.01266  1.0000
  Fe  Fe74      1.0  0.98734  0.01883  0.28299  1.0000
  N   N37       1.0  0.69704  0.13109  0.06482  1.0000
  C   C542      1.0  0.97193  0.17492  0.20081  1.0000
  H   H651      1.0  0.72742  0.32552  0.39216  1.0000
  H   H652      1.0  0.71481  0.14824  0.00976  1.0000
  C   C543      1.0  0.70175  0.34656  0.09505  1.0000
  H   H653      1.0  0.70287  0.37880  0.40646  1.0000
  C   C544      1.0  0.98696  0.35816  0.07826  1.0000
  C   C545      1.0  0.69157  0.14621  0.02644  1.0000
  C   C546      1.0  0.70234  0.37172  0.46854  1.0000
  C   C547      1.0  0.70887  0.36261  0.43014  1.0000
  H   H654      1.0  0.71106  0.32253  0.10455  1.0000
  H   H655      1.0  0.98876  0.31785  0.03897  1.0000
  C   C548      1.0  0.72457  0.32074  0.49093  1.0000
  H   H656      1.0  0.69158  0.39529  0.47343  1.0000
  H   H657      1.0  0.91893  0.13817  0.49527  1.0000
  S   S142      1.0  0.00377  0.01187  0.22054  1.0000
  Fe  Fe75      1.0  0.80615  0.13625  0.91681  1.0000
  S   S143      1.0  0.76532  0.11897  0.87901  1.0000
  S   S144      1.0  0.85976  0.12295  0.90619  1.0000
  C   C549      1.0  0.88305  0.19706  0.55004  1.0000
  S   S145      1.0  0.71638  0.16713  0.92776  1.0000
  S   S146      1.0  0.79287  0.19023  0.56361  1.0000
  Fe  Fe76      1.0  0.73474  0.11632  0.93360  1.0000
  H   H658      1.0  0.80448  0.23879  0.50412  1.0000
  Fe  Fe77      1.0  0.75097  0.17148  0.87701  1.0000
  S   S147      1.0  0.73982  0.19161  0.81737  1.0000
  C   C550      1.0  0.90901  0.45849  0.85489  1.0000
  S   S148      1.0  0.79297  0.18916  0.91278  1.0000
  Fe  Fe78      1.0  0.77592  0.36061  0.71708  1.0000
  S   S149      1.0  0.82218  0.37208  0.68390  1.0000
  S   S150      1.0  0.77981  0.33584  0.77583  1.0000
  Fe  Fe79      1.0  0.73274  0.40212  0.66260  1.0000
  S   S151      1.0  0.77620  0.41772  0.62715  1.0000
  C   C551      1.0  0.97009  0.13789  0.62442  1.0000
  Fe  Fe80      1.0  0.79109  0.36548  0.63063  1.0000
  S   S152      1.0  0.80485  0.34223  0.57343  1.0000
  Fe  Fe81      1.0  0.80356  0.42312  0.68369  1.0000
  S   S153      1.0  0.83469  0.46682  0.70065  1.0000
  S   S154      1.0  0.74665  0.34941  0.66377  1.0000
  S   S155      1.0  0.75842  0.41214  0.71921  1.0000
  H   H659      1.0  0.90415  0.50487  0.59528  1.0000
  H   H660      1.0  0.86294  0.20422  0.52997  1.0000
  H   H661      1.0  0.73378  0.32867  0.57166  1.0000
  H   H662      1.0  0.84772  0.03619  0.80865  1.0000
  S   S156      1.0  0.70732  0.06857  0.49821  1.0000
  S   S157      1.0  0.97367  0.45240  0.78296  1.0000
  C   C552      1.0  0.87445  0.46354  0.72115  1.0000
  C   C553      1.0  0.89304  0.43526  0.71748  1.0000
  C   C554      1.0  0.92342  0.43249  0.73634  1.0000
  C   C555      1.0  0.93586  0.45804  0.75867  1.0000
  C   C556      1.0  0.91798  0.48687  0.76104  1.0000
  C   C557      1.0  0.88738  0.48955  0.74239  1.0000
  H   H663      1.0  0.88372  0.41524  0.70067  1.0000
  H   H664      1.0  0.93723  0.41022  0.73392  1.0000
  H   H665      1.0  0.99506  0.46134  0.66079  1.0000
  H   H666      1.0  0.73757  0.22714  0.74558  1.0000
  C   C558      1.0  0.79360  0.23267  0.56495  1.0000
  C   C559      1.0  0.80074  0.25078  0.53172  1.0000
  C   C560      1.0  0.80407  0.28449  0.53454  1.0000
  C   C561      1.0  0.79990  0.30015  0.57041  1.0000
  C   C562      1.0  0.79185  0.28209  0.60333  1.0000
  C   C563      1.0  0.78879  0.24843  0.60057  1.0000
  H   H667      1.0  0.87256  0.11704  0.53367  1.0000
  H   H668      1.0  0.87295  0.19898  0.58008  1.0000
  H   H669      1.0  0.78849  0.29397  0.63106  1.0000
  H   H670      1.0  0.78255  0.23459  0.62615  1.0000
  C   C564      1.0  0.75073  0.23177  0.80590  1.0000
  C   C565      1.0  0.76336  0.25244  0.83418  1.0000
  C   C566      1.0  0.77223  0.28418  0.82432  1.0000
  C   C567      1.0  0.76853  0.29558  0.78620  1.0000
  C   C568      1.0  0.75617  0.27486  0.75775  1.0000
  C   C569      1.0  0.74726  0.24303  0.76764  1.0000
  H   H671      1.0  0.76597  0.24413  0.86375  1.0000
  H   H672      1.0  0.78172  0.30009  0.84648  1.0000
  H   H673      1.0  0.75322  0.28342  0.72829  1.0000
  H   H674      1.0  0.81027  0.29839  0.50900  1.0000
  C   C570      1.0  0.87397  0.09393  0.87184  1.0000
  C   C571      1.0  0.85243  0.07386  0.85163  1.0000
  C   C572      1.0  0.86459  0.05175  0.82389  1.0000
  C   C573      1.0  0.89835  0.04941  0.81593  1.0000
  C   C574      1.0  0.91990  0.06955  0.83601  1.0000
  C   C575      1.0  0.90774  0.09158  0.86390  1.0000
  H   H675      1.0  0.82643  0.07512  0.85762  1.0000
  H   H676      1.0  0.89706  0.11051  0.59319  1.0000
  H   H677      1.0  0.94595  0.06798  0.83030  1.0000
  H   H678      1.0  0.92464  0.10694  0.87941  1.0000
  N   N38       1.0  0.89504  0.16380  0.54191  1.0000
  C   C576      1.0  0.84402  0.47234  0.83592  1.0000
  H   H679      1.0  0.73186  0.30367  0.51301  1.0000
  S   S158      1.0  0.79189  0.11175  0.50937  1.0000
  N   N39       1.0  0.83344  0.41286  0.82090  1.0000
  C   C577      1.0  0.84555  0.39915  0.78373  1.0000
  C   C578      1.0  0.83363  0.38697  0.85071  1.0000
  C   C579      1.0  0.79877  0.42272  0.81503  1.0000
  C   C580      1.0  0.85501  0.43976  0.83308  1.0000
  C   C581      1.0  0.88831  0.43373  0.84249  1.0000
  H   H680      1.0  0.87205  0.39307  0.78432  1.0000
  H   H681      1.0  0.83241  0.37669  0.77578  1.0000
  H   H682      1.0  0.84154  0.41634  0.75956  1.0000
  H   H683      1.0  0.81600  0.36732  0.84347  1.0000
  H   H684      1.0  0.82680  0.39673  0.87976  1.0000
  H   H685      1.0  0.85794  0.37504  0.85314  1.0000
  H   H686      1.0  0.79645  0.44075  0.79115  1.0000
  H   H687      1.0  0.78324  0.40185  0.80627  1.0000
  H   H688      1.0  0.78783  0.43293  0.84203  1.0000
  S   S159      1.0  0.91227  0.02087  0.78094  1.0000
  N   N40       1.0  0.84549  0.16851  0.79341  1.0000
  C   C582      1.0  0.82236  0.14265  0.80471  1.0000
  C   C583      1.0  0.87954  0.15685  0.79959  1.0000
  C   C584      1.0  0.84004  0.19627  0.82009  1.0000
  C   C585      1.0  0.84028  0.17655  0.75201  1.0000
  C   C586      1.0  0.84793  0.15359  0.72263  1.0000
  C   C587      1.0  0.82621  0.20629  0.73971  1.0000
  C   C588      1.0  0.84259  0.16029  0.68336  1.0000
  C   C589      1.0  0.82099  0.21274  0.70035  1.0000
  C   C590      1.0  0.82922  0.18983  0.67225  1.0000
  H   H689      1.0  0.82447  0.13682  0.83608  1.0000
  H   H690      1.0  0.79652  0.15008  0.79930  1.0000
  H   H691      1.0  0.82691  0.11980  0.78856  1.0000
  H   H692      1.0  0.88507  0.15371  0.83104  1.0000
  H   H693      1.0  0.89773  0.17415  0.78750  1.0000
  H   H694      1.0  0.88420  0.13274  0.78639  1.0000
  H   H695      1.0  0.81397  0.20418  0.82023  1.0000
  H   H696      1.0  0.84570  0.18981  0.85077  1.0000
  H   H697      1.0  0.85584  0.21715  0.81222  1.0000
  H   H698      1.0  0.85767  0.13007  0.72994  1.0000
  H   H699      1.0  0.81863  0.22490  0.75990  1.0000
  H   H700      1.0  0.84845  0.14235  0.66145  1.0000
  H   H701      1.0  0.81015  0.23558  0.69171  1.0000
  H   H702      1.0  0.82484  0.19480  0.64181  1.0000
  H   H703      1.0  0.69296  0.31307  0.56309  1.0000
  H   H704      1.0  0.99540  0.17991  0.60384  1.0000
  S   S160      1.0  0.99998  0.48791  0.88732  1.0000
  H   H705      1.0  0.71112  0.15749  0.75290  1.0000
  H   H706      1.0  0.93452  0.45335  0.86110  1.0000
  H   H707      1.0  0.94021  0.09714  0.63889  1.0000
  C   C591      1.0  0.90925  0.16275  0.50217  1.0000
  C   C592      1.0  0.91774  0.12666  0.59450  1.0000
  H   H708      1.0  0.83508  0.36002  0.50248  1.0000
  Fe  Fe82      1.0  0.78344  0.16519  0.50662  1.0000
  S   S161      1.0  0.01031  0.04399  0.76683  1.0000
  C   C593      1.0  0.92036  0.15456  0.57053  1.0000
  N   N41       1.0  0.70162  0.36090  0.54039  1.0000
  C   C594      1.0  0.89736  0.49002  0.85800  1.0000
  S   S162      1.0  0.77712  0.12936  0.97214  1.0000
  H   H709      1.0  0.84754  0.15045  0.52082  1.0000
  C   C595      1.0  0.97353  0.16521  0.60123  1.0000
  H   H710      1.0  0.71735  0.41037  0.53246  1.0000
  C   C596      1.0  0.94913  0.17349  0.57462  1.0000
  C   C597      1.0  0.70736  0.33516  0.56965  1.0000
  H   H711      1.0  0.89888  0.40989  0.83964  1.0000
  C   C598      1.0  0.70946  0.35084  0.50011  1.0000
  H   H712      1.0  0.95306  0.19478  0.55710  1.0000
  Fe  Fe83      1.0  0.00113  0.48765  0.82182  1.0000
  H   H713      1.0  0.98514  0.48196  0.70426  1.0000
  H   H714      1.0  0.91367  0.50922  0.86718  1.0000
  Fe  Fe84      1.0  0.76000  0.18061  0.96441  1.0000
  C   C599      1.0  0.94236  0.11861  0.62099  1.0000
  S   S163      1.0  0.70523  0.07215  0.95210  1.0000
  H   H715      1.0  0.98912  0.13147  0.64495  1.0000
  H   H716      1.0  0.81946  0.47956  0.82832  1.0000
  C   C600      1.0  0.72228  0.38891  0.55090  1.0000
  H   H717      1.0  0.76132  0.27949  0.97422  1.0000
  C   C601      1.0  0.86606  0.14225  0.54219  1.0000
  H   H718      1.0  0.70282  0.46128  0.59720  1.0000
  H   H719      1.0  0.69172  0.06757  0.80979  1.0000
  H   H720      1.0  0.69993  0.34316  0.59936  1.0000
  H   H721      1.0  0.85342  0.14225  0.57093  1.0000
  C   C602      1.0  0.74035  0.29326  0.98453  1.0000
  H   H722      1.0  0.90246  0.21558  0.54672  1.0000
  C   C603      1.0  0.00167  0.48281  0.67840  1.0000
  H   H723      1.0  0.71778  0.39663  0.58142  1.0000
  H   H724      1.0  0.74882  0.38290  0.54813  1.0000
  H   H725      1.0  0.71506  0.12263  0.81074  1.0000
  H   H726      1.0  0.69844  0.06714  0.65233  1.0000
  C   C604      1.0  0.86500  0.49694  0.84835  1.0000
  C   C605      1.0  0.70321  0.11364  0.78479  1.0000
  H   H727      1.0  0.70674  0.26859  0.94705  1.0000
  H   H728      1.0  0.92956  0.18024  0.49822  1.0000
  C   C606      1.0  0.70951  0.28692  0.96932  1.0000
  Fe  Fe85      1.0  0.96504  0.01356  0.76008  1.0000
  C   C607      1.0  0.70096  0.13329  0.75212  1.0000
  C   C608      1.0  0.68995  0.08268  0.78414  1.0000
  H   H729      1.0  0.92736  0.50682  0.77794  1.0000
  H   H730      1.0  0.99529  0.50483  0.66149  1.0000
  C   C609      1.0  0.68528  0.12217  0.71874  1.0000
  C   C610      1.0  0.81884  0.77886  0.35916  1.0000
  C   C611      1.0  0.90327  0.66165  0.40951  1.0000
  Fe  Fe86      1.0  0.88332  0.75990  0.09368  1.0000
  S   S164      1.0  0.87806  0.80365  0.05560  1.0000
  S   S165      1.0  0.85765  0.76061  0.15242  1.0000
  Fe  Fe87      1.0  0.93933  0.73156  0.04384  1.0000
  C   C612      1.0  0.00194  0.89767  0.17346  1.0000
  N   N42       1.0  0.83463  0.85245  0.44616  1.0000
  Fe  Fe88      1.0  0.93298  0.80544  0.05755  1.0000
  S   S166      1.0  0.95583  0.85539  0.06262  1.0000
  H   H731      1.0  0.92180  0.62607  0.37120  1.0000
  C   C613      1.0  0.98913  0.98875  0.47313  1.0000
  S   S167      1.0  0.93841  0.76323  0.09751  1.0000
  S   S168      1.0  0.88472  0.72431  0.04383  1.0000
  H   H732      1.0  0.70208  0.65374  0.38379  1.0000
  C   C614      1.0  0.94232  0.69342  0.44510  1.0000
  S   S169      1.0  0.99501  0.52744  0.37131  1.0000
  C   C615      1.0  0.69830  0.67323  0.45791  1.0000
  S   S170      1.0  0.95255  0.55421  0.46679  1.0000
  S   S171      1.0  0.70647  0.73288  0.18343  1.0000
  H   H733      1.0  0.01557  0.75488  0.00497  1.0000
  H   H734      1.0  0.81368  0.76015  0.33804  1.0000
  C   C616      1.0  0.97983  0.61142  0.35026  1.0000
  H   H735      1.0  0.84933  0.74829  0.39410  1.0000
  H   H736      1.0  0.72007  0.71357  0.05376  1.0000
  C   C617      1.0  0.82965  0.82691  0.41660  1.0000
  Fe  Fe89      1.0  0.88423  0.76877  0.00617  1.0000
  H   H737      1.0  0.72703  0.79543  0.05410  1.0000
  C   C618      1.0  0.80425  0.80914  0.35564  1.0000
  C   C619      1.0  0.80968  0.83293  0.38370  1.0000
  C   C620      1.0  0.97308  0.87111  0.10588  1.0000
  C   C621      1.0  0.98273  0.85092  0.13629  1.0000
  H   H738      1.0  0.00136  0.59896  0.33678  1.0000
  C   C622      1.0  0.69548  0.70412  0.05313  1.0000
  C   C623      1.0  0.99197  0.91792  0.14320  1.0000
  C   C624      1.0  0.97792  0.90462  0.10944  1.0000
  H   H739      1.0  0.97945  0.82508  0.13385  1.0000
  S   S172      1.0  0.00450  0.96979  0.30211  1.0000
  H   H740      1.0  0.85652  0.89980  0.44946  1.0000
  H   H741      1.0  0.97068  0.92044  0.08600  1.0000
  C   C625      1.0  0.78021  0.74361  0.44963  1.0000
  C   C626      1.0  0.76767  0.72902  0.41601  1.0000
  C   C627      1.0  0.74648  0.74608  0.39127  1.0000
  C   C628      1.0  0.73760  0.77791  0.40002  1.0000
  C   C629      1.0  0.74933  0.79215  0.43428  1.0000
  C   C630      1.0  0.77052  0.77504  0.45910  1.0000
  H   H742      1.0  0.77515  0.70471  0.40849  1.0000
  H   H743      1.0  0.73805  0.73505  0.36472  1.0000
  H   H744      1.0  0.74220  0.81664  0.44132  1.0000
  C   C631      1.0  0.99739  0.86413  0.16967  1.0000
  C   C632      1.0  0.74818  0.74218  0.17483  1.0000
  C   C633      1.0  0.76866  0.75233  0.20485  1.0000
  C   C634      1.0  0.80210  0.75803  0.19742  1.0000
  C   C635      1.0  0.81527  0.75401  0.15990  1.0000
  C   C636      1.0  0.79462  0.74469  0.12966  1.0000
  C   C637      1.0  0.76124  0.73866  0.13720  1.0000
  H   H745      1.0  0.75890  0.75505  0.23395  1.0000
  H   H746      1.0  0.81794  0.76510  0.22100  1.0000
  H   H747      1.0  0.80451  0.74150  0.10069  1.0000
  H   H748      1.0  0.74562  0.73089  0.11385  1.0000
  N   N43       1.0  0.87929  0.85693  0.19082  1.0000
  C   C638      1.0  0.90284  0.83209  0.20455  1.0000
  C   C639      1.0  0.84572  0.84492  0.19926  1.0000
  C   C640      1.0  0.88260  0.85982  0.14802  1.0000
  C   C641      1.0  0.88662  0.88837  0.20946  1.0000
  C   C642      1.0  0.91776  0.90283  0.20426  1.0000
  C   C643      1.0  0.86373  0.90531  0.23333  1.0000
  C   C644      1.0  0.92586  0.93204  0.22213  1.0000
  C   C645      1.0  0.87198  0.93473  0.25089  1.0000
  C   C646      1.0  0.90301  0.94800  0.24542  1.0000
  H   H749      1.0  0.89731  0.80779  0.19227  1.0000
  H   H750      1.0  0.92849  0.83753  0.19577  1.0000
  H   H751      1.0  0.90225  0.83001  0.23676  1.0000
  H   H752      1.0  0.84194  0.84062  0.23086  1.0000
  H   H753      1.0  0.84097  0.82139  0.18464  1.0000
  H   H754      1.0  0.82666  0.86188  0.18845  1.0000
  H   H755      1.0  0.90802  0.86565  0.13869  1.0000
  H   H756      1.0  0.87630  0.83673  0.13318  1.0000
  H   H757      1.0  0.86627  0.87906  0.13645  1.0000
  H   H758      1.0  0.93620  0.89145  0.18641  1.0000
  H   H759      1.0  0.83934  0.89640  0.23894  1.0000
  H   H760      1.0  0.95013  0.94223  0.21801  1.0000
  H   H761      1.0  0.85427  0.94738  0.26894  1.0000
  H   H762      1.0  0.96635  0.62365  0.32641  1.0000
  H   H763      1.0  0.96417  0.59193  0.36259  1.0000
  S   S173      1.0  0.71389  0.80132  0.36761  1.0000
  Fe  Fe90      1.0  0.99542  0.52837  0.43674  1.0000
  N   N44       1.0  0.99002  0.63474  0.38071  1.0000
  H   H764      1.0  0.71775  0.65450  0.45454  1.0000
  H   H765      1.0  0.89003  0.69827  0.45118  1.0000
  S   S174      1.0  0.93884  0.77453  0.00424  1.0000
  H   H766      1.0  0.72611  0.74859  0.00217  1.0000
  H   H767      1.0  0.99267  0.68273  0.43600  1.0000
  C   C647      1.0  0.84438  0.79580  0.41912  1.0000
  H   H768      1.0  0.83618  0.89168  0.40473  1.0000
  C   C648      1.0  0.96809  0.67672  0.42712  1.0000
  H   H769      1.0  0.90943  0.97071  0.25924  1.0000
  H   H770      1.0  0.99969  0.67364  0.34095  1.0000
  H   H771      1.0  0.78639  0.87403  0.43971  1.0000
  S   S175      1.0  0.80868  0.72196  0.47807  1.0000
  C   C649      1.0  0.83895  0.77226  0.39072  1.0000
  C   C650      1.0  0.92886  0.64489  0.39115  1.0000
  C   C651      1.0  0.90997  0.68590  0.43635  1.0000
  C   C652      1.0  0.85126  0.88043  0.42789  1.0000
  C   C653      1.0  0.01280  0.65806  0.36215  1.0000
  H   H772      1.0  0.79733  0.85580  0.37983  1.0000
  H   H773      1.0  0.70973  0.69716  0.45178  1.0000
  H   H774      1.0  0.85945  0.78858  0.44326  1.0000
  H   H775      1.0  0.87802  0.65541  0.40347  1.0000
  H   H776      1.0  0.78751  0.81373  0.33188  1.0000
  H   H777      1.0  0.87502  0.87299  0.41449  1.0000
  C   C654      1.0  0.96222  0.65210  0.39926  1.0000
  S   S176      1.0  0.97891  0.69339  0.03276  1.0000
  C   C655      1.0  0.80259  0.86333  0.46213  1.0000
  H   H778      1.0  0.94745  0.71149  0.46709  1.0000
  C   C656      1.0  0.00820  0.61638  0.41059  1.0000
  H   H779      1.0  0.99533  0.94374  0.14568  1.0000
  H   H780      1.0  0.99249  0.59738  0.42364  1.0000
  H   H781      1.0  0.69249  0.69594  0.38672  1.0000
  H   H782      1.0  0.69843  0.69142  0.11385  1.0000
  C   C657      1.0  0.85491  0.84184  0.47955  1.0000
  H   H783      1.0  0.81536  0.80159  0.99971  1.0000
  S   S177      1.0  0.68923  0.72587  0.30120  1.0000
  H   H784      1.0  0.69439  0.77681  0.10934  1.0000
  C   C658      1.0  0.95257  0.59241  0.49040  1.0000
  H   H785      1.0  0.80560  0.88209  0.48504  1.0000
  H   H786      1.0  0.96608  0.99134  0.45789  1.0000
  H   H787      1.0  0.77962  0.78613  0.48531  1.0000
  H   H788      1.0  0.00506  0.84829  0.19291  1.0000
  C   C659      1.0  0.70170  0.80311  0.05695  1.0000
  H   H789      1.0  0.69100  0.67386  0.48900  1.0000
  H   H790      1.0  0.78910  0.84283  0.47551  1.0000
  H   H791      1.0  0.88012  0.83479  0.47038  1.0000
  H   H792      1.0  0.70289  0.83238  0.00527  1.0000
  H   H793      1.0  0.01707  0.63194  0.43459  1.0000
  C   C660      1.0  0.68825  0.82386  0.02946  1.0000
  H   H794      1.0  0.90019  0.59783  0.48606  1.0000
  H   H795      1.0  0.84345  0.82117  0.49522  1.0000
  C   C661      1.0  0.92265  0.60864  0.49631  1.0000
  C   C662      1.0  0.97550  0.66159  0.99798  1.0000
  H   H796      1.0  0.01821  0.99220  0.42083  1.0000
  C   C663      1.0  0.91798  0.55466  0.58813  1.0000
  Fe  Fe91      1.0  0.00035  0.96315  0.70917  1.0000
  Fe  Fe92      1.0  0.84819  0.73982  0.61676  1.0000
  S   S178      1.0  0.82767  0.77721  0.57642  1.0000
  S   S179      1.0  0.83239  0.73124  0.67910  1.0000
  Fe  Fe93      1.0  0.90457  0.72227  0.56102  1.0000
  H   H797      1.0  0.86225  0.57026  0.67757  1.0000
  S   S180      1.0  0.95011  0.69103  0.55278  1.0000
  Fe  Fe94      1.0  0.88039  0.79255  0.56920  1.0000
  S   S181      1.0  0.88940  0.84681  0.57343  1.0000
  C   C664      1.0  0.91307  0.83195  0.91213  1.0000
  S   S182      1.0  0.86075  0.77000  0.94695  1.0000
  S   S183      1.0  0.90027  0.75671  0.61155  1.0000
  S   S184      1.0  0.85431  0.70218  0.57019  1.0000
  H   H798      1.0  0.86306  0.86857  0.87017  1.0000
  H   H799      1.0  0.69963  0.66853  0.96049  1.0000
  S   S185      1.0  0.99083  0.96673  0.77340  1.0000
  H   H800      1.0  0.91625  0.81122  0.93237  1.0000
  S   S186      1.0  0.96646  0.57593  0.91212  1.0000
  S   S187      1.0  0.00075  0.54148  0.81669  1.0000
  C   C665      1.0  0.87820  0.56686  0.65274  1.0000
  H   H801      1.0  0.99012  0.97058  0.62734  1.0000
  H   H802      1.0  0.95295  0.86858  0.95398  1.0000
  C   C666      1.0  0.97125  0.60932  0.94444  1.0000
  H   H803      1.0  0.75800  0.81951  0.99084  1.0000
  H   H804      1.0  0.96585  0.98470  0.52788  1.0000
  H   H805      1.0  0.00453  0.59412  0.50032  1.0000
  H   H806      1.0  0.92534  0.62033  0.69496  1.0000
  C   C667      1.0  0.72303  0.72778  0.98209  1.0000
  H   H807      1.0  0.97402  0.95406  0.58381  1.0000
  C   C668      1.0  0.91867  0.86470  0.60484  1.0000
  C   C669      1.0  0.91522  0.89737  0.61550  1.0000
  C   C670      1.0  0.93879  0.91272  0.63896  1.0000
  C   C671      1.0  0.96651  0.89568  0.65129  1.0000
  C   C672      1.0  0.96974  0.86295  0.64091  1.0000
  C   C673      1.0  0.94586  0.84744  0.61816  1.0000
  H   H808      1.0  0.89419  0.91093  0.60552  1.0000
  H   H809      1.0  0.93568  0.93778  0.64712  1.0000
  H   H810      1.0  0.89416  0.82414  0.89100  1.0000
  H   H811      1.0  0.94904  0.82239  0.60997  1.0000
  C   C674      1.0  0.81923  0.78051  0.94273  1.0000
  C   C675      1.0  0.80282  0.77411  0.90787  1.0000
  C   C676      1.0  0.76999  0.78351  0.90312  1.0000
  C   C677      1.0  0.75377  0.80004  0.93295  1.0000
  H   H812      1.0  0.86051  0.91309  0.82367  1.0000
  C   C678      1.0  0.77026  0.80652  0.96776  1.0000
  H   H813      1.0  0.81553  0.76176  0.88450  1.0000
  H   H814      1.0  0.75745  0.77843  0.87619  1.0000
  H   H815      1.0  0.86177  0.87961  0.96524  1.0000
  C   C679      1.0  0.80281  0.79646  0.97284  1.0000
  C   C680      1.0  0.72722  0.75193  0.72094  1.0000
  C   C681      1.0  0.75212  0.74556  0.74765  1.0000
  C   C682      1.0  0.78426  0.73932  0.73446  1.0000
  C   C683      1.0  0.79188  0.73994  0.69460  1.0000
  C   C684      1.0  0.76717  0.74709  0.66799  1.0000
  C   C685      1.0  0.73494  0.75277  0.68112  1.0000
  H   H816      1.0  0.74644  0.74467  0.77836  1.0000
  H   H817      1.0  0.80319  0.73363  0.75525  1.0000
  H   H818      1.0  0.77267  0.74750  0.63723  1.0000
  H   H819      1.0  0.71581  0.75756  0.66028  1.0000
  N   N45       1.0  0.86456  0.82795  0.70873  1.0000
  H   H820      1.0  0.92454  0.66952  0.98545  1.0000
  C   C686      1.0  0.84399  0.81392  0.74012  1.0000
  C   C687      1.0  0.84510  0.82892  0.67247  1.0000
  C   C688      1.0  0.87474  0.86110  0.71956  1.0000
  C   C689      1.0  0.85082  0.88537  0.72693  1.0000
  C   C690      1.0  0.90815  0.87039  0.72316  1.0000
  C   C691      1.0  0.85976  0.91689  0.73702  1.0000
  C   C692      1.0  0.91677  0.90190  0.73369  1.0000
  C   C693      1.0  0.89269  0.92514  0.74041  1.0000
  C   C694      1.0  0.92150  0.63891  0.51506  1.0000
  C   C695      1.0  0.89252  0.80555  0.70198  1.0000
  H   H821      1.0  0.83824  0.80419  0.66259  1.0000
  H   H822      1.0  0.85718  0.81392  0.76832  1.0000
  H   H823      1.0  0.82053  0.82719  0.74427  1.0000
  H   H824      1.0  0.85920  0.84055  0.64854  1.0000
  S   S188      1.0  0.97183  0.00796  0.69545  1.0000
  H   H825      1.0  0.82177  0.84247  0.67595  1.0000
  H   H826      1.0  0.82498  0.88016  0.72459  1.0000
  H   H827      1.0  0.92824  0.85402  0.71742  1.0000
  H   H828      1.0  0.84112  0.93516  0.74204  1.0000
  H   H829      1.0  0.94243  0.90853  0.73585  1.0000
  H   H830      1.0  0.89964  0.94967  0.74797  1.0000
  H   H831      1.0  0.90170  0.65233  0.59745  1.0000
  H   H832      1.0  0.73137  0.73651  0.95306  1.0000
  C   C696      1.0  0.95035  0.65316  0.52849  1.0000
  H   H833      1.0  0.00265  0.64748  0.53351  1.0000
  H   H834      1.0  0.90453  0.67612  0.64039  1.0000
  H   H835      1.0  0.83709  0.78845  0.73357  1.0000
  C   C697      1.0  0.92341  0.91633  0.90754  1.0000
  H   H836      1.0  0.93557  0.64672  0.63020  1.0000
  C   C698      1.0  0.87811  0.91388  0.84708  1.0000
  H   H837      1.0  0.74012  0.70802  0.99052  1.0000
  H   H838      1.0  0.89785  0.95992  0.82946  1.0000
  C   C699      1.0  0.87967  0.88860  0.87399  1.0000
  C   C700      1.0  0.91469  0.58623  0.60219  1.0000
  C   C701      1.0  0.92735  0.86675  0.96504  1.0000
  Fe  Fe95      1.0  0.00352  0.54241  0.88211  1.0000
  H   H839      1.0  0.85205  0.84897  0.93005  1.0000
  H   H840      1.0  0.90786  0.80287  0.72839  1.0000
  S   S189      1.0  0.71294  0.81282  0.92784  1.0000
  H   H841      1.0  0.99108  0.84954  0.65024  1.0000
  H   H842      1.0  0.90820  0.81381  0.67735  1.0000
  H   H843      1.0  0.92817  0.60456  0.58666  1.0000
  Fe  Fe96      1.0  0.83826  0.74120  0.52875  1.0000
  H   H844      1.0  0.86916  0.51552  0.65276  1.0000
  H   H845      1.0  0.93308  0.54992  0.56263  1.0000
  C   C702      1.0  0.98024  0.63679  0.52297  1.0000
  N   N46       1.0  0.90352  0.86188  0.93309  1.0000
  S   S190      1.0  0.88920  0.75985  0.51758  1.0000
  C   C703      1.0  0.94596  0.65494  0.97922  1.0000
  C   C704      1.0  0.87081  0.85702  0.95123  1.0000
  H   H846      1.0  0.85789  0.86144  0.50143  1.0000
  S   S191      1.0  0.99834  0.91417  0.67838  1.0000
  C   C705      1.0  0.90872  0.65137  0.62859  1.0000
  C   C706      1.0  0.94385  0.62886  0.95292  1.0000
  H   H847      1.0  0.88400  0.78080  0.69428  1.0000
  C   C707      1.0  0.92170  0.94140  0.88034  1.0000
  N   N47       1.0  0.88954  0.62659  0.64998  1.0000
  C   C708      1.0  0.85442  0.63562  0.64701  1.0000
  C   C709      1.0  0.89942  0.62819  0.69135  1.0000
  C   C710      1.0  0.89442  0.59336  0.63490  1.0000
  H   H848      1.0  0.83837  0.61997  0.66509  1.0000
  H   H849      1.0  0.84986  0.66093  0.65687  1.0000
  H   H850      1.0  0.84579  0.63373  0.61644  1.0000
  H   H851      1.0  0.88400  0.61266  0.71032  1.0000
  H   H852      1.0  0.89709  0.65319  0.70315  1.0000
  N   N48       1.0  0.68850  0.71647  0.98111  1.0000
  C   C711      1.0  0.00101  0.61633  0.96265  1.0000
  H   H853      1.0  0.93657  0.83518  0.89609  1.0000
  H   H854      1.0  0.97348  0.99748  0.59223  1.0000
  C   C712      1.0  0.90224  0.88912  0.90524  1.0000
  H   H855      1.0  0.92069  0.62369  0.93915  1.0000
  C   C713      1.0  0.89907  0.94024  0.85027  1.0000
  H   H856      1.0  0.93804  0.96198  0.88250  1.0000
  H   H857      1.0  0.87331  0.51160  0.74526  1.0000
  H   H858      1.0  0.69731  0.69863  0.92291  1.0000
  H   H859      1.0  0.94157  0.91890  0.93001  1.0000
  C   C714      1.0  0.98942  0.98487  0.51353  1.0000
  C   C715      1.0  0.90167  0.52928  0.60636  1.0000
  H   H860      1.0  0.89830  0.65119  0.51898  1.0000
  H   H861      1.0  0.87141  0.83777  0.97382  1.0000
  H   H862      1.0  0.92724  0.84613  0.98580  1.0000
  S   S192      1.0  0.68603  0.75788  0.73579  1.0000
  C   C716      1.0  0.98805  0.97489  0.59556  1.0000
  C   C717      1.0  0.00302  0.64217  0.98943  1.0000
  C   C718      1.0  0.98139  0.60659  0.50402  1.0000
  H   H863      1.0  0.85626  0.52166  0.85014  1.0000
  C   C719      1.0  0.88194  0.53535  0.63869  1.0000
  H   H864      1.0  0.92144  0.88865  0.98254  1.0000
  C   C720      1.0  0.68652  0.69079  0.95111  1.0000
