data_image0
_chemical_formula_structural       CSHCHCSHC6H2C3FeC3H6CHCH3SNHCFeS2FeS2C2FeHSFe2SH2FeS2FeHSHC8H4C6H4SNH2NC4HCHFeCH3CH5FeSH3CH2CHCH2C2SH6CHC2H4CHC2H2CHC3H2NHSNCH2FeSCH2S2HSH2C2HSH2CHCH2C2H2NH2C5HCHC2H2SCHCHCH2FeC2HSHC2HSH2CH6C2HFeHSFeS2HCFeS2FeS2H2Fe2SCHC2H2C7H5C2H2C3H3CHSH2SCHCH6CSC3NSCH3C2HC3HCNCHNH5SH2SC2H2FeHCHCH2CSHSHC3FeSH3CH2FeSHNC5HCHCH4C3H2C3H4C2HFeC2SH2CHCHC7HCHCHSH2SFeH4CHCHCHNHC2SC2FeHC4H8CS3H6CHC2H3C3HCHSH3NHCHCH2NH3C5H3CHCH2CHCFeS2HCHFeHFeS4C6H4SHCFeC2HCH3C2SCHNCHCHSCH5SH2CH3C2H2C3H4FeCHC3SCHCH3C3HCH2CFeHSFeH3FeS2FeS2FeHFeS2HC6HCH3C5H3CH2CH3NSH3C7HC2H3NCH4CSCH2CNHC2HSHC2HCNCH2CHCSH2CH5CHC3FeCH5CHC2NCH2SH2C3HSCHCHSHFeSH3SFeS2FeS2FeSFeS3HC4H2C8H4C6H2CHC2HC2H2C2H2C4H2NC3H2C2H4C2H3NCHCH3C2H4CH10C3HC2HC2HCH2CHCH2CHCH2NHCHSCFeNHFeSCHFeS2FeHSFeCH2S2C2H2C2H4CHC4H4C6H4CNC4FeC4HCH3CH2C2HSH2C2H4CH2CSCSCH3CSHCHCFeHCH4CH2
_chemical_formula_sum              "C360 S96 H432 Fe48 N24"
_cell_length_a       29.6392
_cell_length_b       28.8914
_cell_length_c       40.1466
_cell_angle_alpha    90.4629
_cell_angle_beta     91.1312
_cell_angle_gamma    93.0144

_space_group_name_H-M_alt    "P 1"
_space_group_IT_number       1

loop_
  _space_group_symop_operation_xyz
  'x, y, z'

loop_
  _atom_site_type_symbol
  _atom_site_label
  _atom_site_symmetry_multiplicity
  _atom_site_fract_x
  _atom_site_fract_y
  _atom_site_fract_z
  _atom_site_occupancy
  C   C1        1.0  0.36391  0.07952  0.29486  1.0000
  S   S1        1.0  0.42734  0.09541  0.20661  1.0000
  H   H1        1.0  0.26256  0.51518  0.30075  1.0000
  C   C2        1.0  0.52179  0.36692  0.30223  1.0000
  H   H2        1.0  0.38857  0.32573  0.33856  1.0000
  C   C3        1.0  0.31281  0.46586  0.34237  1.0000
  S   S2        1.0  0.42343  0.46392  0.27176  1.0000
  H   H3        1.0  0.48718  0.30818  0.32515  1.0000
  C   C4        1.0  0.40201  0.36130  0.33881  1.0000
  C   C5        1.0  0.40585  0.38604  0.30887  1.0000
  C   C6        1.0  0.42255  0.43240  0.30912  1.0000
  C   C7        1.0  0.43617  0.45356  0.33934  1.0000
  C   C8        1.0  0.35825  0.53751  0.34689  1.0000
  C   C9        1.0  0.53629  0.08367  0.35100  1.0000
  H   H4        1.0  0.39525  0.36940  0.28554  1.0000
  H   H5        1.0  0.44965  0.48883  0.33995  1.0000
  C   C10       1.0  0.50941  0.33885  0.32914  1.0000
  C   C11       1.0  0.38480  0.11507  0.31462  1.0000
  C   C12       1.0  0.37612  0.07371  0.26152  1.0000
  Fe  Fe1       1.0  0.44664  0.53973  0.27391  1.0000
  C   C13       1.0  0.40948  0.10335  0.24779  1.0000
  C   C14       1.0  0.43011  0.13916  0.26748  1.0000
  C   C15       1.0  0.41779  0.14509  0.30084  1.0000
  H   H6        1.0  0.33819  0.05635  0.30535  1.0000
  H   H7        1.0  0.50504  0.42440  0.24758  1.0000
  H   H8        1.0  0.43413  0.17252  0.31593  1.0000
  H   H9        1.0  0.45593  0.16218  0.25695  1.0000
  H   H10       1.0  0.27807  0.44931  0.34075  1.0000
  H   H11       1.0  0.32004  0.51585  0.28774  1.0000
  C   C16       1.0  0.49193  0.07187  0.34099  1.0000
  H   H12       1.0  0.51508  0.48781  0.29069  1.0000
  C   C17       1.0  0.29730  0.52962  0.30688  1.0000
  H   H13       1.0  0.50806  0.35605  0.27815  1.0000
  H   H14       1.0  0.38100  0.52826  0.32645  1.0000
  H   H15       1.0  0.33223  0.45190  0.32138  1.0000
  S   S3        1.0  0.37013  0.11930  0.35677  1.0000
  N   N1        1.0  0.31177  0.51717  0.34118  1.0000
  H   H16       1.0  0.46434  0.08806  0.35315  1.0000
  C   C18       1.0  0.52408  0.35089  0.36136  1.0000
  Fe  Fe2       1.0  0.47690  0.20885  0.43799  1.0000
  S   S4        1.0  0.43470  0.26039  0.46276  1.0000
  S   S5        1.0  0.35305  0.22702  0.41049  1.0000
  Fe  Fe3       1.0  0.37875  0.20561  0.46052  1.0000
  S   S6        1.0  0.33492  0.19297  0.50527  1.0000
  S   S7        1.0  0.42308  0.15155  0.44080  1.0000
  C   C19       1.0  0.46383  0.40281  0.64530  1.0000
  C   C20       1.0  0.47543  0.22625  0.62041  1.0000
  Fe  Fe4       1.0  0.08086  0.13297  0.50942  1.0000
  H   H17       1.0  0.45587  0.25503  0.61032  1.0000
  S   S8        1.0  0.12640  0.16377  0.47041  1.0000
  Fe  Fe5       1.0  0.40075  0.17630  0.39038  1.0000
  Fe  Fe6       1.0  0.05967  0.13170  0.58217  1.0000
  S   S9        1.0  0.07751  0.16542  0.63172  1.0000
  H   H18       1.0  0.45120  0.20066  0.63197  1.0000
  H   H19       1.0  0.16463  0.45255  0.53285  1.0000
  Fe  Fe7       1.0  0.20041  0.39722  0.63236  1.0000
  S   S10       1.0  0.13794  0.42753  0.61130  1.0000
  S   S11       1.0  0.22283  0.33004  0.61129  1.0000
  Fe  Fe8       1.0  0.18110  0.49353  0.60695  1.0000
  H   H20       1.0  0.24466  0.09959  0.46599  1.0000
  S   S12       1.0  0.24452  0.46116  0.62429  1.0000
  H   H21       1.0  0.51327  0.32966  0.38222  1.0000
  C   C21       1.0  0.49304  0.37522  0.59219  1.0000
  C   C22       1.0  0.12066  0.20894  0.62794  1.0000
  C   C23       1.0  0.12313  0.24681  0.65007  1.0000
  C   C24       1.0  0.15436  0.28424  0.64503  1.0000
  C   C25       1.0  0.18451  0.28291  0.61869  1.0000
  C   C26       1.0  0.18328  0.24413  0.59744  1.0000
  C   C27       1.0  0.15079  0.20767  0.60163  1.0000
  C   C28       1.0  0.46861  0.18103  0.56993  1.0000
  H   H22       1.0  0.39124  0.46104  0.69294  1.0000
  H   H23       1.0  0.20692  0.24236  0.57740  1.0000
  H   H24       1.0  0.14915  0.17842  0.58460  1.0000
  H   H25       1.0  0.07582  0.26110  0.58239  1.0000
  C   C29       1.0  0.27645  0.18702  0.49658  1.0000
  C   C30       1.0  0.24706  0.16808  0.52041  1.0000
  C   C31       1.0  0.20052  0.16176  0.51309  1.0000
  C   C32       1.0  0.18333  0.17468  0.48201  1.0000
  C   C33       1.0  0.21244  0.19521  0.45881  1.0000
  C   C34       1.0  0.25875  0.20120  0.46604  1.0000
  H   H26       1.0  0.26029  0.15753  0.54434  1.0000
  H   H27       1.0  0.17820  0.14626  0.53128  1.0000
  H   H28       1.0  0.19918  0.20583  0.43490  1.0000
  H   H29       1.0  0.28042  0.21711  0.44794  1.0000
  S   S13       1.0  0.45840  0.23002  0.38578  1.0000
  N   N2        1.0  0.42742  0.40685  0.66970  1.0000
  H   H30       1.0  0.53716  0.07412  0.52674  1.0000
  H   H31       1.0  0.07230  0.30024  0.54878  1.0000
  N   N3        1.0  0.26327  0.33738  0.50657  1.0000
  C   C35       1.0  0.23256  0.29878  0.51797  1.0000
  C   C36       1.0  0.28995  0.31942  0.47873  1.0000
  C   C37       1.0  0.29559  0.35087  0.53410  1.0000
  C   C38       1.0  0.23648  0.37744  0.49745  1.0000
  H   H32       1.0  0.25461  0.10151  0.37354  1.0000
  C   C39       1.0  0.20981  0.39872  0.52167  1.0000
  H   H33       1.0  0.44972  0.47512  0.68851  1.0000
  Fe  Fe9       1.0  0.22546  0.48176  0.67566  1.0000
  C   C40       1.0  0.52888  0.25132  0.54374  1.0000
  H   H34       1.0  0.21026  0.44868  0.43238  1.0000
  H   H35       1.0  0.21252  0.30861  0.53976  1.0000
  H   H36       1.0  0.20822  0.28665  0.49787  1.0000
  C   C41       1.0  0.23587  0.39647  0.46486  1.0000
  H   H37       1.0  0.31492  0.34621  0.46941  1.0000
  H   H38       1.0  0.44562  0.20584  0.55828  1.0000
  H   H39       1.0  0.27823  0.36060  0.55721  1.0000
  H   H40       1.0  0.31702  0.32176  0.54106  1.0000
  H   H41       1.0  0.31822  0.38098  0.52697  1.0000
  Fe  Fe10      1.0  0.12760  0.44947  0.66467  1.0000
  S   S14       1.0  0.04348  0.18102  0.54147  1.0000
  H   H42       1.0  0.20856  0.38633  0.54703  1.0000
  H   H43       1.0  0.48768  0.35670  0.56871  1.0000
  H   H44       1.0  0.16555  0.48478  0.47615  1.0000
  C   C42       1.0  0.50769  0.42294  0.65249  1.0000
  H   H45       1.0  0.30980  0.28952  0.48665  1.0000
  H   H46       1.0  0.23423  0.13198  0.40884  1.0000
  C   C43       1.0  0.42007  0.45655  0.67613  1.0000
  H   H47       1.0  0.29342  0.13088  0.40240  1.0000
  C   C44       1.0  0.17864  0.05842  0.42655  1.0000
  H   H48       1.0  0.15536  0.31389  0.66169  1.0000
  H   H49       1.0  0.48625  0.16279  0.54981  1.0000
  C   C45       1.0  0.38331  0.38443  0.65857  1.0000
  C   C46       1.0  0.07082  0.29797  0.57633  1.0000
  S   S15       1.0  0.18741  0.41433  0.68595  1.0000
  H   H50       1.0  0.51078  0.12468  0.48125  1.0000
  H   H51       1.0  0.44660  0.15415  0.58228  1.0000
  H   H52       1.0  0.49769  0.24065  0.64108  1.0000
  H   H53       1.0  0.44112  0.44631  0.39260  1.0000
  H   H54       1.0  0.38554  0.34642  0.65484  1.0000
  H   H55       1.0  0.37394  0.52561  0.37046  1.0000
  C   C47       1.0  0.18489  0.45485  0.48184  1.0000
  H   H56       1.0  0.25484  0.38258  0.44474  1.0000
  C   C48       1.0  0.18440  0.43668  0.51383  1.0000
  C   C49       1.0  0.53550  0.39595  0.59995  1.0000
  H   H57       1.0  0.41259  0.47504  0.65260  1.0000
  H   H58       1.0  0.30393  0.10002  0.45942  1.0000
  H   H59       1.0  0.50753  0.13921  0.61910  1.0000
  H   H60       1.0  0.26771  0.30653  0.45761  1.0000
  C   C50       1.0  0.21034  0.43463  0.45735  1.0000
  H   H61       1.0  0.05605  0.32034  0.63954  1.0000
  C   C51       1.0  0.53167  0.24030  0.57817  1.0000
  C   C52       1.0  0.41437  0.38321  0.36906  1.0000
  H   H62       1.0  0.33451  0.06323  0.41153  1.0000
  H   H63       1.0  0.50474  0.23405  0.52667  1.0000
  C   C53       1.0  0.43139  0.42932  0.36923  1.0000
  H   H64       1.0  0.37050  0.40016  0.63522  1.0000
  C   C54       1.0  0.26107  0.10948  0.40046  1.0000
  C   C55       1.0  0.28206  0.53401  0.36743  1.0000
  C   C56       1.0  0.26357  0.53958  0.42675  1.0000
  H   H65       1.0  0.25165  0.26855  0.52607  1.0000
  H   H66       1.0  0.42542  0.36198  0.60680  1.0000
  N   N4        1.0  0.50147  0.20458  0.59380  1.0000
  H   H67       1.0  0.31875  0.50309  0.40860  1.0000
  S   S16       1.0  0.10182  0.08630  0.55082  1.0000
  N   N5        1.0  0.26300  0.06633  0.42015  1.0000
  C   C57       1.0  0.52890  0.16840  0.60892  1.0000
  H   H68       1.0  0.10000  0.24777  0.67055  1.0000
  H   H69       1.0  0.09745  0.53404  0.55871  1.0000
  Fe  Fe11      1.0  0.41230  0.27828  0.41105  1.0000
  S   S17       1.0  0.19616  0.53970  0.56269  1.0000
  C   C58       1.0  0.45749  0.37853  0.61442  1.0000
  H   H70       1.0  0.17839  0.09342  0.43624  1.0000
  H   H71       1.0  0.51534  0.44126  0.67573  1.0000
  S   S18       1.0  0.40628  0.35548  0.40736  1.0000
  S   S19       1.0  0.16482  0.51864  0.65809  1.0000
  H   H72       1.0  0.10030  0.31891  0.58711  1.0000
  S   S20       1.0  0.05911  0.44671  0.68912  1.0000
  H   H73       1.0  0.27098  0.53154  0.45258  1.0000
  H   H74       1.0  0.35664  0.38884  0.67742  1.0000
  C   C59       1.0  0.27165  0.07883  0.45570  1.0000
  C   C60       1.0  0.29059  0.52339  0.40140  1.0000
  H   H75       1.0  0.32952  0.45352  0.36544  1.0000
  S   S21       1.0  0.42866  0.42108  0.78490  1.0000
  H   H76       1.0  0.11537  0.45099  0.82678  1.0000
  H   H77       1.0  0.07897  0.18449  0.91219  1.0000
  C   C61       1.0  0.15136  0.51050  0.74479  1.0000
  H   H78       1.0  0.08460  0.54829  0.77655  1.0000
  C   C62       1.0  0.08080  0.37851  0.77594  1.0000
  H   H79       1.0  0.41759  0.51775  0.77046  1.0000
  H   H80       1.0  0.28277  0.42624  0.72586  1.0000
  C   C63       1.0  0.08552  0.39510  0.74331  1.0000
  C   C64       1.0  0.15077  0.44956  0.82113  1.0000
  H   H81       1.0  0.15593  0.39100  0.85352  1.0000
  H   H82       1.0  0.05427  0.25649  0.91226  1.0000
  N   N6        1.0  0.14960  0.51791  0.78130  1.0000
  H   H83       1.0  0.11507  0.38749  0.72944  1.0000
  H   H84       1.0  0.09889  0.22728  0.86551  1.0000
  C   C65       1.0  0.05048  0.16291  0.90300  1.0000
  C   C66       1.0  0.38459  0.44977  0.76548  1.0000
  C   C67       1.0  0.34616  0.42413  0.75324  1.0000
  C   C68       1.0  0.31213  0.44619  0.73553  1.0000
  C   C69       1.0  0.31585  0.49418  0.73102  1.0000
  H   H85       1.0  0.13197  0.53620  0.73073  1.0000
  C   C70       1.0  0.38825  0.49768  0.76086  1.0000
  H   H86       1.0  0.34307  0.38706  0.75701  1.0000
  C   C71       1.0  0.21942  0.47441  0.79316  1.0000
  C   C72       1.0  0.10129  0.52016  0.79010  1.0000
  H   H87       1.0  0.08174  0.48744  0.78317  1.0000
  H   H88       1.0  0.10713  0.35867  0.78696  1.0000
  S   S22       1.0  0.51609  0.50941  0.74560  1.0000
  C   C73       1.0  0.24232  0.43962  0.80926  1.0000
  H   H89       1.0  0.18639  0.51335  0.73551  1.0000
  C   C74       1.0  0.17388  0.41457  0.83685  1.0000
  H   H90       1.0  0.52988  0.29771  0.72316  1.0000
  C   C75       1.0  0.21957  0.40967  0.83100  1.0000
  H   H91       1.0  0.25403  0.07497  0.02267  1.0000
  H   H92       1.0  0.27794  0.43585  0.80475  1.0000
  Fe  Fe12      1.0  0.49486  0.46325  0.78767  1.0000
  C   C76       1.0  0.06951  0.23175  0.84844  1.0000
  C   C77       1.0  0.35364  0.51989  0.74406  1.0000
  H   H93       1.0  0.13703  0.47551  0.73757  1.0000
  S   S23       1.0  0.27356  0.52322  0.70985  1.0000
  H   H94       1.0  0.07080  0.20548  0.82807  1.0000
  C   C78       1.0  0.05230  0.42172  0.72897  1.0000
  C   C79       1.0  0.17292  0.48058  0.79863  1.0000
  H   H95       1.0  0.23740  0.38257  0.84328  1.0000
  S   S24       1.0  0.51921  0.51313  0.82801  1.0000
  H   H96       1.0  0.06927  0.10652  0.93423  1.0000
  H   H97       1.0  0.41270  0.38112  0.71897  1.0000
  C   C80       1.0  0.04540  0.11808  0.91568  1.0000
  H   H98       1.0  0.23849  0.49645  0.77626  1.0000
  H   H99       1.0  0.45328  0.34955  0.69696  1.0000
  H   H100      1.0  0.09736  0.52685  0.81721  1.0000
  H   H101      1.0  0.46835  0.40550  0.71500  1.0000
  H   H102      1.0  0.07478  0.26675  0.83710  1.0000
  H   H103      1.0  0.33329  0.07879  0.01016  1.0000
  C   C81       1.0  0.44107  0.38482  0.70135  1.0000
  C   C82       1.0  0.04274  0.38809  0.79451  1.0000
  H   H104      1.0  0.49981  0.03697  0.23519  1.0000
  Fe  Fe13      1.0  0.32992  0.96026  0.15406  1.0000
  H   H105      1.0  0.13247  0.88307  0.11263  1.0000
  S   S25       1.0  0.25480  0.94532  0.15905  1.0000
  Fe  Fe14      1.0  0.42297  0.92828  0.17131  1.0000
  S   S26       1.0  0.45767  0.99291  0.15188  1.0000
  S   S27       1.0  0.46814  0.88063  0.19859  1.0000
  H   H106      1.0  0.44621  0.95484  0.29382  1.0000
  C   C83       1.0  0.24282  0.86856  0.24073  1.0000
  Fe  Fe15      1.0  0.40844  0.98443  0.10913  1.0000
  S   S28       1.0  0.37290  0.96599  0.20088  1.0000
  S   S29       1.0  0.37734  0.91622  0.12626  1.0000
  Fe  Fe16      1.0  0.44716  0.63100  0.23541  1.0000
  S   S30       1.0  0.48551  0.67062  0.27627  1.0000
  S   S31       1.0  0.41918  0.66625  0.19025  1.0000
  H   H107      1.0  0.06291  0.82524  0.18226  1.0000
  H   H108      1.0  0.18604  0.78565  0.28538  1.0000
  Fe  Fe17      1.0  0.43769  0.63184  0.30998  1.0000
  Fe  Fe18      1.0  0.40414  0.03025  0.17817  1.0000
  S   S32       1.0  0.39729  0.59519  0.26902  1.0000
  C   C84       1.0  0.46197  0.95968  0.03588  1.0000
  H   H109      1.0  0.29849  0.56786  0.30351  1.0000
  C   C85       1.0  0.27726  0.66667  0.31132  1.0000
  C   C86       1.0  0.32397  0.66414  0.31568  1.0000
  H   H110      1.0  0.26185  0.66014  0.28694  1.0000
  H   H111      1.0  0.34424  0.65752  0.29450  1.0000
  C   C87       1.0  0.18480  0.97201  0.11923  1.0000
  C   C88       1.0  0.45794  0.82101  0.19138  1.0000
  C   C89       1.0  0.42088  0.80387  0.17201  1.0000
  C   C90       1.0  0.41001  0.75595  0.17062  1.0000
  C   C91       1.0  0.43639  0.72525  0.18834  1.0000
  C   C92       1.0  0.47495  0.74236  0.20590  1.0000
  C   C93       1.0  0.48546  0.79014  0.20771  1.0000
  H   H112      1.0  0.39964  0.82750  0.15916  1.0000
  H   H113      1.0  0.38047  0.74276  0.15659  1.0000
  H   H114      1.0  0.49692  0.71877  0.21791  1.0000
  H   H115      1.0  0.51464  0.80316  0.22221  1.0000
  H   H116      1.0  0.26485  0.89888  0.09577  1.0000
  C   C94       1.0  0.22340  0.94606  0.12146  1.0000
  C   C95       1.0  0.23552  0.91959  0.09406  1.0000
  H   H117      1.0  0.31638  0.72220  0.25585  1.0000
  H   H118      1.0  0.47520  0.98099  0.22310  1.0000
  C   C96       1.0  0.34134  0.74854  0.24621  1.0000
  C   C97       1.0  0.48157  0.00513  0.24460  1.0000
  C   C98       1.0  0.48594  0.88109  0.02876  1.0000
  H   H119      1.0  0.44451  0.90349  0.06891  1.0000
  H   H120      1.0  0.33321  0.75312  0.21926  1.0000
  H   H121      1.0  0.44785  0.01529  0.25256  1.0000
  C   C99       1.0  0.21411  0.80447  0.27363  1.0000
  H   H122      1.0  0.31247  0.87251  0.23060  1.0000
  S   S33       1.0  0.40293  0.66627  0.35262  1.0000
  H   H123      1.0  0.13046  0.99393  0.08766  1.0000
  H   H124      1.0  0.37858  0.85912  0.26394  1.0000
  S   S34       1.0  0.48404  0.57357  0.31745  1.0000
  C   C100      1.0  0.30294  0.01555  0.05478  1.0000
  H   H125      1.0  0.06568  0.83690  0.06639  1.0000
  C   C101      1.0  0.37711  0.82470  0.25125  1.0000
  H   H126      1.0  0.53847  0.93868  0.23647  1.0000
  H   H127      1.0  0.32927  0.75925  0.31204  1.0000
  H   H128      1.0  0.05971  0.89934  0.16322  1.0000
  H   H129      1.0  0.33484  0.99932  0.06179  1.0000
  H   H130      1.0  0.37509  0.73321  0.24781  1.0000
  H   H131      1.0  0.23698  0.89962  0.22651  1.0000
  C   C102      1.0  0.17161  0.94664  0.06183  1.0000
  S   S35       1.0  0.19210  0.68099  0.33048  1.0000
  C   C103      1.0  0.20681  0.84484  0.25604  1.0000
  C   C104      1.0  0.11242  0.85319  0.12316  1.0000
  C   C105      1.0  0.35260  0.78519  0.30025  1.0000
  N   N7        1.0  0.34083  0.79317  0.26468  1.0000
  S   S36       1.0  0.43117  0.00116  0.05697  1.0000
  C   C106      1.0  0.15928  0.97276  0.08936  1.0000
  H   H132      1.0  0.38691  0.77148  0.30332  1.0000
  H   H133      1.0  0.17314  0.85762  0.25410  1.0000
  H   H134      1.0  0.30602  0.05152  0.06504  1.0000
  C   C107      1.0  0.51816  0.01806  0.29865  1.0000
  C   C108      1.0  0.28644  0.85242  0.24334  1.0000
  H   H135      1.0  0.41105  0.81019  0.25432  1.0000
  C   C109      1.0  0.25044  0.67849  0.33803  1.0000
  C   C110      1.0  0.29521  0.81164  0.26156  1.0000
  C   C111      1.0  0.20945  0.91960  0.06446  1.0000
  H   H136      1.0  0.35166  0.81776  0.31513  1.0000
  C   C112      1.0  0.25746  0.78783  0.27613  1.0000
  N   N8        1.0  0.50745  0.98353  0.27177  1.0000
  C   C113      1.0  0.47950  0.94408  0.28516  1.0000
  H   H137      1.0  0.26091  0.75589  0.28949  1.0000
  N   N9        1.0  0.06314  0.85789  0.11813  1.0000
  H   H138      1.0  0.37226  0.83010  0.22408  1.0000
  H   H139      1.0  0.48580  0.84561  0.03716  1.0000
  H   H140      1.0  0.21872  0.89851  0.04358  1.0000
  H   H141      1.0  0.49702  0.92793  0.30654  1.0000
  H   H142      1.0  0.12250  0.85177  0.14993  1.0000
  S   S37       1.0  0.49225  0.57104  0.23519  1.0000
  H   H143      1.0  0.17516  0.99233  0.14045  1.0000
  H   H144      1.0  0.12358  0.82125  0.11078  1.0000
  S   S38       1.0  0.35733  0.02791  0.13351  1.0000
  C   C114      1.0  0.34432  0.67184  0.34700  1.0000
  C   C115      1.0  0.46249  0.91384  0.04678  1.0000
  H   H145      1.0  0.47209  0.91666  0.26584  1.0000
  H   H146      1.0  0.27526  0.99676  0.06815  1.0000
  Fe  Fe19      1.0  0.52743  0.60795  0.27851  1.0000
  H   H147      1.0  0.07405  0.89773  0.07328  1.0000
  C   C116      1.0  0.05481  0.86606  0.08207  1.0000
  H   H148      1.0  0.06559  0.93214  0.12601  1.0000
  C   C117      1.0  0.04971  0.89968  0.13643  1.0000
  H   H149      1.0  0.44783  0.03233  0.30807  1.0000
  H   H150      1.0  0.23622  0.57294  0.33562  1.0000
  C   C118      1.0  0.48285  0.03975  0.31517  1.0000
  S   S39       1.0  0.04604  0.02289  0.06291  1.0000
  H   H151      1.0  0.35845  0.57596  0.34821  1.0000
  S   S40       1.0  0.11499  0.77626  0.35935  1.0000
  H   H152      1.0  0.35957  0.04648  0.24641  1.0000
  C   C119      1.0  0.24495  0.56198  0.36049  1.0000
  C   C120      1.0  0.04200  0.80416  0.16507  1.0000
  C   C121      1.0  0.13505  0.98755  0.41269  1.0000
  Fe  Fe20      1.0  0.08197  0.68488  0.42593  1.0000
  S   S41       1.0  0.15212  0.71831  0.42363  1.0000
  H   H153      1.0  0.15563  0.63800  0.46952  1.0000
  H   H154      1.0  0.18976  0.75319  0.50255  1.0000
  H   H155      1.0  0.33310  0.69009  0.39825  1.0000
  C   C122      1.0  0.17528  0.70149  0.56117  1.0000
  H   H156      1.0  0.20688  0.71451  0.55106  1.0000
  H   H157      1.0  0.06097  0.71203  0.56205  1.0000
  Fe  Fe21      1.0  0.11608  0.78417  0.41507  1.0000
  S   S42       1.0  0.14270  0.85077  0.44062  1.0000
  H   H158      1.0  0.10693  0.83115  0.53273  1.0000
  N   N10       1.0  0.12949  0.76125  0.53091  1.0000
  C   C123      1.0  0.10037  0.74722  0.50174  1.0000
  C   C124      1.0  0.07990  0.57811  0.51752  1.0000
  C   C125      1.0  0.09616  0.60778  0.49236  1.0000
  C   C126      1.0  0.30247  0.04144  0.40852  1.0000
  C   C127      1.0  0.10875  0.79980  0.54867  1.0000
  H   H159      1.0  0.11288  0.71595  0.48937  1.0000
  C   C128      1.0  0.17357  0.77953  0.51808  1.0000
  H   H160      1.0  0.10303  0.96754  0.41182  1.0000
  C   C129      1.0  0.17738  0.66296  0.58192  1.0000
  H   H161      1.0  0.17237  0.93141  0.39435  1.0000
  H   H162      1.0  0.12861  0.81010  0.57161  1.0000
  H   H163      1.0  0.06475  0.73848  0.50844  1.0000
  H   H164      1.0  0.07350  0.79067  0.55608  1.0000
  C   C130      1.0  0.11008  0.55638  0.53914  1.0000
  C   C131      1.0  0.10779  0.88351  0.46597  1.0000
  C   C132      1.0  0.21813  0.57788  0.38602  1.0000
  H   H165      1.0  0.16952  0.81008  0.50172  1.0000
  H   H166      1.0  0.25001  0.69655  0.39017  1.0000
  C   C133      1.0  0.09858  0.95252  0.50026  1.0000
  C   C134      1.0  0.12541  0.92541  0.48012  1.0000
  C   C135      1.0  0.15665  0.56437  0.53565  1.0000
  H   H167      1.0  0.09945  0.77522  0.48291  1.0000
  H   H168      1.0  0.11238  0.98499  0.51073  1.0000
  H   H169      1.0  0.15984  0.93729  0.47520  1.0000
  H   H170      1.0  0.19713  0.79142  0.53869  1.0000
  C   C136      1.0  0.21942  0.03894  0.41675  1.0000
  C   C137      1.0  0.13336  0.72115  0.55338  1.0000
  H   H171      1.0  0.20888  0.60002  0.50762  1.0000
  Fe  Fe22      1.0  0.14417  0.70733  0.36834  1.0000
  C   C138      1.0  0.22736  0.56670  0.41904  1.0000
  C   C139      1.0  0.09660  0.66112  0.58815  1.0000
  S   S43       1.0  0.07671  0.66829  0.37110  1.0000
  H   H172      1.0  0.20940  0.64743  0.58677  1.0000
  H   H173      1.0  0.19048  0.59989  0.38011  1.0000
  C   C140      1.0  0.13819  0.64284  0.59536  1.0000
  H   H174      1.0  0.20667  0.57957  0.43870  1.0000
  C   C141      1.0  0.14275  0.61535  0.48879  1.0000
  H   H175      1.0  0.14006  0.61209  0.61055  1.0000
  C   C142      1.0  0.09408  0.69970  0.56751  1.0000
  C   C143      1.0  0.06336  0.86831  0.47283  1.0000
  C   C144      1.0  0.05436  0.93703  0.50743  1.0000
  C   C145      1.0  0.17432  0.96728  0.40282  1.0000
  C   C146      1.0  0.17284  0.59363  0.51031  1.0000
  C   C147      1.0  0.21601  0.99241  0.40466  1.0000
  C   C148      1.0  0.31756  0.68384  0.37390  1.0000
  H   H176      1.0  0.27331  0.04733  0.47136  1.0000
  C   C149      1.0  0.13723  0.03302  0.42459  1.0000
  H   H177      1.0  0.04916  0.83637  0.46195  1.0000
  C   C150      1.0  0.27059  0.68746  0.36940  1.0000
  H   H178      1.0  0.29917  0.03262  0.38148  1.0000
  S   S44       1.0  0.05746  0.63510  0.46602  1.0000
  H   H179      1.0  0.24498  0.97441  0.39676  1.0000
  H   H180      1.0  0.30723  0.00934  0.42300  1.0000
  S   S45       1.0  0.04640  0.75149  0.42053  1.0000
  Fe  Fe23      1.0  0.04781  0.73803  0.36525  1.0000
  H   H181      1.0  0.04385  0.57223  0.52040  1.0000
  H   H182      1.0  0.06606  0.64462  0.59798  1.0000
  H   H183      1.0  0.10675  0.04860  0.43281  1.0000
  H   H184      1.0  0.52682  0.67872  0.88500  1.0000
  C   C151      1.0  0.33137  0.04181  0.00199  1.0000
  H   H185      1.0  0.50081  0.69020  0.97047  1.0000
  C   C152      1.0  0.50971  0.89419  0.00013  1.0000
  H   H186      1.0  0.29014  0.83829  0.97214  1.0000
  C   C153      1.0  0.25388  0.94605  0.98787  1.0000
  H   H187      1.0  0.48479  0.00794  0.99838  1.0000
  N   N11       1.0  0.29409  0.01484  0.01828  1.0000
  H   H188      1.0  0.52721  0.95044  0.96717  1.0000
  C   C154      1.0  0.32892  0.89288  0.99801  1.0000
  C   C155      1.0  0.48521  0.97259  0.00701  1.0000
  S   S46       1.0  0.14114  0.94753  0.02369  1.0000
  C   C156      1.0  0.51139  0.71776  0.95259  1.0000
  C   C157      1.0  0.25173  0.03908  0.01220  1.0000
  Fe  Fe24      1.0  0.07358  0.98062  0.02167  1.0000
  H   H189      1.0  0.22340  0.88527  0.96337  1.0000
  C   C158      1.0  0.25337  0.90031  0.97609  1.0000
  C   C159      1.0  0.50940  0.94008  0.98936  1.0000
  C   C160      1.0  0.29077  0.87376  0.98118  1.0000
  C   C161      1.0  0.29209  0.96647  0.00553  1.0000
  H   H190      1.0  0.15476  0.59259  0.77830  1.0000
  H   H191      1.0  0.22342  0.96420  0.98345  1.0000
  H   H192      1.0  0.52305  0.72590  0.81308  1.0000
  H   H193      1.0  0.50403  0.75191  0.96393  1.0000
  H   H194      1.0  0.24388  0.04200  0.98511  1.0000
  H   H195      1.0  0.22242  0.02076  0.02435  1.0000
  H   H196      1.0  0.48921  0.71326  0.93000  1.0000
  H   H197      1.0  0.35822  0.87241  0.00194  1.0000
  C   C162      1.0  0.32967  0.93846  0.00998  1.0000
  S   S47       1.0  0.53186  0.63377  0.78790  1.0000
  S   S48       1.0  0.05285  0.02877  0.98097  1.0000
  S   S49       1.0  0.53877  0.85230  0.97802  1.0000
  H   H198      1.0  0.36014  0.95160  0.02275  1.0000
  H   H199      1.0  0.36501  0.02837  0.00816  1.0000
  H   H200      1.0  0.20776  0.56651  0.78040  1.0000
  H   H201      1.0  0.32710  0.04061  0.97439  1.0000
  H   H202      1.0  0.35649  0.55708  0.74078  1.0000
  H   H203      1.0  0.17438  0.56926  0.81718  1.0000
  C   C163      1.0  0.17259  0.56349  0.78972  1.0000
  H   H204      1.0  0.53995  0.60393  0.86028  1.0000
  C   C164      1.0  0.85315  0.46752  0.03376  1.0000
  C   C165      1.0  0.91138  0.50949  0.15689  1.0000
  H   H205      1.0  0.90803  0.46893  0.09741  1.0000
  H   H206      1.0  0.62450  0.40245  0.27094  1.0000
  H   H207      1.0  0.96538  0.44025  0.17481  1.0000
  C   C166      1.0  0.56495  0.41872  0.34006  1.0000
  C   C167      1.0  0.55182  0.48671  0.28605  1.0000
  C   C168      1.0  0.54992  0.40800  0.30694  1.0000
  H   H208      1.0  0.58666  0.44914  0.34558  1.0000
  C   C169      1.0  0.61370  0.43825  0.27552  1.0000
  H   H209      1.0  0.63218  0.45201  0.29817  1.0000
  S   S50       1.0  0.82388  0.51959  0.08568  1.0000
  H   H210      1.0  0.92157  0.53431  0.17729  1.0000
  H   H211      1.0  0.62543  0.46040  0.25444  1.0000
  H   H212      1.0  0.93830  0.14798  0.06809  1.0000
  N   N12       1.0  0.95069  0.49286  0.13883  1.0000
  H   H213      1.0  0.01282  0.46090  0.15069  1.0000
  C   C170      1.0  0.93349  0.45583  0.11523  1.0000
  H   H214      1.0  0.99223  0.49556  0.18390  1.0000
  C   C171      1.0  0.91150  0.12165  0.06295  1.0000
  H   H215      1.0  0.91600  0.42637  0.12829  1.0000
  H   H216      1.0  0.88841  0.52757  0.13969  1.0000
  N   N13       1.0  0.56404  0.43853  0.27909  1.0000
  H   H217      1.0  0.55987  0.51017  0.26485  1.0000
  H   H218      1.0  0.96453  0.50926  0.07029  1.0000
  H   H219      1.0  0.83083  0.44000  0.04316  1.0000
  C   C172      1.0  0.85583  0.51099  0.04980  1.0000
  C   C173      1.0  0.98164  0.47152  0.16308  1.0000
  C   C174      1.0  0.97857  0.53574  0.08721  1.0000
  C   C175      1.0  0.97459  0.53253  0.12240  1.0000
  C   C176      1.0  0.88449  0.12442  0.03415  1.0000
  H   H220      1.0  0.55266  0.44902  0.22632  1.0000
  H   H221      1.0  0.89105  0.48057  0.16836  1.0000
  H   H222      1.0  0.57030  0.50268  0.30794  1.0000
  C   C177      1.0  0.57181  0.06324  0.33527  1.0000
  H   H223      1.0  0.96132  0.44134  0.10086  1.0000
  C   C178      1.0  0.90579  0.08401  0.08417  1.0000
  H   H224      1.0  0.55249  0.38963  0.23836  1.0000
  H   H225      1.0  0.92776  0.08122  0.10590  1.0000
  C   C179      1.0  0.88473  0.54636  0.03755  1.0000
  H   H226      1.0  0.60631  0.07273  0.34311  1.0000
  C   C180      1.0  0.54262  0.42452  0.24649  1.0000
  Fe  Fe25      1.0  0.65034  0.11886  0.61483  1.0000
  S   S51       1.0  0.66049  0.19637  0.61883  1.0000
  S   S52       1.0  0.61384  0.08219  0.57162  1.0000
  H   H227      1.0  0.56964  0.25872  0.62391  1.0000
  C   C181      1.0  0.02391  0.36341  0.58271  1.0000
  H   H228      1.0  0.62199  0.31529  0.59862  1.0000
  Fe  Fe26      1.0  0.63332  0.18608  0.67008  1.0000
  H   H229      1.0  0.73846  0.34181  0.68182  1.0000
  Fe  Fe27      1.0  0.72756  0.18082  0.64234  1.0000
  S   S53       1.0  0.79454  0.22066  0.63922  1.0000
  S   S54       1.0  0.61830  0.10956  0.66477  1.0000
  S   S55       1.0  0.71988  0.10396  0.63408  1.0000
  S   S56       1.0  0.91314  0.15682  0.51937  1.0000
  C   C182      1.0  0.82745  0.20158  0.60631  1.0000
  C   C183      1.0  0.87444  0.19977  0.61057  1.0000
  C   C184      1.0  0.90102  0.18519  0.58421  1.0000
  C   C185      1.0  0.88087  0.17432  0.55312  1.0000
  C   C186      1.0  0.83403  0.17675  0.54882  1.0000
  C   C187      1.0  0.80722  0.18930  0.57552  1.0000
  H   H230      1.0  0.89017  0.20895  0.63443  1.0000
  H   H231      1.0  0.93704  0.18263  0.58788  1.0000
  H   H232      1.0  0.81838  0.16883  0.52477  1.0000
  H   H233      1.0  0.77104  0.19080  0.57199  1.0000
  S   S57       1.0  0.01841  0.08969  0.49478  1.0000
  H   H234      1.0  0.65256  0.16784  0.54471  1.0000
  C   C188      1.0  0.74172  0.06310  0.54658  1.0000
  Fe  Fe28      1.0  0.98291  0.13333  0.53139  1.0000
  C   C189      1.0  0.59652  0.11775  0.53887  1.0000
  C   C190      1.0  0.62163  0.15834  0.53101  1.0000
  H   H235      1.0  0.99015  0.28831  0.54560  1.0000
  C   C191      1.0  0.60743  0.18608  0.50464  1.0000
  H   H236      1.0  0.99501  0.31154  0.63728  1.0000
  H   H237      1.0  0.95640  0.29829  0.58142  1.0000
  H   H238      1.0  0.71173  0.06203  0.56171  1.0000
  C   C192      1.0  0.98954  0.28624  0.57322  1.0000
  C   C193      1.0  0.81885  0.06701  0.50755  1.0000
  S   S58       1.0  0.57953  0.22702  0.69334  1.0000
  C   C194      1.0  0.77904  0.08618  0.49612  1.0000
  H   H239      1.0  0.56293  0.40001  0.39199  1.0000
  N   N14       1.0  0.02772  0.31348  0.58964  1.0000
  C   C195      1.0  0.74058  0.08422  0.51557  1.0000
  H   H240      1.0  0.55087  0.18195  0.62990  1.0000
  C   C196      1.0  0.56721  0.17433  0.48681  1.0000
  H   H241      1.0  0.77837  0.10362  0.47231  1.0000
  S   S59       1.0  0.99592  0.08717  0.57452  1.0000
  C   C197      1.0  0.59259  0.30704  0.54938  1.0000
  H   H242      1.0  0.62743  0.21703  0.49827  1.0000
  H   H243      1.0  0.64840  0.28874  0.66408  1.0000
  H   H244      1.0  0.84776  0.07120  0.49167  1.0000
  H   H245      1.0  0.57602  0.43542  0.63628  1.0000
  H   H246      1.0  0.88768  0.08545  0.57683  1.0000
  S   S60       1.0  0.55024  0.21048  0.45429  1.0000
  H   H247      1.0  0.55135  0.15354  0.59024  1.0000
  H   H248      1.0  0.01936  0.38854  0.63439  1.0000
  C   C198      1.0  0.55664  0.10557  0.52074  1.0000
  H   H249      1.0  0.70989  0.09954  0.50686  1.0000
  H   H250      1.0  0.99025  0.24872  0.57925  1.0000
  H   H251      1.0  0.72561  0.28287  0.69296  1.0000
  C   C199      1.0  0.63310  0.35764  0.68031  1.0000
  C   C200      1.0  0.62565  0.30921  0.67803  1.0000
  H   H252      1.0  0.55709  0.29080  0.50316  1.0000
  H   H253      1.0  0.91181  0.06017  0.52171  1.0000
  C   C201      1.0  0.56558  0.26511  0.59758  1.0000
  C   C202      1.0  0.59571  0.29770  0.58331  1.0000
  C   C203      1.0  0.02718  0.30226  0.62572  1.0000
  H   H254      1.0  0.01552  0.46941  0.62088  1.0000
  H   H255      1.0  0.03028  0.26440  0.62999  1.0000
  H   H256      1.0  0.66169  0.37452  0.66818  1.0000
  H   H257      1.0  0.61655  0.33158  0.53816  1.0000
  Fe  Fe29      1.0  0.68863  0.10206  0.68463  1.0000
  C   C204      1.0  0.54161  0.13418  0.49507  1.0000
  H   H258      1.0  0.78321  0.30335  0.68584  1.0000
  C   C205      1.0  0.01769  0.44427  0.60080  1.0000
  C   C206      1.0  0.02002  0.39724  0.60828  1.0000
  C   C207      1.0  0.58885  0.28750  0.69402  1.0000
  S   S61       1.0  0.70098  0.17803  0.69403  1.0000
  C   C208      1.0  0.55898  0.28426  0.52975  1.0000
  H   H259      1.0  0.56285  0.39376  0.58260  1.0000
  C   C209      1.0  0.01892  0.45902  0.56788  1.0000
  H   H260      1.0  0.01732  0.49554  0.56225  1.0000
  H   H261      1.0  0.02338  0.43841  0.51660  1.0000
  H   H262      1.0  0.02735  0.35588  0.52866  1.0000
  C   C210      1.0  0.02235  0.42676  0.54220  1.0000
  C   C211      1.0  0.02468  0.37962  0.54940  1.0000
  C   C212      1.0  0.54283  0.41961  0.63005  1.0000
  H   H263      1.0  0.54308  0.10887  0.37091  1.0000
  C   C213      1.0  0.55187  0.39069  0.36681  1.0000
  H   H264      1.0  0.91609  0.15119  0.93143  1.0000
  H   H265      1.0  0.68506  0.31346  0.74228  1.0000
  C   C214      1.0  0.77990  0.06429  0.99568  1.0000
  Fe  Fe30      1.0  0.58553  0.47941  0.82461  1.0000
  H   H266      1.0  0.70093  0.37119  0.72869  1.0000
  S   S62       1.0  0.62700  0.45814  0.86897  1.0000
  Fe  Fe31      1.0  0.58165  0.47410  0.74930  1.0000
  H   H267      1.0  0.68939  0.23708  0.85080  1.0000
  H   H268      1.0  0.59064  0.24293  0.76929  1.0000
  H   H269      1.0  0.98845  0.21672  0.81955  1.0000
  Fe  Fe32      1.0  0.91260  0.32137  0.90986  1.0000
  S   S63       1.0  0.97625  0.36515  0.92051  1.0000
  S   S64       1.0  0.89740  0.24629  0.92312  1.0000
  Fe  Fe33      1.0  0.87472  0.39231  0.86319  1.0000
  S   S65       1.0  0.93538  0.44150  0.86928  1.0000
  S   S66       1.0  0.82125  0.40630  0.82482  1.0000
  Fe  Fe34      1.0  0.97613  0.37866  0.86532  1.0000
  H   H270      1.0  0.57924  0.16615  0.82993  1.0000
  Fe  Fe35      1.0  0.92996  0.42442  0.92372  1.0000
  S   S67       1.0  0.91579  0.33090  0.85462  1.0000
  S   S68       1.0  0.86587  0.37946  0.91771  1.0000
  H   H271      1.0  0.68418  0.31999  0.85948  1.0000
  C   C215      1.0  0.67998  0.44039  0.85679  1.0000
  C   C216      1.0  0.69270  0.44446  0.82358  1.0000
  C   C217      1.0  0.73606  0.43355  0.81416  1.0000
  C   C218      1.0  0.76677  0.41760  0.83775  1.0000
  C   C219      1.0  0.75353  0.41127  0.87072  1.0000
  C   C220      1.0  0.71017  0.42302  0.88032  1.0000
  H   H272      1.0  0.66938  0.45660  0.80510  1.0000
  C   C221      1.0  0.98978  0.23963  0.84198  1.0000
  H   H273      1.0  0.77675  0.39793  0.88886  1.0000
  H   H274      1.0  0.70018  0.41922  0.90598  1.0000
  H   H275      1.0  0.58685  0.54799  0.88969  1.0000
  C   C222      1.0  0.67020  0.15620  0.82706  1.0000
  C   C223      1.0  0.96491  0.14837  0.97182  1.0000
  C   C224      1.0  0.93647  0.17108  0.94964  1.0000
  C   C225      1.0  0.93467  0.21942  0.95064  1.0000
  C   C226      1.0  0.96207  0.24518  0.97355  1.0000
  H   H276      1.0  0.96630  0.11107  0.97083  1.0000
  H   H277      1.0  0.88445  0.08762  0.96488  1.0000
  H   H278      1.0  0.99552  0.27574  0.83276  1.0000
  C   C227      1.0  0.99154  0.17392  0.99527  1.0000
  H   H279      1.0  0.63455  0.18514  0.74962  1.0000
  H   H280      1.0  0.94987  0.08030  0.87395  1.0000
  C   C228      1.0  0.66643  0.25460  0.83465  1.0000
  H   H281      1.0  0.63194  0.36443  0.82521  1.0000
  H   H282      1.0  0.76209  0.52240  0.96891  1.0000
  H   H283      1.0  0.84571  0.48579  0.93314  1.0000
  N   N15       1.0  0.75604  0.32526  0.73276  1.0000
  S   S69       1.0  0.94111  0.48683  0.95799  1.0000
  H   H284      1.0  0.70615  0.16897  0.82530  1.0000
  H   H285      1.0  0.66956  0.11812  0.82184  1.0000
  H   H286      1.0  0.66131  0.13503  0.76397  1.0000
  C   C229      1.0  0.85100  0.06909  0.96772  1.0000
  C   C230      1.0  0.78774  0.25662  0.80964  1.0000
  C   C231      1.0  0.66391  0.30238  0.83992  1.0000
  C   C232      1.0  0.63478  0.32771  0.82049  1.0000
  C   C233      1.0  0.87927  0.45941  0.00560  1.0000
  C   C234      1.0  0.99035  0.22241  0.99590  1.0000
  C   C235      1.0  0.78234  0.24332  0.74064  1.0000
  H   H287      1.0  0.69139  0.19052  0.76625  1.0000
  C   C236      1.0  0.79841  0.21427  0.79583  1.0000
  C   C237      1.0  0.98262  0.14851  0.86906  1.0000
  H   H288      1.0  0.78795  0.47470  0.92089  1.0000
  H   H289      1.0  0.76062  0.07537  0.01761  1.0000
  H   H290      1.0  0.71355  0.35495  0.77000  1.0000
  N   N16       1.0  0.02590  0.22713  0.86594  1.0000
  C   C238      1.0  0.01926  0.17962  0.87928  1.0000
  H   H291      1.0  0.58635  0.32569  0.78006  1.0000
  H   H292      1.0  0.95684  0.15806  0.85146  1.0000
  H   H293      1.0  0.96088  0.28253  0.97449  1.0000
  H   H294      1.0  0.89201  0.15349  0.01812  1.0000
  C   C239      1.0  0.65763  0.17247  0.76935  1.0000
  S   S70       1.0  0.55857  0.42483  0.78887  1.0000
  C   C240      1.0  0.71210  0.34170  0.74395  1.0000
  H   H295      1.0  0.80979  0.18690  0.81175  1.0000
  H   H296      1.0  0.82824  0.50023  0.89201  1.0000
  C   C241      1.0  0.77010  0.28658  0.75396  1.0000
  N   N17       1.0  0.82439  0.09052  0.99394  1.0000
  H   H297      1.0  0.61754  0.05620  0.73496  1.0000
  C   C242      1.0  0.90844  0.49475  0.99355  1.0000
  C   C243      1.0  0.01349  0.43007  0.74716  1.0000
  H   H298      1.0  0.98742  0.45031  0.73620  1.0000
  S   S71       1.0  0.61375  0.52695  0.78531  1.0000
  H   H299      1.0  0.84640  0.15845  0.97555  1.0000
  C   C244      1.0  0.56673  0.36239  0.71392  1.0000
  C   C245      1.0  0.55882  0.31428  0.71122  1.0000
  H   H300      1.0  0.95608  0.23796  0.85390  1.0000
  C   C246      1.0  0.00871  0.41338  0.77987  1.0000
  N   N18       1.0  0.64065  0.18035  0.80325  1.0000
  C   C247      1.0  0.77371  0.29222  0.78911  1.0000
  H   H301      1.0  0.78258  0.23625  0.71416  1.0000
  H   H302      1.0  0.87697  0.42585  0.99334  1.0000
  C   C248      1.0  0.60886  0.30575  0.79516  1.0000
  H   H303      1.0  0.78210  0.39367  0.71930  1.0000
  C   C249      1.0  0.91111  0.53815  0.00963  1.0000
  S   S72       1.0  0.61692  0.44392  0.70525  1.0000
  H   H304      1.0  0.79398  0.37826  0.76128  1.0000
  H   H305      1.0  0.97910  0.42080  0.79390  1.0000
  C   C250      1.0  0.63954  0.23090  0.80944  1.0000
  H   H306      1.0  0.80081  0.15823  0.00472  1.0000
  H   H307      1.0  0.75590  0.51087  0.87470  1.0000
  H   H308      1.0  0.80463  0.17489  0.75057  1.0000
  H   H309      1.0  0.75851  0.06885  0.97296  1.0000
  H   H310      1.0  0.76691  0.32477  0.80099  1.0000
  C   C251      1.0  0.81735  0.49990  0.91842  1.0000
  H   H311      1.0  0.74604  0.43842  0.78860  1.0000
  C   C252      1.0  0.61132  0.25819  0.78946  1.0000
  C   C253      1.0  0.00936  0.08840  0.90501  1.0000
  C   C254      1.0  0.79565  0.20763  0.76142  1.0000
  Fe  Fe36      1.0  0.02039  0.06772  0.02183  1.0000
  C   C255      1.0  0.85051  0.08942  0.02579  1.0000
  H   H312      1.0  0.79161  0.13951  0.96215  1.0000
  H   H313      1.0  0.79137  0.26246  0.83632  1.0000
  H   H314      1.0  0.82452  0.35286  0.72849  1.0000
  H   H315      1.0  0.65892  0.16025  0.85317  1.0000
  H   H316      1.0  0.01099  0.24233  0.01398  1.0000
  C   C256      1.0  0.79060  0.36415  0.73553  1.0000
  H   H317      1.0  0.99446  0.25964  0.90706  1.0000
  C   C257      1.0  0.97805  0.10358  0.88181  1.0000
  C   C258      1.0  0.81545  0.13871  0.98387  1.0000
  N   N19       1.0  0.80658  0.54685  0.93032  1.0000
  C   C259      1.0  0.59440  0.15833  0.80549  1.0000
  H   H318      1.0  0.57115  0.17003  0.78556  1.0000
  H   H319      1.0  0.82073  0.52510  0.98055  1.0000
  S   S73       1.0  0.71439  0.05447  0.72435  1.0000
  H   H320      1.0  0.54348  0.38266  0.72733  1.0000
  H   H321      1.0  0.83308  0.06822  0.94309  1.0000
  C   C260      1.0  0.60452  0.38411  0.69931  1.0000
  C   C261      1.0  0.75061  0.31260  0.69688  1.0000
  C   C262      1.0  0.79468  0.54283  0.96597  1.0000
  H   H322      1.0  0.69055  0.54314  0.84862  1.0000
  S   S74       1.0  0.02565  0.14587  0.02436  1.0000
  C   C263      1.0  0.74588  0.54362  0.88435  1.0000
  H   H323      1.0  0.59438  0.11991  0.80287  1.0000
  C   C264      1.0  0.02686  0.26150  0.89362  1.0000
  H   H324      1.0  0.03219  0.29755  0.88439  1.0000
  S   S75       1.0  0.04018  0.36992  0.83638  1.0000
  H   H325      1.0  0.00534  0.05367  0.91499  1.0000
  Fe  Fe37      1.0  0.98212  0.97911  0.05392  1.0000
  S   S76       1.0  0.94389  0.94815  0.09717  1.0000
  H   H326      1.0  0.84758  0.62152  0.32448  1.0000
  H   H327      1.0  0.88462  0.69369  0.30877  1.0000
  H   H328      1.0  0.84202  0.67002  0.24139  1.0000
  S   S77       1.0  0.60322  0.60271  0.28246  1.0000
  Fe  Fe38      1.0  0.78346  0.66288  0.15071  1.0000
  S   S78       1.0  0.81483  0.59693  0.16579  1.0000
  S   S79       1.0  0.71580  0.68975  0.16352  1.0000
  Fe  Fe39      1.0  0.86027  0.69159  0.10586  1.0000
  S   S80       1.0  0.89871  0.62872  0.11694  1.0000
  S   S81       1.0  0.88257  0.73966  0.06516  1.0000
  Fe  Fe40      1.0  0.83194  0.58940  0.11171  1.0000
  S   S82       1.0  0.99084  0.75655  0.32993  1.0000
  Fe  Fe41      1.0  0.87949  0.64114  0.16990  1.0000
  S   S83       1.0  0.93071  0.62322  0.20943  1.0000
  S   S84       1.0  0.79473  0.65133  0.09625  1.0000
  S   S85       1.0  0.84687  0.70814  0.15937  1.0000
  H   H329      1.0  0.01847  0.87152  0.07669  1.0000
  C   C265      1.0  0.97791  0.64630  0.26663  1.0000
  C   C266      1.0  0.95047  0.66249  0.24087  1.0000
  C   C267      1.0  0.93812  0.70854  0.24145  1.0000
  C   C268      1.0  0.95230  0.73779  0.26829  1.0000
  H   H330      1.0  0.65945  0.74648  0.25972  1.0000
  H   H331      1.0  0.91726  0.72147  0.22156  1.0000
  C   C269      1.0  0.67226  0.79544  0.08314  1.0000
  C   C270      1.0  0.85153  0.70803  0.30190  1.0000
  C   C271      1.0  0.63299  0.62350  0.24753  1.0000
  C   C272      1.0  0.61335  0.65382  0.22521  1.0000
  C   C273      1.0  0.63882  0.67318  0.19912  1.0000
  C   C274      1.0  0.68377  0.66172  0.19479  1.0000
  C   C275      1.0  0.70295  0.63013  0.21644  1.0000
  C   C276      1.0  0.67771  0.61134  0.24290  1.0000
  H   H332      1.0  0.57890  0.66337  0.22855  1.0000
  H   H333      1.0  0.62374  0.69753  0.18246  1.0000
  H   H334      1.0  0.73755  0.62124  0.21331  1.0000
  H   H335      1.0  0.85823  0.73319  0.28157  1.0000
  C   C277      1.0  0.92373  0.89089  0.08878  1.0000
  C   C278      1.0  0.91222  0.86085  0.11489  1.0000
  C   C279      1.0  0.89891  0.81422  0.10807  1.0000
  C   C280      1.0  0.89731  0.79776  0.07514  1.0000
  C   C281      1.0  0.90766  0.82815  0.04917  1.0000
  C   C282      1.0  0.92057  0.87454  0.05599  1.0000
  H   H336      1.0  0.91454  0.87334  0.14037  1.0000
  H   H337      1.0  0.89103  0.79094  0.12829  1.0000
  C   C283      1.0  0.56315  0.03086  0.30947  1.0000
  H   H338      1.0  0.01210  0.66223  0.31358  1.0000
  C   C284      1.0  0.70435  0.81931  0.06261  1.0000
  C   C285      1.0  0.98695  0.74683  0.12326  1.0000
  H   H339      1.0  0.96500  0.72489  0.10712  1.0000
  C   C286      1.0  0.68697  0.84921  0.03814  1.0000
  C   C287      1.0  0.97861  0.72109  0.29464  1.0000
  H   H340      1.0  0.94211  0.77321  0.26906  1.0000
  H   H341      1.0  0.72760  0.76454  0.22678  1.0000
  C   C288      1.0  0.72984  0.74267  0.24852  1.0000
  C   C289      1.0  0.64062  0.85524  0.03461  1.0000
  H   H342      1.0  0.57426  0.83665  0.05235  1.0000
  H   H343      1.0  0.78951  0.60784  0.31349  1.0000
  C   C290      1.0  0.81445  0.63702  0.31954  1.0000
  C   C291      1.0  0.62591  0.80171  0.07933  1.0000
  C   C292      1.0  0.99133  0.73631  0.15692  1.0000
  C   C293      1.0  0.73407  0.68277  0.30265  1.0000
  H   H344      1.0  0.68194  0.77184  0.10248  1.0000
  H   H345      1.0  0.73285  0.65941  0.32347  1.0000
  N   N20       1.0  0.75372  0.81404  0.06595  1.0000
  C   C294      1.0  0.83328  0.64626  0.26218  1.0000
  C   C295      1.0  0.77105  0.79585  0.03425  1.0000
  C   C296      1.0  0.01880  0.76492  0.17780  1.0000
  H   H346      1.0  0.75553  0.79415  0.11777  1.0000
  H   H347      1.0  0.69307  0.58799  0.26013  1.0000
  C   C297      1.0  0.61016  0.83157  0.05515  1.0000
  C   C298      1.0  0.77058  0.72301  0.25692  1.0000
  H   H348      1.0  0.80350  0.77867  0.09487  1.0000
  H   H349      1.0  0.80792  0.79015  0.03616  1.0000
  H   H350      1.0  0.86459  0.62776  0.26773  1.0000
  H   H351      1.0  0.80511  0.65374  0.34334  1.0000
  C   C299      1.0  0.00970  0.78618  0.11029  1.0000
  C   C300      1.0  0.77387  0.69198  0.28402  1.0000
  H   H352      1.0  0.60204  0.78356  0.09543  1.0000
  H   H353      1.0  0.56965  0.99208  0.24495  1.0000
  H   H354      1.0  0.84043  0.72811  0.32379  1.0000
  N   N21       1.0  0.81730  0.67097  0.29195  1.0000
  C   C301      1.0  0.69357  0.70290  0.29412  1.0000
  H   H355      1.0  0.75130  0.74621  0.08842  1.0000
  C   C302      1.0  0.99195  0.67546  0.29343  1.0000
  H   H356      1.0  0.80708  0.62024  0.25253  1.0000
  H   H357      1.0  0.82353  0.02136  0.04235  1.0000
  H   H358      1.0  0.88701  0.57999  0.04967  1.0000
  C   C303      1.0  0.76631  0.78191  0.09294  1.0000
  C   C304      1.0  0.69139  0.73254  0.26703  1.0000
  H   H359      1.0  0.00373  0.79272  0.08415  1.0000
  H   H360      1.0  0.59227  0.01656  0.29837  1.0000
  H   H361      1.0  0.79929  0.73170  0.24157  1.0000
  H   H362      1.0  0.81425  0.85683  0.07708  1.0000
  C   C305      1.0  0.77714  0.85979  0.07327  1.0000
  H   H363      1.0  0.97317  0.70608  0.16692  1.0000
  H   H364      1.0  0.01241  0.90273  0.13492  1.0000
  H   H365      1.0  0.66308  0.69396  0.30774  1.0000
  H   H366      1.0  0.56831  0.94574  0.27538  1.0000
  H   H367      1.0  0.76384  0.87570  0.09617  1.0000
  H   H368      1.0  0.87043  0.01854  0.09242  1.0000
  H   H369      1.0  0.92799  0.89763  0.03575  1.0000
  H   H370      1.0  0.98771  0.61075  0.26628  1.0000
  H   H371      1.0  0.77324  0.88474  0.05256  1.0000
  H   H372      1.0  0.02192  0.75671  0.20408  1.0000
  C   C306      1.0  0.54799  0.96436  0.25669  1.0000
  C   C307      1.0  0.03811  0.81613  0.13090  1.0000
  C   C308      1.0  0.87329  0.04876  0.07655  1.0000
  H   H373      1.0  0.03018  0.63681  0.14228  1.0000
  C   C309      1.0  0.84630  0.05097  0.04767  1.0000
  C   C310      1.0  0.01609  0.60839  0.12688  1.0000
  H   H374      1.0  0.99187  0.57054  0.16860  1.0000
  C   C311      1.0  0.01909  0.61059  0.09235  1.0000
  C   C312      1.0  0.99419  0.57005  0.14175  1.0000
  H   H375      1.0  0.00250  0.57622  0.04567  1.0000
  C   C313      1.0  0.00045  0.57432  0.07259  1.0000
  H   H376      1.0  0.03558  0.64060  0.08085  1.0000
  H   H377      1.0  0.83638  0.95470  0.53824  1.0000
  C   C314      1.0  0.82100  0.04463  0.53893  1.0000
  H   H378      1.0  0.88263  0.95627  0.56797  1.0000
  C   C315      1.0  0.89978  0.02416  0.52767  1.0000
  H   H379      1.0  0.00283  0.88247  0.49931  1.0000
  H   H380      1.0  0.78057  0.02861  0.58276  1.0000
  C   C316      1.0  0.85168  0.97402  0.56014  1.0000
  H   H381      1.0  0.90995  0.03333  0.59283  1.0000
  C   C317      1.0  0.78128  0.04379  0.55826  1.0000
  H   H382      1.0  0.88965  0.00573  0.50404  1.0000
  H   H383      1.0  0.82786  0.97009  0.58106  1.0000
  N   N22       1.0  0.86225  0.02331  0.55176  1.0000
  H   H384      1.0  0.92999  0.00715  0.53780  1.0000
  C   C318      1.0  0.87898  0.04839  0.58229  1.0000
  H   H385      1.0  0.85359  0.04780  0.60229  1.0000
  S   S86       1.0  0.02063  0.96888  0.53418  1.0000
  C   C319      1.0  0.03703  0.89462  0.49391  1.0000
  Fe  Fe42      1.0  0.03614  0.04633  0.53868  1.0000
  N   N23       1.0  0.55990  0.71560  0.94467  1.0000
  H   H386      1.0  0.73668  0.01588  0.78747  1.0000
  Fe  Fe43      1.0  0.98732  0.98603  0.97892  1.0000
  S   S87       1.0  0.94661  0.97001  0.93183  1.0000
  C   C320      1.0  0.78227  0.91278  0.77191  1.0000
  H   H387      1.0  0.84451  0.61217  0.93890  1.0000
  Fe  Fe44      1.0  0.68813  0.91458  0.93625  1.0000
  S   S88       1.0  0.62255  0.95017  0.93768  1.0000
  S   S89       1.0  0.74377  0.93408  0.97368  1.0000
  Fe  Fe45      1.0  0.65068  0.84002  0.88739  1.0000
  H   H388      1.0  0.60716  0.75017  0.91203  1.0000
  S   S90       1.0  0.67226  0.77559  0.86106  1.0000
  Fe  Fe46      1.0  0.62051  0.93808  0.88211  1.0000
  C   C321      1.0  0.60713  0.02722  0.78387  1.0000
  H   H389      1.0  0.57089  0.03026  0.78283  1.0000
  H   H390      1.0  0.69012  0.98929  0.83487  1.0000
  S   S91       1.0  0.68912  0.90837  0.88042  1.0000
  S   S92       1.0  0.65582  0.84368  0.94303  1.0000
  C   C322      1.0  0.62738  0.00784  0.81202  1.0000
  C   C323      1.0  0.63346  0.04200  0.75681  1.0000
  H   H391      1.0  0.63909  0.85085  0.82307  1.0000
  H   H392      1.0  0.70914  0.86843  0.02155  1.0000
  C   C324      1.0  0.67413  0.00375  0.81318  1.0000
  C   C325      1.0  0.56807  0.66960  0.93006  1.0000
  H   H393      1.0  0.61323  0.92804  0.75216  1.0000
  H   H394      1.0  0.54924  0.75107  0.89800  1.0000
  H   H395      1.0  0.76679  0.82011  0.01316  1.0000
  H   H396      1.0  0.65187  0.80831  0.73730  1.0000
  C   C326      1.0  0.57132  0.67327  0.80769  1.0000
  H   H397      1.0  0.76423  0.95963  0.73307  1.0000
  C   C327      1.0  0.58817  0.74882  0.83409  1.0000
  C   C328      1.0  0.63282  0.73731  0.84011  1.0000
  C   C329      1.0  0.64688  0.69437  0.82905  1.0000
  C   C330      1.0  0.61612  0.66212  0.81335  1.0000
  H   H398      1.0  0.78998  0.86341  0.81115  1.0000
  H   H399      1.0  0.57714  0.78216  0.84195  1.0000
  H   H400      1.0  0.68172  0.68587  0.83285  1.0000
  H   H401      1.0  0.62721  0.62890  0.80520  1.0000
  C   C331      1.0  0.79987  0.93837  0.96026  1.0000
  C   C332      1.0  0.83473  0.93693  0.98420  1.0000
  C   C333      1.0  0.87984  0.94435  0.97499  1.0000
  C   C334      1.0  0.89048  0.95410  0.94196  1.0000
  C   C335      1.0  0.85573  0.95434  0.91773  1.0000
  C   C336      1.0  0.81036  0.94635  0.92687  1.0000
  H   H402      1.0  0.76972  0.63096  0.94093  1.0000
  H   H403      1.0  0.90642  0.94390  0.99364  1.0000
  H   H404      1.0  0.86382  0.96184  0.89212  1.0000
  H   H405      1.0  0.78356  0.94773  0.90829  1.0000
  C   C337      1.0  0.59494  0.63678  0.94629  1.0000
  N   N24       1.0  0.64142  0.86554  0.77042  1.0000
  C   C338      1.0  0.61260  0.89016  0.74640  1.0000
  C   C339      1.0  0.63727  0.81534  0.76205  1.0000
  C   C340      1.0  0.62296  0.87250  0.80403  1.0000
  C   C341      1.0  0.68963  0.88197  0.77030  1.0000
  Fe  Fe47      1.0  0.59007  0.87857  0.94069  1.0000
  C   C342      1.0  0.70667  0.91705  0.74850  1.0000
  C   C343      1.0  0.72122  0.86282  0.79265  1.0000
  C   C344      1.0  0.55518  0.61295  0.88442  1.0000
  C   C345      1.0  0.58662  0.72648  0.97575  1.0000
  H   H406      1.0  0.60137  0.80175  0.76150  1.0000
  C   C346      1.0  0.60143  0.59344  0.93176  1.0000
  H   H407      1.0  0.57656  0.87726  0.74729  1.0000
  H   H408      1.0  0.58604  0.86333  0.80478  1.0000
  H   H409      1.0  0.93347  0.56568  0.00030  1.0000
  C   C347      1.0  0.70833  0.56207  0.86879  1.0000
  H   H410      1.0  0.56846  0.78758  0.93129  1.0000
  H   H411      1.0  0.62829  0.90925  0.81227  1.0000
  C   C348      1.0  0.76885  0.56690  0.91158  1.0000
  C   C349      1.0  0.75329  0.61076  0.92096  1.0000
  H   H412      1.0  0.70447  0.66265  0.91242  1.0000
  S   S93       1.0  0.95362  0.02825  0.01715  1.0000
  H   H413      1.0  0.68541  0.93447  0.73098  1.0000
  H   H414      1.0  0.62347  0.88513  0.72030  1.0000
  C   C350      1.0  0.76674  0.87821  0.79347  1.0000
  C   C351      1.0  0.71597  0.62914  0.90494  1.0000
  H   H415      1.0  0.81749  0.92497  0.77282  1.0000
  H   H416      1.0  0.85719  0.58242  0.90099  1.0000
  H   H417      1.0  0.71089  0.83598  0.80994  1.0000
  H   H418      1.0  0.65503  0.79401  0.78064  1.0000
  C   C352      1.0  0.57177  0.75249  0.92041  1.0000
  H   H419      1.0  0.62197  0.56872  0.94439  1.0000
  H   H420      1.0  0.79175  0.57703  0.97835  1.0000
  C   C353      1.0  0.69315  0.60440  0.87930  1.0000
  S   S94       1.0  0.58203  0.86893  0.88526  1.0000
  C   C354      1.0  0.75234  0.93199  0.74940  1.0000
  S   S95       1.0  0.59343  0.98934  0.84534  1.0000
  C   C355      1.0  0.70046  0.01895  0.78632  1.0000
  H   H421      1.0  0.82694  0.93077  0.01005  1.0000
  H   H422      1.0  0.66351  0.61792  0.86753  1.0000
  H   H423      1.0  0.62356  0.72575  0.97139  1.0000
  C   C356      1.0  0.58161  0.58157  0.90090  1.0000
  S   S96       1.0  0.01128  0.93367  0.01520  1.0000
  H   H424      1.0  0.57717  0.70223  0.99616  1.0000
  C   C357      1.0  0.55761  0.71697  0.81771  1.0000
  H   H425      1.0  0.58057  0.76191  0.98544  1.0000
  C   C358      1.0  0.84812  0.57740  0.92755  1.0000
  Fe  Fe48      1.0  0.54559  0.55734  0.78605  1.0000
  H   H426      1.0  0.61116  0.64359  0.97025  1.0000
  C   C359      1.0  0.68023  0.03771  0.75798  1.0000
  H   H427      1.0  0.85813  0.03293  0.97414  1.0000
  H   H428      1.0  0.75347  0.76210  0.02725  1.0000
  H   H429      1.0  0.62816  0.87861  0.01590  1.0000
  H   H430      1.0  0.90595  0.81579  0.02361  1.0000
  C   C360      1.0  0.54813  0.65609  0.89878  1.0000
  H   H431      1.0  0.78335  0.02617  0.99692  1.0000
  H   H432      1.0  0.87761  0.56243  0.94045  1.0000
