data_image0
_chemical_formula_structural       HNHNH3FeS2FeS2FeSFeS3H2SCHFeS2FeSFeS3HCHC2HC4SHC6H4C5H3C2HC2H4CH7SC8H5CH6C2H2SCH3CH2C2H5C2H4CNCH2CH2C2HCHCHC2HC4H3CHC2NC6HNH12CHCSC3H6C6FeH2C3FeCH2CH2C2HNH3CHC2HCSCSCFeSNCSFeHFeHSHCH2SH2FeS2CHCSFeS2FeSCFeSFeS3FeS2FeS2FeSFeHS2HSC7H7CHCHC6H6CHC4HCH2C6H6FeH2C3H2C3H4C6H4CFeSCHC2HC3HSHCH2SH3FeC2H9FeHSH2CH6CH2C2HCH3CSHCHCH2C2HCNHNC6FeCH12SC2NC4H11CH2CHCFeHNH2CH2CHNHC3H2CSCH2C2H3C3HCH2CH2SCHC2H3CFeS2FeS2FeS2FeSFeS3FeS2FeS2FeSHCSHFeSFeS3FeS2FeSFeSFeS3C3H2C6H5C7H4CHC2H2NH2SHC2HCH2SC2HC6H4C4HC2HCHCSC8H5C4HCH3CSCH2C2HC3H7C2H3SHNC9H15CH7NH2C4HFeH5CHC2H2CH2NC9H14C3H6CHCFeHC2HCH2CHC2NC8H10SH2C2HCH2C3HCHCH2C3HNCNC2HCHC2H3CHCH2CH2CFeCH5SNSHNH2CH2CH2C2H2CH2C3HC4SHSC5H3CSH2FeCFeC4H5CH3S2C2H2NHS2HSHFeS2FeS2FeSFeS3CHCHC6H7CHC3HNHC5H4C7H4C3S2C5H6CHCHC4H5SH2CH3CH2C3H2CHCHCH2CHCHFeHC3HCH2NHC2HC2HCHCH2CHC3H2C3H5C2H2CHCH6CFeH3C4H3NC2H2CHCH4C2H2C2FeHSNSCNHFeCS2CH2SFeS2FeS2FeSHS2FeS2FeCHCHFeS3HSCHSFe3SNHC6H4C2HC3HCH2CHFeH2CHCSH5C3HC7H5C2FeHSCHCSHCHFeH3C6H2CH2C7H7SCH3CHC4H2C2SH2SNHNHCHC2H6FeC2H2FeHC2H3CHCSCHFeC5HSNC9H14CHCH4FeC4HCHCH3C2HCH4C2H2CHC2HC2SHC3HS2C2H5CHC2H2S2H2FeC3HC2HSCHCH2CNC2H3SH2CHCHCH2CH3CH2CHSHFeS2CHFeSH2SCHSHCH4FeS2FeS2FeHFeS3FeH2FeS2H2FeS2FeS2FeS2FeSFeS3C6H4C6H4NHSC3H2C2HC3H4C5H3FeC6H5CHC5HCH3C6H2C2HCH3FeH3NC4HFeHCSH2CH4CH3C2HNC8H9SHCH7C3H4C2HC2NCH2C3HSHCSHCHCHC2HNHNH3C2H3CH2CH2CHNCH2C3HCH3CNH2C5HC2H3C2HCHC3HCFeHCHC2H4CH2CHCH3SH6FeHCHCHFeH4CHCH2CSCH2FeSH4CH2S3FeSHFeS2FeSFeS3FeS2FeS2FeSFeS3FeSFeS2FeSFeS3FeSCSFeSFeS2HCH2CH3SC2NH2C6H4C6H4C6H4C6H2SHC6H4C6H4C7HCH3CH3C6H5CSCHCH3CH3NH3C2H3CHC2H2C2HC2HCNC8NH11SCHC6HNC8H13FeH7CHNC6HCH12NC3H2FeH5CNHCHNC9H10CHCHCHCH2CHCHSHCH2CH4CHC3H3CH2FeHCH2C2HSH2CH2CH4CH3C3HFeSHFeSHFeSFeS2CHFeSCH2SFeSHSHFeS2FeS2FeSFeCS2CH2FeCSC4SCH2NC6H4NHCH4C2HSC2H4CH2C6H10CHCHFeHCH3CH4CH2C2HC2HC2HCHCHC2H4CH2C3H2C2HNH2C2HSH2C2H2C2HCHNH3CH2NCH2CH2CH2C2H2C5HCHCNC3SHC2H4C2H2CH3CHCHC2SH3C3NSCH2CHCFeSCFeS2FeSFeS3FeS2FeSHFeSFeS3FeSFeS2FeS3FeSFeS2FeSFeSFeS2CH5C6H4C6H4C6H4C6H5C3H2CH3C7H4C2SHC6H2CH2C3H3C2H6SCSHCHSC3HCSHNC9H14SHCH5CNC8H11C3HC9H2C2H4CHCH5CSNC3H2C2H5CHCH3C2SHCNSH2Fe2H2FeC2H5CSHCSH2NC2HC2HC2H2NHCHCH2CSNCH3CHCH2SCHCFeH4CNC3H15CHSH2NC9H13SC3HCH2CHCHCHC2HCHCNCHCHCH3NH2CSC2H4FeHSCHSFeS2FeS2FeSFeS4FeS2FeSFeS2FeS2FeS2FeSFeS3H2SHCHFeCFeS2FeS3C6H4C6H3C7H4C6H4C6H5C5H4C6H4CHC6HCH2CNHNC6H3SH2C4N2H4FeC3HCHSC2SHCH9C2H2CH4S3HCHC2HNH5SHSH2CH3CH3C2NHNCH2FeH4C2SH3C2HCSC2HCH2CH3CHCH2FeH2C3NC9H14NH3CH2C2H5C3H2CHCSHSCH2C2HCHC2H2C3HC3HC2NHCH3CFeHCH3C2HCH2C2H2C2NCH4CHC2H3C2FeC2HCHC2HCHC4H3CHCH3CH3CFeHSCH2FeCH5C3SH2SCHSFeSHSC2HSHFeSHSFeSHFeS2FeSFeS3H4CHC7H4NH2C4HC8H2CHC6H5FeH3SCHC2SH3CSHCH2NHNH2NHC8HSFeCHC2HCH5C2H3C2H2FeCHCH3C3HC3H3CHC2NC9H15CH2CH4NC2H4FeHNCH3CH2CHCHC2H3FeSHFeS2Fe2S3HS2HCFeSFeSCFe2SCSFeSFeS3FeS2FeS2FeSFeS3FeS2FeSFeSHC3HCSC2H3C2H2C2H2C2HC3HC6H5C3H2NC6H4C6H4C6H4C6H6CH2C4HCHCHCNC8H12C2H2NC4H3CH2CH5C2HCHC2SHCH5CHC3H2C3SH2SH2CH3SCHCH3NC4H12CH5CH4CNC8H8NCSH4NHCHC5H2CHC3H3C3SCHSHC4H3C2H5CSH7C2H2CSC4HCH3SHSHCSHCHC3HCH2SC2NHCFeCHSCHNHSH2CHCH4C2H3C3HC2H3CFeHSNHCHC3H9CHCH2SHC2H2C2H2CN2SC2HCHCH4CSH2CH2CH3C3NHSHCH2CHC2SFeSHFeSFeHC2HSCFeSFeSFeCSHFeS2FeS2FeSFeS3CSHFeSCFeHFeSCSC4H3CFeH3C4H2C6H4C6H4SCHSHNH5S2C2HC2HC4H5CH2CHCHCNHC3NSH3SHCH4C2H5CHCN2C6HCH13CHNC9H11CH2CH2CHCH2CH2CH2FeSNC8H12FeC4H5CHCH2C3NC10H9CSH3C3H2CSHSCHSC4HCHCH2FeCH3CH2S2HFeS2HCH3FeSCSFeS2FeHSFeSFeCS2HC4FeH2CH2C4H9CH2C6H4CH4NHC3H6C2HCH3NHC3HFeHC3HSHSC3HCFeC3H2CHC2H2SH2C3H2SC2H2SCH2CHNC5H2CFeHFeSCFeS2FeSFeS3FeS2FeS2FeSFeS3FeS2FeS2FeSFeS3FeS3Fe2S2H3CHFeH3CSHC3HCH2C3HCH2CHSC6H4C4H2C6H4C5H3CH2CFeC4HCH4C6H12CHC2H2C2H2C4H5CH4CNC2HC2H2C3HCSC2SCSH2CFeCNC3H2CHCH9NCHCHNC9H14NC9H14CSHNC9H13CHCH2CHCHCH2C3HNC2NC9H14SH4C2HFe2HC2HCHSHC4H4C4H2C2HSCH3CH4NHCSC3H2CHC2SNHC3SCH2CFeS2FeS2FeSC2S2FeS2CNH2FeS2FeS2FeSFeS3FeS2FeSFeHFeS3C2HCH3C5HC6H4C6H4C4HCH2CHNC3NCH2C4HC2H4C5H2NC7H3CHC6H4FeCHFeNC9H17NHSCH3C3H2CHSHC2H4FeSCH2FeH4CHCH2SH2CHCHC3HC3H3CH4NC9H14C3H5SHC2H3CH3CH3SC2HSH4CNC9H12NH2CH4CFeH5C4H2SHFeCSFeS2FeH5CSFeS2FeS2FeCFeS3H2NC2HC2SHC2H2FeHCH5CHC6H4CH3CHCH2C6H9FeSHNSCHFeHSCSNCH2CH2CHC7SHC2H3C2HCH4CH2FeCHSHC3H3CHSHCH2C2H5CHCH3CHC2FeS2FeS2FeSFeS3FeS2FeS2FeSFeS3FeS2FeS2FeSFeS4HFeSCFeS2FeCHSHC2H2CHC3H5C6H4C5H2C6H4C6H5CHCSH2C6H5C4H2SHC3HCHC5H3C3NC3H2CHSC3H3CHCH2NHFeHCH5CH2SH4SCH2C3H2CH2CNC9H4CH2C2H5NC6H10C2HCHSHNHFeCHCH2CHCHNC8H18CH2CH2NC9H10CH3CHNC9H17CHCH2C3H6CNHCNH2C2H3CHC2SH2SCH2CHC4FeS2FeS2FeSFeS2FeS2FeS2FeSFeHS2H2C2HCHCH2C6H5CSH2C2HC5H5SH2SC2HCH2C2SH2C2HC9H4CH4C2SC3H2CHC2H4C2HNC9H14NC9HCH2CHSCH6CH2CH2CHCHSHCH3C2HCH3CNC9H15CNHC2HCHCH2CHFeH2CHCHCH2CHCH2CNCHSHSHCNH3C4H2CHCH2C2NHCH2C3HCH4CHCH6SCH2CHCH3C5SFeCSH3NCSCHFeNFeS2FeS2FeSFeS3FeS4FeSFeS2FeHSHFeS2FeS2C2SHCH2C5HCH3FeHC2SCHCHC2HSCHC5SFeH3SC4NCHC6H4C6H6SCHC2H3C6H5CFeH2C3SCH3C2H2SC3HCHC4HCHCH3CH2C3H2CH2CH2SH2NC4H15FeH2CH4CHCN2H3CHFeHNC6SCH7C2HSH4CH3SCH3C2H2C2FeHCHCHC3HSHC3H4CSHC2H2CH2C3H2CHFeHC2HCH2C2SHCH3CH3CHSHNH2CH4C2H3FeSFeS2FeSFeS3FeSHFeS2FeSFeS3FeCSFeS2HFeSHSFeSFeS2FeS2H2CHFeS3FeSFeCSHC3H2NC2HC2HNHC3HC7H4C9H8CH2C6H5C3HC3SH2C6H4SC2SH4NC9H15C2H2CH3C2HC2H3CH6C3H2FeC2HC2HCH3SC3H3SNC9H14SH5CH2NCH2CH2NHC2H5Fe2H2CSHSCH2C6HSNCH2SCH6NHC5HC4HCHC4H5C3H2C4HC2HC2HNH3C2H5CHC3H3NCH2C2FeSHCH5SH2CNH3CHC2H2C2H2FeH3CHCH2SH2CHSH3FeS2FeSFeS3HCH2CFeSCFeS2FeSFeS4CNH3FeSNHC7H4C6H5CHCH2CNC5HCHCHC6H4SH2C6H4CHCSC2FeH2CH2SHCHC2HC2H3CH2CSNC2HC4HC2H2FeH3C2HCHC2H2C2HFeHFeC2H2CH2CH2NC4HFeC2H2NCHCH2C2SCHSH4C3HCH3NHC2H7SCHCSCH2CH4CH3C3SH4CH2CH2C2HCFeHSCFeCSHC2H3CHS2HC2HCHC2H3CH3NC2HSH2CHSHC2SH6SH4C2HCNH2CHC2HS2HFeS2FeS2FeSFeS3HCHCH4CS2HCH2CS2FeS2FeS2FeSFeS3CH2SCNHFeSC4HFeSHSC2HCH4CH2C6H4C6H4CHC3H2C2HSCHC3HC2H2C6H5CHC2HC2H3CH2C7H6C3HC5HNFeC3H4NHC3H3C2H3CH6NC2H5CHNH2CH3C2HC2NC3H2CH4CH2C3HCH3CH2SH5CHCH3CH2C3H2CH3NH2C10HCH2CNCH4NC7FeH12CHCH3CH3CH2C2H2FeCH4FeSCHFeCH3CHC2H3SCFeSH2SFeSFeSCFe3S2FeCS3FeSCS2FeS2FeSFeS2FeSFeS2FeSFeS3C6H4C6H4C6H4Fe2CHCH2CHC6H5CHC2H5CHC2HC4NC6SH3CH8CSH3CH2SHC4H2C2H2CNH4C2H2C2HC2H5SH3C2HCHCH2CH3FeHC4FeHS3HSHNH2C3HNCHSC2HCHC4H6CH3SC3HFeC4HNHC2HCH2SCHNCHCH2SHCH2C2SCHC2HC2NC9H15C3HC2H5CSHCH2CHS2H5
_chemical_formula_sum              "H3456 N192 Fe384 S768 C2880"
_cell_length_a       73.0821
_cell_length_b       72.8535
_cell_length_c       72.8504
_cell_angle_alpha    75.0746
_cell_angle_beta     75.0345
_cell_angle_gamma    75.0719

_space_group_name_H-M_alt    "P 1"
_space_group_IT_number       1

loop_
  _space_group_symop_operation_xyz
  'x, y, z'

loop_
  _atom_site_type_symbol
  _atom_site_label
  _atom_site_symmetry_multiplicity
  _atom_site_fract_x
  _atom_site_fract_y
  _atom_site_fract_z
  _atom_site_occupancy
  H   H1        1.0  0.17083  0.27282  0.21886  1.0000
  N   N1        1.0  0.13870  0.31166  0.01015  1.0000
  H   H2        1.0  0.21802  0.29494  0.23448  1.0000
  N   N2        1.0  0.03921  0.31871  0.17650  1.0000
  H   H3        1.0  0.20283  0.31888  0.29803  1.0000
  H   H4        1.0  0.18861  0.32554  0.23725  1.0000
  H   H5        1.0  0.23166  0.37461  0.25813  1.0000
  Fe  Fe1       1.0  0.06913  0.29579  0.26487  1.0000
  S   S1        1.0  0.09174  0.27388  0.25010  1.0000
  S   S2        1.0  0.07262  0.30805  0.28895  1.0000
  Fe  Fe2       1.0  0.03914  0.29683  0.24159  1.0000
  S   S3        1.0  0.05934  0.27532  0.22467  1.0000
  S   S4        1.0  0.00880  0.31150  0.23734  1.0000
  Fe  Fe3       1.0  0.06688  0.25953  0.25343  1.0000
  S   S5        1.0  0.06554  0.22821  0.26559  1.0000
  Fe  Fe4       1.0  0.08217  0.29180  0.22273  1.0000
  S   S6        1.0  0.10088  0.30470  0.19485  1.0000
  S   S7        1.0  0.04506  0.27992  0.27050  1.0000
  S   S8        1.0  0.06124  0.31477  0.23744  1.0000
  H   H6        1.0  0.21473  0.35016  0.20625  1.0000
  H   H7        1.0  0.07125  0.24262  0.17937  1.0000
  S   S9        1.0  0.15333  0.32882  0.28221  1.0000
  C   C1        1.0  0.23642  0.29349  0.20652  1.0000
  H   H8        1.0  0.15787  0.28121  0.19974  1.0000
  Fe  Fe5       1.0  0.19333  0.26860  0.12362  1.0000
  S   S10       1.0  0.18838  0.30043  0.11053  1.0000
  S   S11       1.0  0.17176  0.25363  0.14712  1.0000
  Fe  Fe6       1.0  0.20544  0.29148  0.08254  1.0000
  S   S12       1.0  0.20020  0.30517  0.05211  1.0000
  Fe  Fe7       1.0  0.21714  0.29896  0.11728  1.0000
  S   S13       1.0  0.21724  0.31941  0.13597  1.0000
  S   S14       1.0  0.20795  0.25965  0.09508  1.0000
  S   S15       1.0  0.22135  0.26742  0.13159  1.0000
  H   H9        1.0  0.19259  0.41105  0.27961  1.0000
  C   C2        1.0  0.22899  0.32793  0.29697  1.0000
  H   H10       1.0  0.06205  0.32943  0.15394  1.0000
  C   C3        1.0  0.22078  0.32141  0.26941  1.0000
  C   C4        1.0  0.21632  0.32227  0.28906  1.0000
  H   H11       1.0  0.20584  0.42253  0.29910  1.0000
  C   C5        1.0  0.18688  0.34154  0.23494  1.0000
  C   C6        1.0  0.22419  0.44284  0.29111  1.0000
  C   C7        1.0  0.07963  0.21863  0.28327  1.0000
  C   C8        1.0  0.11050  0.21099  0.29305  1.0000
  S   S16       1.0  0.15531  0.41154  0.30633  1.0000
  H   H12       1.0  0.99603  0.25675  0.21815  1.0000
  C   C9        1.0  0.11990  0.28999  0.18150  1.0000
  C   C10       1.0  0.13008  0.29872  0.16366  1.0000
  C   C11       1.0  0.14563  0.28759  0.15274  1.0000
  C   C12       1.0  0.15133  0.26770  0.15975  1.0000
  C   C13       1.0  0.14094  0.25889  0.17748  1.0000
  C   C14       1.0  0.12524  0.27001  0.18836  1.0000
  H   H13       1.0  0.12592  0.31416  0.15822  1.0000
  H   H14       1.0  0.15331  0.29447  0.13899  1.0000
  H   H15       1.0  0.14517  0.24346  0.18290  1.0000
  H   H16       1.0  0.11739  0.26316  0.20207  1.0000
  C   C15       1.0  0.09485  0.31451  0.28646  1.0000
  C   C16       1.0  0.11050  0.30983  0.27154  1.0000
  C   C17       1.0  0.12846  0.31408  0.27053  1.0000
  C   C18       1.0  0.13078  0.32323  0.28428  1.0000
  C   C19       1.0  0.11519  0.32781  0.29928  1.0000
  H   H17       1.0  0.12264  0.33544  0.23069  1.0000
  H   H18       1.0  0.10880  0.30281  0.26087  1.0000
  H   H19       1.0  0.14057  0.31027  0.25907  1.0000
  C   C20       1.0  0.23401  0.04722  0.30641  1.0000
  C   C21       1.0  0.21918  0.29244  0.22011  1.0000
  H   H20       1.0  0.20663  0.25823  0.17621  1.0000
  C   C22       1.0  0.00182  0.28030  0.22720  1.0000
  C   C23       1.0  0.04540  0.32495  0.19137  1.0000
  H   H21       1.0  0.17493  0.34675  0.24653  1.0000
  H   H22       1.0  0.23093  0.25544  0.04184  1.0000
  H   H23       1.0  0.14877  0.34466  0.23890  1.0000
  H   H24       1.0  0.01683  0.27360  0.22733  1.0000
  C   C24       1.0  0.07135  0.20928  0.30168  1.0000
  H   H25       1.0  0.21072  0.31730  0.26341  1.0000
  H   H26       1.0  0.20403  0.41515  0.25441  1.0000
  H   H27       1.0  0.17579  0.38057  0.19944  1.0000
  H   H28       1.0  0.15066  0.45263  0.30225  1.0000
  H   H29       1.0  0.14000  0.31676  0.03773  1.0000
  H   H30       1.0  0.01196  0.31924  0.16969  1.0000
  H   H31       1.0  0.22481  0.28371  0.16853  1.0000
  S   S17       1.0  0.17950  0.35975  0.29740  1.0000
  C   C25       1.0  0.99235  0.24176  0.27643  1.0000
  C   C26       1.0  0.19311  0.26999  0.01133  1.0000
  C   C27       1.0  0.19073  0.26232  0.03137  1.0000
  C   C28       1.0  0.19297  0.27287  0.04406  1.0000
  C   C29       1.0  0.19774  0.29114  0.03675  1.0000
  C   C30       1.0  0.20027  0.29873  0.01669  1.0000
  C   C31       1.0  0.19796  0.28823  0.00402  1.0000
  C   C32       1.0  0.13688  0.33505  0.20103  1.0000
  H   H32       1.0  0.19076  0.26696  0.05950  1.0000
  H   H33       1.0  0.20406  0.31282  0.01091  1.0000
  H   H34       1.0  0.09202  0.26685  0.17073  1.0000
  H   H35       1.0  0.10855  0.31126  0.02225  1.0000
  H   H36       1.0  0.04090  0.31613  0.20602  1.0000
  C   C33       1.0  0.06801  0.29119  0.17281  1.0000
  H   H37       1.0  0.13622  0.29759  0.98820  1.0000
  H   H38       1.0  0.11497  0.33446  0.01835  1.0000
  H   H39       1.0  0.05079  0.13944  0.29479  1.0000
  H   H40       1.0  0.05615  0.20899  0.30521  1.0000
  H   H41       1.0  0.18863  0.12040  0.30202  1.0000
  H   H42       1.0  0.02185  0.24244  0.27584  1.0000
  C   C34       1.0  0.16872  0.34295  0.19122  1.0000
  C   C35       1.0  0.15330  0.33801  0.18677  1.0000
  H   H43       1.0  0.20000  0.34440  0.23786  1.0000
  H   H44       1.0  0.03936  0.34601  0.15598  1.0000
  S   S18       1.0  0.23378  0.29333  0.08801  1.0000
  C   C36       1.0  0.01770  0.32338  0.18046  1.0000
  H   H45       1.0  0.16559  0.32878  0.01835  1.0000
  H   H46       1.0  0.13454  0.29387  0.03913  1.0000
  H   H47       1.0  0.04278  0.32523  0.14544  1.0000
  C   C37       1.0  0.20266  0.34721  0.20141  1.0000
  H   H48       1.0  0.15775  0.28815  0.99771  1.0000
  H   H49       1.0  0.22500  0.33234  0.16613  1.0000
  C   C38       1.0  0.23821  0.29021  0.18808  1.0000
  C   C39       1.0  0.15087  0.34247  0.22430  1.0000
  H   H50       1.0  0.03558  0.25318  0.18665  1.0000
  H   H51       1.0  0.15865  0.29737  0.02914  1.0000
  H   H52       1.0  0.18952  0.37804  0.21756  1.0000
  H   H53       1.0  0.15399  0.33661  0.17211  1.0000
  H   H54       1.0  0.20270  0.35652  0.18667  1.0000
  C   C40       1.0  0.09913  0.21985  0.27905  1.0000
  C   C41       1.0  0.22185  0.38432  0.29239  1.0000
  H   H55       1.0  0.10554  0.22715  0.26481  1.0000
  H   H56       1.0  0.01362  0.18577  0.28307  1.0000
  H   H57       1.0  0.20668  0.33171  0.20019  1.0000
  H   H58       1.0  0.03886  0.34040  0.19211  1.0000
  C   C42       1.0  0.00915  0.22533  0.30258  1.0000
  N   N3        1.0  0.18377  0.35134  0.21506  1.0000
  C   C43       1.0  0.04616  0.33032  0.15712  1.0000
  H   H59       1.0  0.19974  0.29434  0.98861  1.0000
  H   H60       1.0  0.01180  0.33915  0.17999  1.0000
  C   C44       1.0  0.14202  0.29434  0.00162  1.0000
  H   H61       1.0  0.16445  0.37639  0.22471  1.0000
  H   H62       1.0  0.23741  0.39698  0.24365  1.0000
  C   C45       1.0  0.11794  0.32114  0.01235  1.0000
  C   C46       1.0  0.16811  0.34504  0.21029  1.0000
  H   H63       1.0  0.18687  0.24825  0.03713  1.0000
  C   C47       1.0  0.04762  0.29782  0.17697  1.0000
  H   H64       1.0  0.01149  0.31592  0.19527  1.0000
  C   C48       1.0  0.04464  0.26386  0.18264  1.0000
  H   H65       1.0  0.02049  0.28703  0.18549  1.0000
  C   C49       1.0  0.17532  0.34497  0.99054  1.0000
  C   C50       1.0  0.17816  0.37253  0.21415  1.0000
  H   H66       1.0  0.99296  0.25091  0.26210  1.0000
  C   C51       1.0  0.14318  0.30470  0.02987  1.0000
  C   C52       1.0  0.05248  0.14531  0.30681  1.0000
  C   C53       1.0  0.21868  0.42652  0.28923  1.0000
  C   C54       1.0  0.99419  0.29855  0.23196  1.0000
  H   H67       1.0  0.18087  0.34531  0.17939  1.0000
  H   H68       1.0  0.13552  0.16193  0.30232  1.0000
  H   H69       1.0  0.06807  0.14561  0.30472  1.0000
  C   C55       1.0  0.09727  0.32339  0.30040  1.0000
  H   H70       1.0  0.22835  0.46557  0.23217  1.0000
  C   C56       1.0  0.23290  0.47927  0.22574  1.0000
  C   C57       1.0  0.20383  0.40432  0.26835  1.0000
  N   N4        1.0  0.18851  0.28118  0.19053  1.0000
  C   C58       1.0  0.18515  0.29446  0.17192  1.0000
  C   C59       1.0  0.19346  0.26090  0.18771  1.0000
  C   C60       1.0  0.16997  0.28358  0.20500  1.0000
  C   C61       1.0  0.20478  0.28526  0.19641  1.0000
  C   C62       1.0  0.22271  0.28605  0.18308  1.0000
  C   C63       1.0  0.20350  0.28838  0.21525  1.0000
  H   H71       1.0  0.07773  0.30111  0.16933  1.0000
  N   N5        1.0  0.22318  0.39830  0.27344  1.0000
  H   H72       1.0  0.03957  0.19360  0.28926  1.0000
  H   H73       1.0  0.19627  0.29038  0.15925  1.0000
  H   H74       1.0  0.17119  0.29438  0.16865  1.0000
  H   H75       1.0  0.18531  0.30966  0.17195  1.0000
  H   H76       1.0  0.19619  0.25037  0.20128  1.0000
  H   H77       1.0  0.11316  0.32556  0.99825  1.0000
  H   H78       1.0  0.18162  0.25725  0.18313  1.0000
  H   H79       1.0  0.16562  0.29847  0.20804  1.0000
  H   H80       1.0  0.02194  0.22207  0.30868  1.0000
  H   H81       1.0  0.19059  0.28780  0.22647  1.0000
  H   H82       1.0  0.06136  0.32337  0.18869  1.0000
  H   H83       1.0  0.10021  0.27621  0.30542  1.0000
  C   C64       1.0  0.06471  0.25788  0.17854  1.0000
  H   H84       1.0  0.21574  0.45078  0.30235  1.0000
  C   C65       1.0  0.15054  0.32550  0.99716  1.0000
  S   S19       1.0  0.18923  0.25679  0.99598  1.0000
  C   C66       1.0  0.13564  0.33736  0.21972  1.0000
  C   C67       1.0  0.16304  0.14189  0.30056  1.0000
  C   C68       1.0  0.16365  0.33273  0.00353  1.0000
  H   H85       1.0  0.21838  0.06508  0.28457  1.0000
  H   H86       1.0  0.19867  0.39174  0.26692  1.0000
  H   H87       1.0  0.13514  0.28257  0.01180  1.0000
  H   H88       1.0  0.16972  0.15058  0.28728  1.0000
  H   H89       1.0  0.12495  0.33119  0.19754  1.0000
  H   H90       1.0  0.12568  0.21158  0.28968  1.0000
  C   C69       1.0  0.03611  0.28351  0.18189  1.0000
  C   C70       1.0  0.07637  0.27152  0.17362  1.0000
  C   C71       1.0  0.00902  0.23692  0.28413  1.0000
  C   C72       1.0  0.23242  0.05951  0.28843  1.0000
  C   C73       1.0  0.01954  0.16395  0.30919  1.0000
  C   C74       1.0  0.14374  0.14827  0.30893  1.0000
  Fe  Fe8       1.0  0.23549  0.26182  0.10181  1.0000
  H   H91       1.0  0.06305  0.17858  0.28844  1.0000
  H   H92       1.0  0.18565  0.34984  0.99556  1.0000
  C   C75       1.0  0.00812  0.17546  0.29552  1.0000
  C   C76       1.0  0.98893  0.17393  0.29769  1.0000
  C   C77       1.0  0.04761  0.17836  0.28951  1.0000
  Fe  Fe9       1.0  0.15692  0.34167  0.30589  1.0000
  C   C78       1.0  0.10227  0.20115  0.31129  1.0000
  H   H93       1.0  0.23570  0.38038  0.29755  1.0000
  H   H94       1.0  0.12142  0.24605  0.30617  1.0000
  C   C79       1.0  0.22939  0.41562  0.27491  1.0000
  H   H95       1.0  0.04701  0.17407  0.27611  1.0000
  H   H96       1.0  0.21847  0.37056  0.29148  1.0000
  C   C80       1.0  0.17378  0.12447  0.30930  1.0000
  C   C81       1.0  0.23653  0.38778  0.25855  1.0000
  H   H97       1.0  0.21018  0.39000  0.30397  1.0000
  N   N6        1.0  0.03997  0.16486  0.30732  1.0000
  H   H98       1.0  0.11686  0.33494  0.30987  1.0000
  H   H99       1.0  0.23758  0.25841  0.00861  1.0000
  H   H100      1.0  0.23788  0.26424  0.05914  1.0000
  C   C82       1.0  0.23784  0.32644  0.25753  1.0000
  H   H101      1.0  0.08520  0.32696  0.31201  1.0000
  C   C83       1.0  0.99003  0.27081  0.22196  1.0000
  C   C84       1.0  0.23801  0.33152  0.15498  1.0000
  H   H102      1.0  0.08613  0.24812  0.31032  1.0000
  C   C85       1.0  0.09672  0.22666  0.38362  1.0000
  S   S20       1.0  0.19445  0.27348  0.61697  1.0000
  C   C86       1.0  0.08850  0.26095  0.38324  1.0000
  S   S21       1.0  0.14830  0.28060  0.61760  1.0000
  C   C87       1.0  0.19645  0.13448  0.45444  1.0000
  Fe  Fe10      1.0  0.17597  0.26439  0.60183  1.0000
  S   S22       1.0  0.18521  0.26684  0.56915  1.0000
  N   N7        1.0  0.09969  0.25344  0.33103  1.0000
  C   C88       1.0  0.17537  0.09628  0.35719  1.0000
  S   S23       1.0  0.17446  0.23589  0.62250  1.0000
  Fe  Fe11      1.0  0.21862  0.99639  0.38722  1.0000
  H   H103      1.0  0.13399  0.47658  0.35971  1.0000
  Fe  Fe12      1.0  0.14883  0.34477  0.34812  1.0000
  H   H104      1.0  0.19119  0.13035  0.47039  1.0000
  S   S24       1.0  0.12727  0.34083  0.37640  1.0000
  H   H105      1.0  0.21493  0.18478  0.56444  1.0000
  C   C89       1.0  0.16427  0.42515  0.31761  1.0000
  H   H106      1.0  0.22216  0.20463  0.59483  1.0000
  H   H107      1.0  0.13624  0.29595  0.56852  1.0000
  S   S25       1.0  0.17125  0.36253  0.34329  1.0000
  H   H108      1.0  0.22711  0.24858  0.55613  1.0000
  H   H109      1.0  0.11565  0.30290  0.51242  1.0000
  Fe  Fe13      1.0  0.19716  0.03694  0.39365  1.0000
  S   S26       1.0  0.22020  0.01477  0.40719  1.0000
  S   S27       1.0  0.17522  0.05745  0.41092  1.0000
  C   C90       1.0  0.09987  0.23053  0.36338  1.0000
  H   H110      1.0  0.19299  0.15060  0.44985  1.0000
  C   C91       1.0  0.13374  0.25597  0.50850  1.0000
  S   S28       1.0  0.19344  0.01743  0.37603  1.0000
  Fe  Fe14      1.0  0.09164  0.13573  0.37951  1.0000
  S   S29       1.0  0.06746  0.14891  0.40163  1.0000
  S   S30       1.0  0.10131  0.10435  0.37704  1.0000
  Fe  Fe15      1.0  0.09841  0.17461  0.35525  1.0000
  S   S31       1.0  0.07501  0.19104  0.37493  1.0000
  C   C92       1.0  0.04185  0.17133  0.32432  1.0000
  Fe  Fe16      1.0  0.08730  0.16919  0.39891  1.0000
  S   S32       1.0  0.09037  0.18092  0.42374  1.0000
  Fe  Fe17      1.0  0.05731  0.16967  0.37573  1.0000
  S   S33       1.0  0.02699  0.18280  0.36999  1.0000
  S   S34       1.0  0.11216  0.15420  0.37892  1.0000
  S   S35       1.0  0.07999  0.15500  0.35390  1.0000
  Fe  Fe18      1.0  0.17465  0.20988  0.45034  1.0000
  S   S36       1.0  0.18279  0.23782  0.43251  1.0000
  S   S37       1.0  0.17166  0.18945  0.43297  1.0000
  Fe  Fe19      1.0  0.17686  0.21940  0.48858  1.0000
  S   S38       1.0  0.18451  0.24802  0.47327  1.0000
  S   S39       1.0  0.17501  0.20959  0.52121  1.0000
  Fe  Fe20      1.0  0.16203  0.25119  0.45621  1.0000
  S   S40       1.0  0.13844  0.27790  0.45315  1.0000
  Fe  Fe21      1.0  0.20446  0.23154  0.45129  1.0000
  H   H111      1.0  0.21044  0.09937  0.44862  1.0000
  S   S41       1.0  0.15244  0.22361  0.47323  1.0000
  S   S42       1.0  0.19818  0.20253  0.46743  1.0000
  H   H112      1.0  0.04912  0.13464  0.32055  1.0000
  S   S43       1.0  0.18817  0.46106  0.34571  1.0000
  C   C93       1.0  0.13201  0.46174  0.36306  1.0000
  C   C94       1.0  0.11297  0.18462  0.42494  1.0000
  C   C95       1.0  0.13019  0.17674  0.41336  1.0000
  C   C96       1.0  0.14807  0.17856  0.41580  1.0000
  C   C97       1.0  0.14885  0.18858  0.42957  1.0000
  C   C98       1.0  0.13161  0.19718  0.44059  1.0000
  C   C99       1.0  0.11373  0.19507  0.43837  1.0000
  H   H113      1.0  0.12981  0.16856  0.40308  1.0000
  H   H114      1.0  0.16133  0.17185  0.40723  1.0000
  H   H115      1.0  0.13204  0.20487  0.45129  1.0000
  H   H116      1.0  0.10045  0.20118  0.44740  1.0000
  H   H117      1.0  0.13476  0.25835  0.49260  1.0000
  H   H118      1.0  0.23746  0.15526  0.57727  1.0000
  H   H119      1.0  0.12900  0.12052  0.43334  1.0000
  C   C100      1.0  0.08262  0.20062  0.31571  1.0000
  H   H120      1.0  0.16158  0.15083  0.46601  1.0000
  C   C101      1.0  0.12567  0.13967  0.45246  1.0000
  H   H121      1.0  0.09839  0.21178  0.39167  1.0000
  C   C102      1.0  0.15424  0.06981  0.40202  1.0000
  C   C103      1.0  0.14760  0.06261  0.38947  1.0000
  C   C104      1.0  0.13091  0.07303  0.38239  1.0000
  C   C105      1.0  0.12124  0.09096  0.38728  1.0000
  C   C106      1.0  0.12794  0.09819  0.39976  1.0000
  C   C107      1.0  0.14423  0.08746  0.40734  1.0000
  H   H122      1.0  0.15512  0.04889  0.38548  1.0000
  H   H123      1.0  0.12560  0.06729  0.37292  1.0000
  H   H124      1.0  0.12042  0.11191  0.40374  1.0000
  H   H125      1.0  0.14924  0.09289  0.41719  1.0000
  H   H126      1.0  0.08388  0.27274  0.39104  1.0000
  H   H127      1.0  0.23735  0.21293  0.50022  1.0000
  C   C108      1.0  0.11839  0.29603  0.37289  1.0000
  H   H128      1.0  0.10384  0.21820  0.35644  1.0000
  C   C109      1.0  0.22660  0.17754  0.55451  1.0000
  C   C110      1.0  0.17885  0.44759  0.33462  1.0000
  C   C111      1.0  0.18340  0.42724  0.33949  1.0000
  C   C112      1.0  0.17607  0.41605  0.33110  1.0000
  H   H129      1.0  0.99468  0.15096  0.42224  1.0000
  C   C113      1.0  0.13296  0.27126  0.53549  1.0000
  H   H130      1.0  0.19258  0.42013  0.34987  1.0000
  H   H131      1.0  0.17984  0.40044  0.33488  1.0000
  C   C114      1.0  0.13183  0.32283  0.39703  1.0000
  C   C115      1.0  0.11716  0.32261  0.41370  1.0000
  C   C116      1.0  0.11959  0.30871  0.43060  1.0000
  C   C117      1.0  0.13668  0.29471  0.43110  1.0000
  C   C118      1.0  0.15151  0.29466  0.41439  1.0000
  C   C119      1.0  0.14908  0.30880  0.39729  1.0000
  H   H132      1.0  0.10378  0.33331  0.41359  1.0000
  H   H133      1.0  0.10809  0.30884  0.44340  1.0000
  H   H134      1.0  0.16487  0.28400  0.41475  1.0000
  H   H135      1.0  0.16048  0.30887  0.38441  1.0000
  H   H136      1.0  0.20894  0.22909  0.59365  1.0000
  H   H137      1.0  0.11870  0.31254  0.34378  1.0000
  Fe  Fe22      1.0  0.19101  0.24597  0.63878  1.0000
  H   H138      1.0  0.16435  0.27164  0.50701  1.0000
  H   H139      1.0  0.22438  0.08905  0.41606  1.0000
  C   C120      1.0  0.14202  0.42783  0.37746  1.0000
  C   C121      1.0  0.01043  0.15123  0.32515  1.0000
  C   C122      1.0  0.13507  0.14791  0.46166  1.0000
  H   H140      1.0  0.08829  0.23863  0.40930  1.0000
  H   H141      1.0  0.20510  0.07694  0.33580  1.0000
  C   C123      1.0  0.00997  0.16849  0.37246  1.0000
  C   C124      1.0  0.01379  0.14848  0.37972  1.0000
  C   C125      1.0  0.99961  0.13767  0.38214  1.0000
  H   H142      1.0  0.16430  0.11192  0.42856  1.0000
  H   H143      1.0  0.99315  0.20872  0.32738  1.0000
  H   H144      1.0  0.02750  0.14139  0.38388  1.0000
  H   H145      1.0  0.00251  0.12224  0.38813  1.0000
  C   C126      1.0  0.18311  0.24998  0.55650  1.0000
  C   C127      1.0  0.17517  0.23360  0.56592  1.0000
  C   C128      1.0  0.17312  0.22106  0.55503  1.0000
  C   C129      1.0  0.17899  0.22479  0.53470  1.0000
  C   C130      1.0  0.18784  0.24057  0.52549  1.0000
  C   C131      1.0  0.18975  0.25316  0.53630  1.0000
  H   H146      1.0  0.17011  0.23090  0.58151  1.0000
  H   H147      1.0  0.16648  0.20873  0.56235  1.0000
  H   H148      1.0  0.19315  0.24321  0.50999  1.0000
  H   H149      1.0  0.19623  0.26559  0.52893  1.0000
  C   C132      1.0  0.09101  0.24181  0.39356  1.0000
  Fe  Fe23      1.0  0.15964  0.37897  0.31678  1.0000
  S   S44       1.0  0.13571  0.36275  0.32273  1.0000
  C   C133      1.0  0.08471  0.24606  0.32630  1.0000
  H   H150      1.0  0.12666  0.15837  0.47045  1.0000
  C   C134      1.0  0.14391  0.44715  0.37372  1.0000
  C   C135      1.0  0.22044  0.21931  0.58528  1.0000
  H   H151      1.0  0.15209  0.41730  0.38538  1.0000
  C   C136      1.0  0.13501  0.13713  0.32589  1.0000
  C   C137      1.0  0.13119  0.26698  0.57577  1.0000
  C   C138      1.0  0.12892  0.25181  0.56878  1.0000
  H   H152      1.0  0.22502  0.16727  0.49814  1.0000
  S   S45       1.0  0.21816  0.05142  0.36977  1.0000
  H   H153      1.0  0.03180  0.18540  0.32614  1.0000
  C   C139      1.0  0.16667  0.13019  0.44699  1.0000
  H   H154      1.0  0.21829  0.19757  0.52997  1.0000
  H   H155      1.0  0.18344  0.08287  0.36535  1.0000
  S   S46       1.0  0.21300  0.04130  0.32247  1.0000
  H   H156      1.0  0.16881  0.07632  0.32259  1.0000
  H   H157      1.0  0.23544  0.23620  0.60537  1.0000
  H   H158      1.0  0.19924  0.08768  0.31276  1.0000
  Fe  Fe24      1.0  0.14833  0.25265  0.63953  1.0000
  C   C140      1.0  0.15659  0.12198  0.43793  1.0000
  C   C141      1.0  0.12992  0.25374  0.54895  1.0000
  H   H159      1.0  0.08553  0.23032  0.33245  1.0000
  H   H160      1.0  0.21257  0.13014  0.45166  1.0000
  H   H161      1.0  0.11005  0.14372  0.45411  1.0000
  H   H162      1.0  0.12689  0.23825  0.57876  1.0000
  H   H163      1.0  0.13686  0.30040  0.53401  1.0000
  H   H164      1.0  0.14391  0.28779  0.32878  1.0000
  H   H165      1.0  0.23584  0.19692  0.44097  1.0000
  H   H166      1.0  0.12025  0.25037  0.51546  1.0000
  H   H167      1.0  0.05678  0.17319  0.32304  1.0000
  Fe  Fe25      1.0  0.16665  0.28676  0.63493  1.0000
  H   H168      1.0  0.20460  0.10224  0.32683  1.0000
  S   S47       1.0  0.22148  0.33265  0.32042  1.0000
  H   H169      1.0  0.21344  0.37332  0.63560  1.0000
  H   H170      1.0  0.13796  0.11157  0.34779  1.0000
  C   C142      1.0  0.09157  0.26502  0.36294  1.0000
  H   H171      1.0  0.16033  0.09826  0.36577  1.0000
  H   H172      1.0  0.19219  0.12328  0.41358  1.0000
  H   H173      1.0  0.10881  0.46857  0.34787  1.0000
  H   H174      1.0  0.13074  0.24803  0.32605  1.0000
  H   H175      1.0  0.21245  0.12786  0.41970  1.0000
  H   H176      1.0  0.18134  0.10876  0.35748  1.0000
  C   C143      1.0  0.11790  0.45716  0.35633  1.0000
  H   H177      1.0  0.21833  0.20197  0.49873  1.0000
  H   H178      1.0  0.19595  0.40865  0.63043  1.0000
  C   C144      1.0  0.09729  0.24983  0.35238  1.0000
  C   C145      1.0  0.19722  0.09040  0.32759  1.0000
  H   H179      1.0  0.01796  0.14237  0.33642  1.0000
  C   C146      1.0  0.16701  0.45668  0.32118  1.0000
  H   H180      1.0  0.23125  0.06161  0.39951  1.0000
  H   H181      1.0  0.15517  0.45080  0.37852  1.0000
  H   H182      1.0  0.19136  0.14690  0.41754  1.0000
  C   C147      1.0  0.13640  0.12673  0.44062  1.0000
  S   S48       1.0  0.16816  0.32229  0.33174  1.0000
  H   H183      1.0  0.23670  0.20719  0.47800  1.0000
  C   C148      1.0  0.13480  0.28657  0.54321  1.0000
  H   H184      1.0  0.03862  0.16073  0.33814  1.0000
  C   C149      1.0  0.11619  0.28851  0.50948  1.0000
  H   H185      1.0  0.14096  0.39869  0.34574  1.0000
  H   H186      1.0  0.10265  0.28368  0.51806  1.0000
  C   C150      1.0  0.99283  0.21802  0.31315  1.0000
  C   C151      1.0  0.99210  0.17751  0.36716  1.0000
  H   H187      1.0  0.12001  0.14215  0.33239  1.0000
  C   C152      1.0  0.11570  0.43793  0.36018  1.0000
  N   N8        1.0  0.13350  0.27406  0.51448  1.0000
  H   H188      1.0  0.10774  0.30728  0.37935  1.0000
  N   N9        1.0  0.15064  0.24683  0.38882  1.0000
  C   C153      1.0  0.14937  0.22920  0.38298  1.0000
  C   C154      1.0  0.17135  0.24732  0.38606  1.0000
  C   C155      1.0  0.14207  0.24476  0.40993  1.0000
  C   C156      1.0  0.14106  0.26452  0.37671  1.0000
  C   C157      1.0  0.12650  0.27912  0.38477  1.0000
  C   C158      1.0  0.14690  0.26802  0.35614  1.0000
  Fe  Fe26      1.0  0.18935  0.34189  0.32437  1.0000
  C   C159      1.0  0.13877  0.28506  0.34442  1.0000
  H   H189      1.0  0.17578  0.06425  0.34527  1.0000
  H   H190      1.0  0.15712  0.22839  0.36787  1.0000
  H   H191      1.0  0.15596  0.21568  0.39232  1.0000
  H   H192      1.0  0.13405  0.22853  0.38429  1.0000
  H   H193      1.0  0.17913  0.24796  0.37072  1.0000
  H   H194      1.0  0.17917  0.23413  0.39477  1.0000
  H   H195      1.0  0.17299  0.26026  0.39052  1.0000
  H   H196      1.0  0.12646  0.24423  0.41308  1.0000
  H   H197      1.0  0.14932  0.23110  0.41854  1.0000
  H   H198      1.0  0.14372  0.25676  0.41587  1.0000
  H   H199      1.0  0.12147  0.27816  0.40022  1.0000
  H   H200      1.0  0.15829  0.25790  0.34897  1.0000
  S   S49       1.0  0.23440  0.23742  0.44095  1.0000
  C   C160      1.0  0.19633  0.13101  0.42270  1.0000
  C   C161      1.0  0.19447  0.10371  0.44978  1.0000
  N   N10       1.0  0.12543  0.40231  0.37424  1.0000
  C   C162      1.0  0.10611  0.40048  0.38655  1.0000
  C   C163      1.0  0.12689  0.39687  0.35558  1.0000
  C   C164      1.0  0.14018  0.38789  0.38413  1.0000
  C   C165      1.0  0.12786  0.42260  0.37066  1.0000
  H   H201      1.0  0.09420  0.40966  0.37934  1.0000
  H   H202      1.0  0.10400  0.38523  0.38989  1.0000
  H   H203      1.0  0.10421  0.40490  0.40057  1.0000
  H   H204      1.0  0.11538  0.40572  0.34771  1.0000
  H   H205      1.0  0.12573  0.38149  0.35771  1.0000
  H   H206      1.0  0.07601  0.19380  0.33003  1.0000
  H   H207      1.0  0.13920  0.39022  0.39889  1.0000
  H   H208      1.0  0.13829  0.37274  0.38611  1.0000
  H   H209      1.0  0.15509  0.38841  0.37546  1.0000
  H   H210      1.0  0.10453  0.43516  0.35465  1.0000
  H   H211      1.0  0.14640  0.24443  0.51203  1.0000
  C   C166      1.0  0.15527  0.14339  0.45896  1.0000
  H   H212      1.0  0.12860  0.24116  0.54456  1.0000
  H   H213      1.0  0.11598  0.29082  0.49376  1.0000
  C   C167      1.0  0.23410  0.20194  0.49405  1.0000
  H   H214      1.0  0.19095  0.09545  0.44072  1.0000
  C   C168      1.0  0.16799  0.07817  0.33751  1.0000
  Fe  Fe27      1.0  0.21662  0.03013  0.35328  1.0000
  H   H215      1.0  0.13088  0.26521  0.59108  1.0000
  N   N11       1.0  0.18808  0.12503  0.44366  1.0000
  H   H216      1.0  0.15094  0.29617  0.50420  1.0000
  H   H217      1.0  0.15245  0.28233  0.48691  1.0000
  C   C169      1.0  0.12457  0.29906  0.35280  1.0000
  H   H218      1.0  0.15255  0.07991  0.34505  1.0000
  H   H219      1.0  0.08908  0.28016  0.35589  1.0000
  C   C170      1.0  0.22180  0.17938  0.63384  1.0000
  H   H220      1.0  0.21490  0.21858  0.57267  1.0000
  N   N12       1.0  0.17642  0.09481  0.33697  1.0000
  H   H221      1.0  0.18756  0.09851  0.46513  1.0000
  C   C171      1.0  0.13416  0.28431  0.56301  1.0000
  C   C172      1.0  0.15104  0.28136  0.50273  1.0000
  C   C173      1.0  0.16538  0.11294  0.32687  1.0000
  H   H222      1.0  0.98899  0.19302  0.36177  1.0000
  H   H223      1.0  0.21257  0.17245  0.62958  1.0000
  C   C174      1.0  0.11912  0.24327  0.32230  1.0000
  S   S50       1.0  0.11631  0.19011  0.32885  1.0000
  C   C175      1.0  0.18587  0.40392  0.64422  1.0000
  H   H224      1.0  0.12127  0.22729  0.32714  1.0000
  H   H225      1.0  0.22387  0.25641  0.57810  1.0000
  C   C176      1.0  0.14553  0.11968  0.33469  1.0000
  C   C177      1.0  0.99134  0.14969  0.32702  1.0000
  H   H226      1.0  0.19947  0.20429  0.63887  1.0000
  H   H227      1.0  0.19973  0.14081  0.63643  1.0000
  H   H228      1.0  0.17462  0.39847  0.64056  1.0000
  C   C178      1.0  0.21441  0.19749  0.63892  1.0000
  C   C179      1.0  0.22877  0.18480  0.53450  1.0000
  C   C180      1.0  0.23424  0.24705  0.56839  1.0000
  H   H229      1.0  0.06988  0.25368  0.33223  1.0000
  C   C181      1.0  0.22612  0.20631  0.64482  1.0000
  H   H230      1.0  0.10850  0.28096  0.32442  1.0000
  H   H231      1.0  0.16329  0.47234  0.31740  1.0000
  C   C182      1.0  0.09778  0.27426  0.32148  1.0000
  H   H232      1.0  0.08295  0.28279  0.32597  1.0000
  H   H233      1.0  0.99767  0.18525  0.41279  1.0000
  S   S51       1.0  0.15897  0.31491  0.64557  1.0000
  C   C183      1.0  0.15981  0.44548  0.31265  1.0000
  H   H234      1.0  0.05141  0.24902  0.80259  1.0000
  C   C184      1.0  0.21712  0.43909  0.79772  1.0000
  C   C185      1.0  0.15752  0.08442  0.69812  1.0000
  H   H235      1.0  0.19587  0.42999  0.76459  1.0000
  H   H236      1.0  0.15583  0.21696  0.66313  1.0000
  H   H237      1.0  0.09546  0.21579  0.67395  1.0000
  C   C186      1.0  0.11000  0.20878  0.67592  1.0000
  Fe  Fe28      1.0  0.21249  0.02224  0.76105  1.0000
  S   S52       1.0  0.18509  0.03475  0.78024  1.0000
  S   S53       1.0  0.21448  0.01397  0.73287  1.0000
  Fe  Fe29      1.0  0.06977  0.13873  0.72460  1.0000
  S   S54       1.0  0.07047  0.11959  0.75402  1.0000
  S   S55       1.0  0.04459  0.14620  0.70935  1.0000
  Fe  Fe30      1.0  0.11099  0.14523  0.71935  1.0000
  S   S56       1.0  0.11470  0.12648  0.74828  1.0000
  S   S57       1.0  0.13750  0.15680  0.70232  1.0000
  Fe  Fe31      1.0  0.10085  0.10631  0.74045  1.0000
  S   S58       1.0  0.11362  0.07477  0.73963  1.0000
  Fe  Fe32      1.0  0.08433  0.14187  0.75863  1.0000
  S   S59       1.0  0.07542  0.15597  0.78449  1.0000
  S   S60       1.0  0.09922  0.12404  0.71060  1.0000
  S   S61       1.0  0.08152  0.16204  0.73013  1.0000
  Fe  Fe33      1.0  0.19776  0.30588  0.93257  1.0000
  S   S62       1.0  0.17119  0.29562  0.95103  1.0000
  S   S63       1.0  0.19920  0.33743  0.92495  1.0000
  Fe  Fe34      1.0  0.17410  0.27914  0.92781  1.0000
  S   S64       1.0  0.14707  0.28162  0.91674  1.0000
  S   S65       1.0  0.19910  0.29155  0.90841  1.0000
  Fe  Fe35      1.0  0.20552  0.34734  0.71592  1.0000
  S   S66       1.0  0.17608  0.36243  0.72934  1.0000
  H   H238      1.0  0.16362  0.07712  0.68555  1.0000
  C   C187      1.0  0.14403  0.20944  0.66967  1.0000
  S   S67       1.0  0.19855  0.37928  0.75356  1.0000
  H   H239      1.0  0.18476  0.44515  0.78205  1.0000
  Fe  Fe36      1.0  0.18722  0.35252  0.75709  1.0000
  S   S68       1.0  0.17244  0.33785  0.78625  1.0000
  Fe  Fe37      1.0  0.19034  0.38779  0.72456  1.0000
  S   S69       1.0  0.17782  0.41933  0.71431  1.0000
  S   S70       1.0  0.21568  0.33555  0.74406  1.0000
  S   S71       1.0  0.21889  0.37350  0.70876  1.0000
  Fe  Fe38      1.0  0.10446  0.27526  0.79917  1.0000
  S   S72       1.0  0.13307  0.25483  0.79894  1.0000
  S   S73       1.0  0.10375  0.30443  0.77924  1.0000
  Fe  Fe39      1.0  0.08254  0.24607  0.82741  1.0000
  S   S74       1.0  0.10980  0.22318  0.83002  1.0000
  Fe  Fe40      1.0  0.12306  0.24750  0.83135  1.0000
  S   S75       1.0  0.14758  0.24378  0.84689  1.0000
  Fe  Fe41      1.0  0.11764  0.23263  0.79763  1.0000
  S   S76       1.0  0.13011  0.21385  0.77535  1.0000
  S   S77       1.0  0.09513  0.26967  0.83164  1.0000
  S   S78       1.0  0.08977  0.25376  0.79489  1.0000
  C   C188      1.0  0.19239  0.43360  0.71764  1.0000
  C   C189      1.0  0.21098  0.42496  0.72101  1.0000
  C   C190      1.0  0.22271  0.43612  0.72367  1.0000
  H   H240      1.0  0.21650  0.40965  0.72135  1.0000
  H   H241      1.0  0.01017  0.20473  0.84863  1.0000
  C   C191      1.0  0.15239  0.32961  0.78494  1.0000
  C   C192      1.0  0.14719  0.31330  0.79839  1.0000
  C   C193      1.0  0.13174  0.30599  0.79709  1.0000
  C   C194      1.0  0.12161  0.31482  0.78216  1.0000
  C   C195      1.0  0.12646  0.33143  0.76900  1.0000
  C   C196      1.0  0.14181  0.33887  0.77044  1.0000
  H   H242      1.0  0.15543  0.30591  0.80949  1.0000
  H   H243      1.0  0.12789  0.29332  0.80748  1.0000
  H   H244      1.0  0.11845  0.33842  0.75760  1.0000
  H   H245      1.0  0.14534  0.35183  0.76041  1.0000
  H   H246      1.0  0.17119  0.46034  0.71445  1.0000
  C   C197      1.0  0.01305  0.17288  0.75475  1.0000
  C   C198      1.0  0.14731  0.27048  0.89773  1.0000
  C   C199      1.0  0.13009  0.27311  0.89126  1.0000
  C   C200      1.0  0.12989  0.26509  0.87567  1.0000
  C   C201      1.0  0.14692  0.25424  0.86651  1.0000
  C   C202      1.0  0.16414  0.25163  0.87299  1.0000
  C   C203      1.0  0.16437  0.25974  0.88850  1.0000
  H   H247      1.0  0.11681  0.28134  0.89838  1.0000
  H   H248      1.0  0.11654  0.26711  0.87087  1.0000
  H   H249      1.0  0.17736  0.24321  0.86600  1.0000
  H   H250      1.0  0.17771  0.25762  0.89334  1.0000
  C   C204      1.0  0.23181  0.12582  0.69203  1.0000
  H   H251      1.0  0.15982  0.25630  0.75966  1.0000
  C   C205      1.0  0.99340  0.20004  0.76891  1.0000
  C   C206      1.0  0.12526  0.21851  0.66715  1.0000
  H   H252      1.0  0.15705  0.28383  0.77078  1.0000
  H   H253      1.0  0.04060  0.15443  0.85077  1.0000
  N   N13       1.0  0.21279  0.42763  0.78582  1.0000
  H   H254      1.0  0.23662  0.37277  0.65314  1.0000
  H   H255      1.0  0.03079  0.06771  0.73210  1.0000
  S   S79       1.0  0.21837  0.28165  0.94719  1.0000
  H   H256      1.0  0.19434  0.06691  0.69865  1.0000
  C   C207      1.0  0.21586  0.45598  0.72340  1.0000
  C   C208      1.0  0.99459  0.17877  0.83843  1.0000
  H   H257      1.0  0.02458  0.20867  0.81309  1.0000
  C   C209      1.0  0.00604  0.15729  0.80920  1.0000
  H   H258      1.0  0.21887  0.43375  0.67776  1.0000
  H   H259      1.0  0.22246  0.11392  0.65219  1.0000
  S   S80       1.0  0.19266  0.25237  0.94226  1.0000
  C   C210      1.0  0.19112  0.16537  0.71083  1.0000
  C   C211      1.0  0.16173  0.24753  0.73367  1.0000
  H   H260      1.0  0.20978  0.09747  0.74228  1.0000
  C   C212      1.0  0.09086  0.17186  0.78194  1.0000
  C   C213      1.0  0.08829  0.18229  0.79640  1.0000
  C   C214      1.0  0.10018  0.19533  0.79431  1.0000
  C   C215      1.0  0.11517  0.19754  0.77803  1.0000
  C   C216      1.0  0.11795  0.18697  0.76363  1.0000
  C   C217      1.0  0.10568  0.17432  0.76547  1.0000
  H   H261      1.0  0.07732  0.18015  0.80937  1.0000
  H   H262      1.0  0.09795  0.20342  0.80550  1.0000
  H   H263      1.0  0.12959  0.18853  0.75106  1.0000
  H   H264      1.0  0.10787  0.16636  0.75422  1.0000
  C   C218      1.0  0.13240  0.18066  0.68918  1.0000
  C   C219      1.0  0.11357  0.18982  0.68691  1.0000
  C   C220      1.0  0.18557  0.45357  0.71704  1.0000
  C   C221      1.0  0.17841  0.33425  0.68308  1.0000
  H   H265      1.0  0.10183  0.18220  0.69324  1.0000
  C   C222      1.0  0.18278  0.38443  0.67666  1.0000
  C   C223      1.0  0.19723  0.46475  0.72012  1.0000
  H   H266      1.0  0.20475  0.29500  0.74974  1.0000
  C   C224      1.0  0.03393  0.24383  0.83134  1.0000
  H   H267      1.0  0.04321  0.16614  0.75614  1.0000
  C   C225      1.0  0.01033  0.08152  0.71422  1.0000
  S   S81       1.0  0.21299  0.32675  0.69531  1.0000
  C   C226      1.0  0.00645  0.09443  0.69726  1.0000
  C   C227      1.0  0.02931  0.17572  0.75953  1.0000
  C   C228      1.0  0.16552  0.04608  0.76859  1.0000
  C   C229      1.0  0.15275  0.06267  0.77409  1.0000
  C   C230      1.0  0.13686  0.07170  0.76518  1.0000
  C   C231      1.0  0.13339  0.06384  0.75110  1.0000
  C   C232      1.0  0.14600  0.04708  0.74582  1.0000
  C   C233      1.0  0.16219  0.03840  0.75431  1.0000
  H   H268      1.0  0.15516  0.06857  0.78526  1.0000
  H   H269      1.0  0.12709  0.08447  0.76954  1.0000
  H   H270      1.0  0.14331  0.04083  0.73506  1.0000
  H   H271      1.0  0.17176  0.02542  0.75023  1.0000
  H   H272      1.0  0.19343  0.42184  0.67143  1.0000
  C   C234      1.0  0.16667  0.33149  0.67185  1.0000
  C   C235      1.0  0.00893  0.14254  0.70707  1.0000
  C   C236      1.0  0.02303  0.13710  0.71847  1.0000
  C   C237      1.0  0.01958  0.12475  0.73667  1.0000
  H   H273      1.0  0.23394  0.28019  0.87616  1.0000
  C   C238      1.0  0.00006  0.24408  0.83270  1.0000
  H   H274      1.0  0.01141  0.15216  0.69303  1.0000
  H   H275      1.0  0.02998  0.12092  0.74591  1.0000
  H   H276      1.0  0.23733  0.43198  0.76278  1.0000
  C   C239      1.0  0.03717  0.24779  0.81106  1.0000
  S   S82       1.0  0.05300  0.23969  0.84367  1.0000
  C   C240      1.0  0.22898  0.18970  0.94009  1.0000
  H   H277      1.0  0.15396  0.23601  0.74128  1.0000
  H   H278      1.0  0.18068  0.06646  0.72288  1.0000
  C   C241      1.0  0.21561  0.13591  0.70374  1.0000
  C   C242      1.0  0.20778  0.12510  0.72207  1.0000
  H   H279      1.0  0.20061  0.40244  0.78992  1.0000
  C   C243      1.0  0.01526  0.24218  0.84210  1.0000
  C   C244      1.0  0.22540  0.36093  0.91062  1.0000
  C   C245      1.0  0.23269  0.44027  0.82346  1.0000
  H   H280      1.0  0.18801  0.15094  0.68215  1.0000
  H   H281      1.0  0.15207  0.33995  0.67244  1.0000
  H   H282      1.0  0.17989  0.26711  0.77280  1.0000
  H   H283      1.0  0.15741  0.09408  0.73168  1.0000
  H   H284      1.0  0.21752  0.19266  0.95246  1.0000
  H   H285      1.0  0.01259  0.23924  0.85779  1.0000
  H   H286      1.0  0.17676  0.29189  0.77419  1.0000
  C   C246      1.0  0.20432  0.41110  0.79853  1.0000
  C   C247      1.0  0.20434  0.30979  0.67021  1.0000
  H   H287      1.0  0.05380  0.15962  0.82621  1.0000
  H   H288      1.0  0.17851  0.15820  0.71425  1.0000
  H   H289      1.0  0.98902  0.18713  0.84968  1.0000
  S   S83       1.0  0.21696  0.22894  0.65114  1.0000
  H   H290      1.0  0.15208  0.07350  0.71077  1.0000
  N   N14       1.0  0.14759  0.32478  0.85450  1.0000
  C   C248      1.0  0.13754  0.33524  0.83830  1.0000
  C   C249      1.0  0.15753  0.30521  0.85090  1.0000
  C   C250      1.0  0.13235  0.32273  0.87248  1.0000
  C   C251      1.0  0.16210  0.33473  0.85647  1.0000
  C   C252      1.0  0.16976  0.32949  0.87360  1.0000
  C   C253      1.0  0.16988  0.34902  0.84118  1.0000
  C   C254      1.0  0.18322  0.33895  0.87580  1.0000
  C   C255      1.0  0.18349  0.35825  0.84349  1.0000
  C   C256      1.0  0.18997  0.35339  0.86083  1.0000
  H   H291      1.0  0.14754  0.33559  0.82395  1.0000
  H   H292      1.0  0.12612  0.32796  0.83760  1.0000
  H   H293      1.0  0.13055  0.35043  0.83977  1.0000
  H   H294      1.0  0.16872  0.30612  0.83724  1.0000
  H   H295      1.0  0.14723  0.29692  0.84956  1.0000
  H   H296      1.0  0.16488  0.29641  0.86289  1.0000
  H   H297      1.0  0.12570  0.33697  0.87674  1.0000
  H   H298      1.0  0.12060  0.31654  0.87074  1.0000
  H   H299      1.0  0.13788  0.31256  0.88498  1.0000
  H   H300      1.0  0.16552  0.31795  0.88545  1.0000
  H   H301      1.0  0.16579  0.35327  0.82721  1.0000
  H   H302      1.0  0.18841  0.33507  0.88925  1.0000
  H   H303      1.0  0.18909  0.36921  0.83173  1.0000
  H   H304      1.0  0.20038  0.36073  0.86262  1.0000
  H   H305      1.0  0.05664  0.17128  0.84360  1.0000
  C   C257      1.0  0.19886  0.43902  0.77331  1.0000
  H   H306      1.0  0.04707  0.20374  0.82088  1.0000
  H   H307      1.0  0.03458  0.16096  0.80660  1.0000
  H   H308      1.0  0.17034  0.37944  0.67478  1.0000
  H   H309      1.0  0.01045  0.14907  0.79776  1.0000
  H   H310      1.0  0.21698  0.18400  0.68704  1.0000
  H   H311      1.0  0.17332  0.11088  0.72075  1.0000
  H   H312      1.0  0.20419  0.29490  0.82957  1.0000
  N   N15       1.0  0.02933  0.18232  0.83436  1.0000
  H   H313      1.0  0.23141  0.23603  0.94926  1.0000
  H   H314      1.0  0.13932  0.32758  0.97148  1.0000
  C   C258      1.0  0.01453  0.17490  0.82940  1.0000
  C   C259      1.0  0.22247  0.34231  0.92019  1.0000
  C   C260      1.0  0.17411  0.35059  0.97105  1.0000
  C   C261      1.0  0.20334  0.37096  0.64992  1.0000
  H   H315      1.0  0.19014  0.37270  0.68708  1.0000
  Fe  Fe42      1.0  0.19202  0.27000  0.96385  1.0000
  H   H316      1.0  0.19545  0.13144  0.73197  1.0000
  H   H317      1.0  0.15228  0.12496  0.68109  1.0000
  H   H318      1.0  0.21443  0.40074  0.80727  1.0000
  H   H319      1.0  0.20690  0.29203  0.72581  1.0000
  H   H320      1.0  0.04435  0.19030  0.80472  1.0000
  C   C262      1.0  0.23182  0.09613  0.71640  1.0000
  H   H321      1.0  0.17815  0.41703  0.65029  1.0000
  C   C263      1.0  0.17461  0.13427  0.65802  1.0000
  C   C264      1.0  0.21302  0.29876  0.83730  1.0000
  H   H322      1.0  0.22565  0.33066  0.88427  1.0000
  H   H323      1.0  0.01628  0.18162  0.86465  1.0000
  C   C265      1.0  0.20809  0.41369  0.66820  1.0000
  H   H324      1.0  0.99196  0.09806  0.69438  1.0000
  H   H325      1.0  0.00029  0.10715  0.75672  1.0000
  N   N16       1.0  0.10547  0.24251  0.72138  1.0000
  C   C266      1.0  0.09409  0.23742  0.74140  1.0000
  C   C267      1.0  0.09249  0.24509  0.70782  1.0000
  C   C268      1.0  0.12169  0.22586  0.71808  1.0000
  C   C269      1.0  0.11334  0.26023  0.71789  1.0000
  C   C270      1.0  0.12266  0.26828  0.69892  1.0000
  C   C271      1.0  0.11252  0.26970  0.73302  1.0000
  C   C272      1.0  0.13018  0.28500  0.69524  1.0000
  C   C273      1.0  0.12017  0.28636  0.72917  1.0000
  C   C274      1.0  0.12895  0.29401  0.71033  1.0000
  H   H326      1.0  0.08166  0.24942  0.74487  1.0000
  H   H327      1.0  0.08822  0.22416  0.74357  1.0000
  H   H328      1.0  0.10315  0.23403  0.75243  1.0000
  H   H329      1.0  0.08087  0.25832  0.70883  1.0000
  H   H330      1.0  0.08553  0.23240  0.71082  1.0000
  H   H331      1.0  0.10031  0.24646  0.69243  1.0000
  H   H332      1.0  0.13148  0.22310  0.72838  1.0000
  H   H333      1.0  0.11642  0.21225  0.72015  1.0000
  H   H334      1.0  0.13051  0.22835  0.70307  1.0000
  H   H335      1.0  0.12426  0.26170  0.68671  1.0000
  H   H336      1.0  0.10607  0.26458  0.74800  1.0000
  H   H337      1.0  0.13707  0.29101  0.68059  1.0000
  H   H338      1.0  0.11921  0.29341  0.74094  1.0000
  H   H339      1.0  0.13485  0.30693  0.70738  1.0000
  C   C275      1.0  0.22259  0.42065  0.67195  1.0000
  C   C276      1.0  0.00262  0.11715  0.74290  1.0000
  C   C277      1.0  0.01979  0.16406  0.81450  1.0000
  H   H340      1.0  0.21792  0.21582  0.92101  1.0000
  H   H341      1.0  0.21899  0.30139  0.66943  1.0000
  H   H342      1.0  0.18283  0.26776  0.68823  1.0000
  H   H343      1.0  0.16013  0.34869  0.94929  1.0000
  H   H344      1.0  0.18928  0.28858  0.70613  1.0000
  H   H345      1.0  0.21100  0.09187  0.68178  1.0000
  C   C278      1.0  0.17368  0.31769  0.65998  1.0000
  H   H346      1.0  0.20706  0.03611  0.80842  1.0000
  C   C279      1.0  0.22585  0.46024  0.82105  1.0000
  Fe  Fe43      1.0  0.21751  0.26629  0.92459  1.0000
  H   H347      1.0  0.19799  0.29601  0.65030  1.0000
  C   C280      1.0  0.02187  0.19182  0.85136  1.0000
  C   C281      1.0  0.23198  0.38631  0.65808  1.0000
  H   H348      1.0  0.17277  0.34460  0.69249  1.0000
  C   C282      1.0  0.21501  0.46990  0.80694  1.0000
  H   H349      1.0  0.03333  0.19733  0.85468  1.0000
  H   H350      1.0  0.23714  0.00828  0.88443  1.0000
  C   C283      1.0  0.21228  0.39625  0.66121  1.0000
  H   H351      1.0  0.01759  0.11391  0.67170  1.0000
  C   C284      1.0  0.20028  0.10345  0.67572  1.0000
  C   C285      1.0  0.21586  0.10550  0.72822  1.0000
  N   N17       1.0  0.06316  0.08176  0.71088  1.0000
  C   C286      1.0  0.06137  0.08858  0.72886  1.0000
  C   C287      1.0  0.07094  0.06051  0.71427  1.0000
  C   C288      1.0  0.07771  0.09117  0.69562  1.0000
  C   C289      1.0  0.04387  0.08620  0.70584  1.0000
  C   C290      1.0  0.02872  0.07742  0.71850  1.0000
  C   C291      1.0  0.03936  0.09948  0.68872  1.0000
  C   C292      1.0  0.22275  0.16818  0.69178  1.0000
  C   C293      1.0  0.02092  0.10339  0.68455  1.0000
  H   H352      1.0  0.00853  0.21446  0.78087  1.0000
  H   H353      1.0  0.05064  0.08242  0.74118  1.0000
  H   H354      1.0  0.07536  0.08463  0.73372  1.0000
  H   H355      1.0  0.05683  0.10462  0.72641  1.0000
  H   H356      1.0  0.06212  0.05248  0.72712  1.0000
  H   H357      1.0  0.08585  0.05685  0.71719  1.0000
  H   H358      1.0  0.07148  0.05459  0.70144  1.0000
  H   H359      1.0  0.07994  0.08661  0.68162  1.0000
  H   H360      1.0  0.07334  0.10732  0.69318  1.0000
  H   H361      1.0  0.09206  0.08737  0.69985  1.0000
  S   S84       1.0  0.23076  0.46869  0.72858  1.0000
  H   H362      1.0  0.04962  0.10743  0.67853  1.0000
  H   H363      1.0  0.19183  0.48007  0.71996  1.0000
  C   C294      1.0  0.22915  0.20279  0.92238  1.0000
  C   C295      1.0  0.04574  0.16621  0.83892  1.0000
  H   H364      1.0  0.02474  0.25273  0.78598  1.0000
  C   C296      1.0  0.02199  0.24984  0.80167  1.0000
  H   H365      1.0  0.04053  0.19301  0.77205  1.0000
  H   H366      1.0  0.15417  0.30916  0.74110  1.0000
  C   C297      1.0  0.22870  0.42987  0.81179  1.0000
  C   C298      1.0  0.16297  0.10368  0.71785  1.0000
  C   C299      1.0  0.16526  0.25940  0.74417  1.0000
  H   H367      1.0  0.22551  0.35745  0.77659  1.0000
  C   C300      1.0  0.02776  0.19081  0.76864  1.0000
  H   H368      1.0  0.20465  0.45112  0.76257  1.0000
  C   C301      1.0  0.16807  0.25049  0.71358  1.0000
  H   H369      1.0  0.19094  0.41628  0.80883  1.0000
  H   H370      1.0  0.99873  0.07529  0.72445  1.0000
  C   C302      1.0  0.18021  0.10591  0.68439  1.0000
  C   C303      1.0  0.16765  0.12187  0.67511  1.0000
  C   C304      1.0  0.17307  0.28222  0.76668  1.0000
  H   H371      1.0  0.16524  0.24135  0.70545  1.0000
  N   N18       1.0  0.17227  0.09270  0.70216  1.0000
  C   C305      1.0  0.18709  0.07616  0.70956  1.0000
  N   N19       1.0  0.17976  0.28736  0.74530  1.0000
  C   C306      1.0  0.17013  0.30772  0.73865  1.0000
  C   C307      1.0  0.17547  0.27461  0.73474  1.0000
  H   H372      1.0  0.17281  0.31769  0.74652  1.0000
  C   C308      1.0  0.20095  0.28624  0.74131  1.0000
  H   H373      1.0  0.23554  0.33480  0.83447  1.0000
  C   C309      1.0  0.19246  0.30667  0.65940  1.0000
  C   C310      1.0  0.17795  0.26537  0.70389  1.0000
  H   H374      1.0  0.19838  0.08115  0.71362  1.0000
  H   H375      1.0  0.21520  0.32604  0.81756  1.0000
  H   H376      1.0  0.16200  0.18358  0.68263  1.0000
  C   C311      1.0  0.00346  0.24778  0.81243  1.0000
  H   H377      1.0  0.21341  0.27249  0.85915  1.0000
  C   C312      1.0  0.19739  0.32358  0.68205  1.0000
  H   H378      1.0  0.01513  0.16111  0.74746  1.0000
  H   H379      1.0  0.17547  0.31327  0.72298  1.0000
  C   C313      1.0  0.21058  0.45956  0.79545  1.0000
  H   H380      1.0  0.23596  0.34463  0.86161  1.0000
  H   H381      1.0  0.18359  0.35958  0.96086  1.0000
  C   C314      1.0  0.14755  0.19054  0.68069  1.0000
  Fe  Fe44      1.0  0.22621  0.36315  0.73815  1.0000
  C   C315      1.0  0.18158  0.27726  0.71427  1.0000
  H   H382      1.0  0.15034  0.11516  0.71425  1.0000
  H   H383      1.0  0.21897  0.03084  0.86402  1.0000
  H   H384      1.0  0.14450  0.09559  0.69501  1.0000
  H   H385      1.0  0.20886  0.27099  0.74510  1.0000
  H   H386      1.0  0.22934  0.16629  0.70449  1.0000
  S   S85       1.0  0.16469  0.25980  0.65788  1.0000
  N   N20       1.0  0.19649  0.38891  0.65798  1.0000
  S   S86       1.0  0.12074  0.24211  0.65338  1.0000
  H   H387      1.0  0.16465  0.14639  0.65133  1.0000
  N   N21       1.0  0.20747  0.15663  0.69663  1.0000
  H   H388      1.0  0.19114  0.36573  0.64775  1.0000
  H   H389      1.0  0.23490  0.41452  0.81383  1.0000
  C   C316      1.0  0.03666  0.19685  0.81753  1.0000
  H   H390      1.0  0.22126  0.36161  0.81007  1.0000
  H   H391      1.0  0.21160  0.15253  0.66739  1.0000
  C   C317      1.0  0.21928  0.31625  0.83053  1.0000
  H   H392      1.0  0.19558  0.16459  0.72456  1.0000
  H   H393      1.0  0.17663  0.39716  0.68374  1.0000
  C   C318      1.0  0.20020  0.15860  0.67889  1.0000
  C   C319      1.0  0.23544  0.02011  0.81224  1.0000
  H   H394      1.0  0.19699  0.04248  0.84166  1.0000
  H   H395      1.0  0.21328  0.37227  0.90694  1.0000
  C   C320      1.0  0.16088  0.34439  0.96453  1.0000
  H   H396      1.0  0.20216  0.46799  0.78481  1.0000
  H   H397      1.0  0.18559  0.18101  0.70504  1.0000
  C   C321      1.0  0.21834  0.28611  0.85386  1.0000
  C   C322      1.0  0.00981  0.20286  0.77348  1.0000
  C   C323      1.0  0.21136  0.03418  0.83707  1.0000
  H   H398      1.0  0.21074  0.35875  0.65999  1.0000
  C   C324      1.0  0.23017  0.29079  0.86360  1.0000
  C   C325      1.0  0.23651  0.36221  0.78055  1.0000
  C   C326      1.0  0.23095  0.32113  0.84028  1.0000
  C   C327      1.0  0.20711  0.11599  0.65863  1.0000
  S   S87       1.0  0.23409  0.99590  0.77140  1.0000
  H   H399      1.0  0.19496  0.17408  0.67243  1.0000
  S   S88       1.0  0.23435  0.04125  0.74943  1.0000
  C   C328      1.0  0.23677  0.30856  0.85712  1.0000
  C   C329      1.0  0.21698  0.03061  0.81832  1.0000
  C   C330      1.0  0.19430  0.13122  0.64969  1.0000
  C   C331      1.0  0.22421  0.02734  0.84981  1.0000
  C   C332      1.0  0.23426  0.36427  0.79960  1.0000
  H   H400      1.0  0.23606  0.31356  0.93285  1.0000
  H   H401      1.0  0.23710  0.42922  0.72615  1.0000
  H   H402      1.0  0.22850  0.41076  0.76407  1.0000
  C   C333      1.0  0.98862  0.12245  0.73139  1.0000
  S   S89       1.0  0.23638  0.05488  0.69481  1.0000
  H   H403      1.0  0.22941  0.46832  0.82980  1.0000
  H   H404      1.0  0.23461  0.16406  0.67960  1.0000
  Fe  Fe45      1.0  0.23823  0.98922  0.74203  1.0000
  C   C334      1.0  0.23095  0.41993  0.77299  1.0000
  Fe  Fe46      1.0  0.23780  0.03147  0.72174  1.0000
  C   C335      1.0  0.23820  0.32782  0.92515  1.0000
  C   C336      1.0  0.99168  0.13548  0.71361  1.0000
  C   C337      1.0  0.14915  0.33216  0.97736  1.0000
  C   C338      1.0  0.99458  0.18505  0.75912  1.0000
  H   H405      1.0  0.99406  0.17182  0.72742  1.0000
  H   H406      1.0  0.23845  0.13292  0.67779  1.0000
  H   H407      1.0  0.23804  0.08092  0.72113  1.0000
  H   H408      1.0  0.03786  0.71836  0.19908  1.0000
  H   H409      1.0  0.21072  0.58709  0.18988  1.0000
  C   C339      1.0  0.21278  0.56741  0.21660  1.0000
  H   H410      1.0  0.05123  0.75328  0.25174  1.0000
  H   H411      1.0  0.00965  0.73172  0.27748  1.0000
  H   H412      1.0  0.02656  0.58520  0.19189  1.0000
  S   S90       1.0  0.21026  0.54385  0.28720  1.0000
  S   S91       1.0  0.19674  0.63063  0.99937  1.0000
  C   C340      1.0  0.15570  0.82673  0.30636  1.0000
  C   C341      1.0  0.03967  0.68784  0.28325  1.0000
  H   H413      1.0  0.03994  0.67284  0.28353  1.0000
  H   H414      1.0  0.10392  0.72539  0.25134  1.0000
  N   N22       1.0  0.03934  0.74744  0.28242  1.0000
  H   H415      1.0  0.15566  0.63757  0.99872  1.0000
  S   S92       1.0  0.20932  0.64201  0.10731  1.0000
  S   S93       1.0  0.19409  0.66728  0.15466  1.0000
  H   H416      1.0  0.12390  0.58922  0.30927  1.0000
  S   S94       1.0  0.21102  0.67950  0.05300  1.0000
  H   H417      1.0  0.01076  0.80709  0.30720  1.0000
  Fe  Fe47      1.0  0.06326  0.64692  0.24635  1.0000
  S   S95       1.0  0.07940  0.67132  0.23732  1.0000
  S   S96       1.0  0.03128  0.65398  0.25880  1.0000
  Fe  Fe48      1.0  0.09976  0.61637  0.23875  1.0000
  S   S97       1.0  0.11890  0.63800  0.22909  1.0000
  S   S98       1.0  0.11560  0.58556  0.23928  1.0000
  Fe  Fe49      1.0  0.10067  0.65068  0.25431  1.0000
  S   S99       1.0  0.11405  0.65508  0.27686  1.0000
  Fe  Fe50      1.0  0.09619  0.65632  0.21282  1.0000
  S   S100      1.0  0.10396  0.67019  0.18121  1.0000
  S   S101      1.0  0.08318  0.62759  0.26539  1.0000
  S   S102      1.0  0.07826  0.63356  0.22042  1.0000
  C   C342      1.0  0.02393  0.71624  0.19719  1.0000
  H   H418      1.0  0.18347  0.74067  0.13108  1.0000
  C   C343      1.0  0.10827  0.69440  0.26219  1.0000
  H   H419      1.0  0.10787  0.69118  0.24863  1.0000
  C   C344      1.0  0.16879  0.66959  0.16073  1.0000
  C   C345      1.0  0.15891  0.67391  0.17883  1.0000
  C   C346      1.0  0.13904  0.67405  0.18515  1.0000
  C   C347      1.0  0.12880  0.67044  0.17315  1.0000
  C   C348      1.0  0.13851  0.66687  0.15469  1.0000
  C   C349      1.0  0.15855  0.66624  0.14854  1.0000
  H   H420      1.0  0.16674  0.67666  0.18824  1.0000
  H   H421      1.0  0.13160  0.67708  0.19929  1.0000
  H   H422      1.0  0.13060  0.66420  0.14529  1.0000
  H   H423      1.0  0.16607  0.66300  0.13451  1.0000
  H   H424      1.0  0.17886  0.77209  0.30947  1.0000
  H   H425      1.0  0.06899  0.74554  0.26664  1.0000
  H   H426      1.0  0.10678  0.60600  0.29640  1.0000
  C   C350      1.0  0.03543  0.68231  0.20801  1.0000
  H   H427      1.0  0.17792  0.56438  0.25763  1.0000
  C   C351      1.0  0.99605  0.65015  0.25597  1.0000
  C   C352      1.0  0.15440  0.60539  0.19808  1.0000
  C   C353      1.0  0.21387  0.72940  0.12234  1.0000
  H   H428      1.0  0.00836  0.68852  0.24098  1.0000
  N   N23       1.0  0.01828  0.69843  0.21040  1.0000
  H   H429      1.0  0.02576  0.71547  0.18173  1.0000
  C   C354      1.0  0.99708  0.59047  0.18860  1.0000
  C   C355      1.0  0.12246  0.66948  0.99386  1.0000
  C   C356      1.0  0.01611  0.64378  0.25091  1.0000
  C   C357      1.0  0.02368  0.63001  0.23920  1.0000
  C   C358      1.0  0.01115  0.62261  0.23261  1.0000
  H   H430      1.0  0.03320  0.66879  0.21877  1.0000
  H   H431      1.0  0.04333  0.76400  0.30134  1.0000
  H   H432      1.0  0.03914  0.62490  0.23535  1.0000
  H   H433      1.0  0.01706  0.61186  0.22365  1.0000
  C   C359      1.0  0.20048  0.64443  0.01420  1.0000
  C   C360      1.0  0.20249  0.63560  0.03332  1.0000
  C   C361      1.0  0.20589  0.64615  0.04536  1.0000
  C   C362      1.0  0.20682  0.66572  0.03845  1.0000
  C   C363      1.0  0.20454  0.67461  0.01942  1.0000
  C   C364      1.0  0.20161  0.66395  0.00723  1.0000
  C   C365      1.0  0.17568  0.82055  0.30707  1.0000
  H   H434      1.0  0.01077  0.69808  0.27801  1.0000
  H   H435      1.0  0.20508  0.68981  0.01406  1.0000
  H   H436      1.0  0.08750  0.56729  0.30844  1.0000
  H   H437      1.0  0.03902  0.67916  0.19318  1.0000
  C   C366      1.0  0.05420  0.75425  0.26566  1.0000
  C   C367      1.0  0.20471  0.83321  0.29067  1.0000
  C   C368      1.0  0.10612  0.71372  0.26371  1.0000
  S   S103      1.0  0.10217  0.74207  0.28380  1.0000
  S   S104      1.0  0.17196  0.51178  0.31166  1.0000
  C   C369      1.0  0.11188  0.68352  0.29564  1.0000
  C   C370      1.0  0.99221  0.57834  0.16261  1.0000
  C   C371      1.0  0.10649  0.71792  0.28132  1.0000
  C   C372      1.0  0.15888  0.64759  0.30456  1.0000
  C   C373      1.0  0.13436  0.55210  0.28705  1.0000
  H   H438      1.0  0.13099  0.66354  0.00549  1.0000
  H   H439      1.0  0.14783  0.54323  0.29046  1.0000
  H   H440      1.0  0.23723  0.60921  0.14695  1.0000
  H   H441      1.0  0.10917  0.66327  0.99865  1.0000
  H   H442      1.0  0.15375  0.63645  0.28207  1.0000
  H   H443      1.0  0.19872  0.79461  0.30903  1.0000
  C   C374      1.0  0.16900  0.62608  0.20850  1.0000
  H   H444      1.0  0.01092  0.66369  0.20618  1.0000
  C   C375      1.0  0.10931  0.70278  0.29727  1.0000
  H   H445      1.0  0.00874  0.75661  0.29288  1.0000
  C   C376      1.0  0.16449  0.61342  0.30429  1.0000
  C   C377      1.0  0.09968  0.57556  0.27799  1.0000
  C   C378      1.0  0.20378  0.56089  0.23568  1.0000
  C   C379      1.0  0.03901  0.72708  0.28283  1.0000
  H   H446      1.0  0.20755  0.63921  0.06004  1.0000
  H   H447      1.0  0.20159  0.62050  0.03880  1.0000
  H   H448      1.0  0.22825  0.52376  0.16937  1.0000
  H   H449      1.0  0.08621  0.58445  0.27449  1.0000
  H   H450      1.0  0.06863  0.68180  0.28802  1.0000
  S   S105      1.0  0.21936  0.68529  0.10044  1.0000
  H   H451      1.0  0.15995  0.59100  0.23686  1.0000
  H   H452      1.0  0.15667  0.59200  0.19243  1.0000
  C   C380      1.0  0.23508  0.88152  0.28862  1.0000
  H   H453      1.0  0.19753  0.61899  0.17864  1.0000
  H   H454      1.0  0.15400  0.58728  0.98004  1.0000
  H   H455      1.0  0.21153  0.54922  0.24517  1.0000
  C   C381      1.0  0.11782  0.55432  0.30178  1.0000
  H   H456      1.0  0.06829  0.71534  0.28795  1.0000
  H   H457      1.0  0.14439  0.78379  0.30789  1.0000
  C   C382      1.0  0.04433  0.74871  0.30051  1.0000
  C   C383      1.0  0.18387  0.61462  0.17907  1.0000
  C   C384      1.0  0.11619  0.57320  0.26326  1.0000
  H   H458      1.0  0.16094  0.62331  0.22378  1.0000
  H   H459      1.0  0.17537  0.62743  0.17055  1.0000
  C   C385      1.0  0.11124  0.67932  0.27817  1.0000
  H   H460      1.0  0.18728  0.60262  0.17110  1.0000
  C   C386      1.0  0.17260  0.78745  0.30814  1.0000
  H   H461      1.0  0.14648  0.61768  0.18848  1.0000
  C   C387      1.0  0.99939  0.67630  0.20449  1.0000
  H   H462      1.0  0.18664  0.77499  0.11960  1.0000
  H   H463      1.0  0.16076  0.66664  0.98091  1.0000
  C   C388      1.0  0.17731  0.85456  0.30554  1.0000
  H   H464      1.0  0.22764  0.56075  0.21129  1.0000
  C   C389      1.0  0.13342  0.56118  0.26775  1.0000
  H   H465      1.0  0.15995  0.63886  0.20074  1.0000
  Fe  Fe51      1.0  0.21204  0.66138  0.12572  1.0000
  H   H466      1.0  0.18261  0.63029  0.20849  1.0000
  C   C390      1.0  0.01697  0.58327  0.18367  1.0000
  C   C391      1.0  0.18478  0.56951  0.24270  1.0000
  C   C392      1.0  0.10042  0.56585  0.29717  1.0000
  H   H467      1.0  0.21241  0.71436  0.12758  1.0000
  C   C393      1.0  0.15316  0.79402  0.30718  1.0000
  H   H468      1.0  0.14799  0.84151  0.30643  1.0000
  H   H469      1.0  0.19996  0.83655  0.27661  1.0000
  N   N24       1.0  0.17303  0.60916  0.19929  1.0000
  H   H470      1.0  0.11394  0.67190  0.30807  1.0000
  C   C394      1.0  0.20288  0.58272  0.20445  1.0000
  C   C395      1.0  0.02452  0.57363  0.16830  1.0000
  H   H471      1.0  0.14431  0.60355  0.21239  1.0000
  C   C396      1.0  0.17470  0.58478  0.23069  1.0000
  C   C397      1.0  0.18354  0.59206  0.21124  1.0000
  H   H472      1.0  0.05486  0.76956  0.26482  1.0000
  C   C398      1.0  0.23003  0.86946  0.30673  1.0000
  H   H473      1.0  0.04857  0.68565  0.21040  1.0000
  C   C399      1.0  0.02326  0.70209  0.28020  1.0000
  H   H474      1.0  0.14606  0.55905  0.25633  1.0000
  H   H475      1.0  0.23583  0.51986  0.23849  1.0000
  C   C400      1.0  0.15866  0.63280  0.29567  1.0000
  H   H476      1.0  0.15390  0.66238  0.29742  1.0000
  C   C401      1.0  0.05577  0.69288  0.28592  1.0000
  C   C402      1.0  0.99106  0.62903  0.23765  1.0000
  C   C403      1.0  0.02055  0.76102  0.28067  1.0000
  H   H477      1.0  0.22404  0.89238  0.28220  1.0000
  H   H478      1.0  0.17163  0.86001  0.29194  1.0000
  C   C404      1.0  0.23694  0.50989  0.22928  1.0000
  C   C405      1.0  0.15574  0.61151  0.99078  1.0000
  C   C406      1.0  0.18377  0.80047  0.30801  1.0000
  H   H479      1.0  0.12943  0.81849  0.30623  1.0000
  H   H480      1.0  0.21461  0.81874  0.29192  1.0000
  H   H481      1.0  0.11796  0.68543  0.99310  1.0000
  H   H482      1.0  0.18684  0.86432  0.30539  1.0000
  H   H483      1.0  0.01643  0.76200  0.26673  1.0000
  C   C407      1.0  0.19756  0.74421  0.12437  1.0000
  C   C408      1.0  0.23364  0.53004  0.28158  1.0000
  H   H484      1.0  0.19994  0.67092  0.99259  1.0000
  H   H485      1.0  0.02681  0.70243  0.23517  1.0000
  C   C409      1.0  0.05547  0.71216  0.28578  1.0000
  H   H486      1.0  0.99026  0.66086  0.26494  1.0000
  C   C410      1.0  0.19940  0.76353  0.11789  1.0000
  H   H487      1.0  0.22981  0.50610  0.30579  1.0000
  H   H488      1.0  0.16426  0.60196  0.29739  1.0000
  H   H489      1.0  0.23421  0.55955  0.30256  1.0000
  H   H490      1.0  0.02097  0.77609  0.28112  1.0000
  H   H491      1.0  0.00236  0.71417  0.23304  1.0000
  H   H492      1.0  0.03996  0.56805  0.16455  1.0000
  C   C411      1.0  0.02284  0.72148  0.27992  1.0000
  Fe  Fe52      1.0  0.21961  0.66486  0.08183  1.0000
  H   H493      1.0  0.17216  0.67970  0.30434  1.0000
  H   H494      1.0  0.12558  0.61438  0.30136  1.0000
  H   H495      1.0  0.21801  0.78337  0.10481  1.0000
  C   C412      1.0  0.11534  0.60435  0.30756  1.0000
  C   C413      1.0  0.21760  0.76814  0.10937  1.0000
  C   C414      1.0  0.14475  0.81360  0.30625  1.0000
  C   C415      1.0  0.01217  0.57118  0.15779  1.0000
  H   H496      1.0  0.05943  0.74124  0.30158  1.0000
  H   H497      1.0  0.10932  0.70587  0.31097  1.0000
  H   H498      1.0  0.21369  0.84379  0.28984  1.0000
  N   N25       1.0  0.18781  0.83400  0.30716  1.0000
  C   C416      1.0  0.00085  0.69487  0.20620  1.0000
  C   C417      1.0  0.01383  0.70108  0.23071  1.0000
  H   H499      1.0  0.22510  0.48883  0.25289  1.0000
  H   H500      1.0  0.01813  0.56366  0.14583  1.0000
  C   C418      1.0  0.15024  0.63156  0.98957  1.0000
  H   H501      1.0  0.99197  0.59783  0.20063  1.0000
  C   C419      1.0  0.23454  0.75334  0.10703  1.0000
  H   H502      1.0  0.16528  0.60280  0.00043  1.0000
  H   H503      1.0  0.23001  0.71476  0.05308  1.0000
  H   H504      1.0  0.01318  0.72966  0.19984  1.0000
  H   H505      1.0  0.08295  0.63071  0.31039  1.0000
  C   C420      1.0  0.23208  0.73382  0.11374  1.0000
  C   C421      1.0  0.23106  0.49232  0.23745  1.0000
  H   H506      1.0  0.23821  0.76486  0.99011  1.0000
  H   H507      1.0  0.23816  0.70220  0.02343  1.0000
  C   C422      1.0  0.14947  0.60279  0.97927  1.0000
  C   C423      1.0  0.11474  0.60583  0.34059  1.0000
  Fe  Fe53      1.0  0.20994  0.64240  0.56813  1.0000
  H   H508      1.0  0.16799  0.71208  0.42877  1.0000
  S   S106      1.0  0.19455  0.65268  0.54303  1.0000
  N   N26       1.0  0.10274  0.60875  0.32609  1.0000
  S   S107      1.0  0.21443  0.66604  0.58015  1.0000
  C   C424      1.0  0.22378  0.70693  0.44769  1.0000
  N   N27       1.0  0.16770  0.72871  0.39969  1.0000
  H   H509      1.0  0.17519  0.86796  0.42797  1.0000
  Fe  Fe54      1.0  0.17534  0.52956  0.35676  1.0000
  C   C425      1.0  0.23463  0.69785  0.41623  1.0000
  S   S108      1.0  0.17482  0.53985  0.38374  1.0000
  S   S109      1.0  0.22258  0.96362  0.39657  1.0000
  C   C426      1.0  0.23779  0.66482  0.48201  1.0000
  H   H510      1.0  0.23714  0.80433  0.57319  1.0000
  H   H511      1.0  0.00985  0.71431  0.41179  1.0000
  S   S110      1.0  0.15479  0.51063  0.35846  1.0000
  Fe  Fe55      1.0  0.18250  0.88410  0.37299  1.0000
  S   S111      1.0  0.20960  0.86457  0.38106  1.0000
  S   S112      1.0  0.17522  0.91667  0.37017  1.0000
  Fe  Fe56      1.0  0.16741  0.85063  0.36742  1.0000
  S   S113      1.0  0.19324  0.82841  0.37533  1.0000
  S   S114      1.0  0.14256  0.84494  0.35802  1.0000
  Fe  Fe57      1.0  0.19009  0.84440  0.39877  1.0000
  S   S115      1.0  0.19298  0.82763  0.42866  1.0000
  H   H512      1.0  0.09622  0.57998  0.33489  1.0000
  S   S116      1.0  0.16263  0.86492  0.39262  1.0000
  S   S117      1.0  0.18480  0.87177  0.34704  1.0000
  Fe  Fe58      1.0  0.17481  0.65445  0.42862  1.0000
  S   S118      1.0  0.19110  0.66071  0.39796  1.0000
  S   S119      1.0  0.14453  0.67001  0.43803  1.0000
  Fe  Fe59      1.0  0.20909  0.62787  0.44365  1.0000
  C   C427      1.0  0.20738  0.80823  0.64253  1.0000
  H   H513      1.0  0.13967  0.67865  0.32276  1.0000
  C   C428      1.0  0.13717  0.58394  0.36062  1.0000
  H   H514      1.0  0.16716  0.77481  0.36262  1.0000
  Fe  Fe60      1.0  0.20341  0.62860  0.40314  1.0000
  S   S120      1.0  0.20667  0.61493  0.37740  1.0000
  S   S121      1.0  0.19726  0.65964  0.44118  1.0000
  S   S122      1.0  0.18507  0.62220  0.43309  1.0000
  H   H515      1.0  0.14154  0.74710  0.39143  1.0000
  S   S123      1.0  0.09133  0.73981  0.37027  1.0000
  C   C429      1.0  0.22986  0.83346  0.42346  1.0000
  H   H516      1.0  0.22799  0.88461  0.33888  1.0000
  S   S124      1.0  0.07630  0.72832  0.33655  1.0000
  Fe  Fe61      1.0  0.21480  0.66292  0.41103  1.0000
  Fe  Fe62      1.0  0.07057  0.75396  0.35018  1.0000
  Fe  Fe63      1.0  0.09881  0.71539  0.35448  1.0000
  S   S125      1.0  0.10443  0.68350  0.36762  1.0000
  N   N28       1.0  0.07862  0.74646  0.62365  1.0000
  H   H517      1.0  0.06224  0.72596  0.62299  1.0000
  C   C430      1.0  0.13253  0.67316  0.41927  1.0000
  C   C431      1.0  0.11721  0.68896  0.41648  1.0000
  C   C432      1.0  0.10841  0.69214  0.40066  1.0000
  C   C433      1.0  0.11463  0.67925  0.38796  1.0000
  C   C434      1.0  0.12950  0.66308  0.39120  1.0000
  C   C435      1.0  0.13871  0.66021  0.40664  1.0000
  H   H518      1.0  0.11237  0.69894  0.42631  1.0000
  H   H519      1.0  0.09659  0.70437  0.39851  1.0000
  H   H520      1.0  0.13415  0.65301  0.38158  1.0000
  H   H521      1.0  0.15049  0.64790  0.40886  1.0000
  C   C436      1.0  0.14101  0.82111  0.35812  1.0000
  C   C437      1.0  0.15607  0.80530  0.36194  1.0000
  H   H522      1.0  0.15062  0.87417  0.45769  1.0000
  C   C438      1.0  0.13897  0.78381  0.35531  1.0000
  C   C439      1.0  0.12355  0.79944  0.35224  1.0000
  C   C440      1.0  0.12467  0.81808  0.35347  1.0000
  H   H523      1.0  0.16856  0.80729  0.36590  1.0000
  C   C441      1.0  0.22665  0.72576  0.64417  1.0000
  H   H524      1.0  0.11101  0.79728  0.34843  1.0000
  H   H525      1.0  0.11292  0.83023  0.35060  1.0000
  C   C442      1.0  0.17314  0.67842  0.63526  1.0000
  H   H526      1.0  0.18263  0.82885  0.33817  1.0000
  Fe  Fe64      1.0  0.17947  0.49386  0.33975  1.0000
  H   H527      1.0  0.13922  0.73647  0.41707  1.0000
  H   H528      1.0  0.18567  0.96258  0.42936  1.0000
  C   C443      1.0  0.17289  0.65253  0.34969  1.0000
  H   H529      1.0  0.10735  0.63563  0.34573  1.0000
  C   C444      1.0  0.19327  0.77175  0.40958  1.0000
  S   S126      1.0  0.19868  0.62536  0.59754  1.0000
  H   H530      1.0  0.19186  0.72003  0.37715  1.0000
  H   H531      1.0  0.17301  0.73927  0.36881  1.0000
  H   H532      1.0  0.22500  0.92294  0.40135  1.0000
  H   H533      1.0  0.18817  0.70349  0.41075  1.0000
  H   H534      1.0  0.14946  0.93390  0.41433  1.0000
  C   C445      1.0  0.20982  0.79828  0.60734  1.0000
  C   C446      1.0  0.02423  0.77129  0.34459  1.0000
  C   C447      1.0  0.16030  0.93259  0.42250  1.0000
  H   H535      1.0  0.14455  0.68200  0.34425  1.0000
  C   C448      1.0  0.15836  0.70826  0.61582  1.0000
  C   C449      1.0  0.18264  0.56140  0.38168  1.0000
  C   C450      1.0  0.19160  0.57106  0.36377  1.0000
  C   C451      1.0  0.19888  0.58746  0.36271  1.0000
  C   C452      1.0  0.19685  0.59457  0.37946  1.0000
  C   C453      1.0  0.18740  0.58522  0.39732  1.0000
  C   C454      1.0  0.18042  0.56860  0.39842  1.0000
  H   H536      1.0  0.19345  0.56549  0.35088  1.0000
  H   H537      1.0  0.20638  0.59451  0.34891  1.0000
  H   H538      1.0  0.18585  0.59054  0.41031  1.0000
  H   H539      1.0  0.17352  0.56111  0.41232  1.0000
  H   H540      1.0  0.20759  0.69404  0.43570  1.0000
  C   C455      1.0  0.14627  0.73395  0.40221  1.0000
  C   C456      1.0  0.19620  0.74006  0.40305  1.0000
  Fe  Fe65      1.0  0.20604  0.64742  0.60934  1.0000
  H   H541      1.0  0.15647  0.71713  0.60177  1.0000
  S   S127      1.0  0.13447  0.73876  0.63120  1.0000
  C   C457      1.0  0.23845  0.92824  0.33532  1.0000
  H   H542      1.0  0.16947  0.71477  0.37634  1.0000
  C   C458      1.0  0.17039  0.60877  0.32192  1.0000
  S   S128      1.0  0.03920  0.76589  0.36152  1.0000
  H   H543      1.0  0.12668  0.62919  0.36989  1.0000
  C   C459      1.0  0.17247  0.71009  0.41348  1.0000
  H   H544      1.0  0.21443  0.79156  0.44658  1.0000
  Fe  Fe66      1.0  0.21029  0.85053  0.35685  1.0000
  H   H545      1.0  0.17803  0.68444  0.60403  1.0000
  H   H546      1.0  0.08533  0.72418  0.60688  1.0000
  H   H547      1.0  0.15995  0.96325  0.41280  1.0000
  C   C460      1.0  0.18936  0.92939  0.37665  1.0000
  C   C461      1.0  0.20405  0.91974  0.38687  1.0000
  C   C462      1.0  0.21416  0.93044  0.39281  1.0000
  C   C463      1.0  0.21014  0.95080  0.38804  1.0000
  C   C464      1.0  0.19595  0.96043  0.37719  1.0000
  C   C465      1.0  0.18547  0.94975  0.37170  1.0000
  H   H548      1.0  0.20752  0.90409  0.39047  1.0000
  H   H549      1.0  0.21450  0.90331  0.35168  1.0000
  C   C466      1.0  0.23769  0.69435  0.53112  1.0000
  H   H550      1.0  0.17417  0.95732  0.36373  1.0000
  H   H551      1.0  0.01070  0.74670  0.35774  1.0000
  C   C467      1.0  0.20103  0.64007  0.52393  1.0000
  C   C468      1.0  0.21459  0.62252  0.52427  1.0000
  C   C469      1.0  0.22545  0.90037  0.33846  1.0000
  C   C470      1.0  0.21162  0.62187  0.49180  1.0000
  C   C471      1.0  0.19784  0.63918  0.49177  1.0000
  C   C472      1.0  0.19253  0.64819  0.50773  1.0000
  C   C473      1.0  0.01083  0.79378  0.31808  1.0000
  H   H552      1.0  0.17280  0.66481  0.35622  1.0000
  H   H553      1.0  0.19112  0.64566  0.47955  1.0000
  H   H554      1.0  0.20564  0.72655  0.40028  1.0000
  H   H555      1.0  0.12612  0.57495  0.34084  1.0000
  H   H556      1.0  0.21876  0.90795  0.32569  1.0000
  H   H557      1.0  0.22738  0.93273  0.34797  1.0000
  H   H558      1.0  0.14994  0.76678  0.40544  1.0000
  S   S129      1.0  0.16777  0.55025  0.32995  1.0000
  C   C474      1.0  0.19054  0.80856  0.63676  1.0000
  H   H559      1.0  0.16508  0.69898  0.41229  1.0000
  H   H560      1.0  0.22897  0.52523  0.35386  1.0000
  H   H561      1.0  0.08075  0.63284  0.33489  1.0000
  C   C475      1.0  0.19175  0.80371  0.61914  1.0000
  H   H562      1.0  0.08701  0.76766  0.59815  1.0000
  C   C476      1.0  0.23107  0.54705  0.38867  1.0000
  C   C477      1.0  0.07273  0.73471  0.61311  1.0000
  C   C478      1.0  0.99722  0.78250  0.32026  1.0000
  C   C479      1.0  0.17057  0.68980  0.61708  1.0000
  H   H563      1.0  0.22582  0.54645  0.40411  1.0000
  H   H564      1.0  0.06610  0.74405  0.60083  1.0000
  C   C480      1.0  0.13755  0.59906  0.36884  1.0000
  C   C481      1.0  0.17915  0.88213  0.42646  1.0000
  S   S130      1.0  0.09184  0.76953  0.32729  1.0000
  H   H565      1.0  0.14543  0.56951  0.36522  1.0000
  H   H566      1.0  0.10568  0.74633  0.60274  1.0000
  S   S131      1.0  0.12234  0.72729  0.33183  1.0000
  N   N29       1.0  0.16541  0.65934  0.33141  1.0000
  H   H567      1.0  0.14623  0.59638  0.37967  1.0000
  N   N30       1.0  0.16262  0.89614  0.43507  1.0000
  H   H568      1.0  0.18404  0.88783  0.41073  1.0000
  C   C482      1.0  0.21957  0.71070  0.64076  1.0000
  H   H569      1.0  0.22466  0.84809  0.41623  1.0000
  C   C483      1.0  0.99620  0.76244  0.39415  1.0000
  C   C484      1.0  0.22353  0.71746  0.56197  1.0000
  H   H570      1.0  0.17872  0.68420  0.32440  1.0000
  H   H571      1.0  0.10010  0.76418  0.61695  1.0000
  H   H572      1.0  0.21143  0.71415  0.55840  1.0000
  H   H573      1.0  0.21662  0.73068  0.52438  1.0000
  H   H574      1.0  0.14208  0.88455  0.42695  1.0000
  H   H575      1.0  0.19269  0.97611  0.37348  1.0000
  Fe  Fe67      1.0  0.11332  0.75298  0.34618  1.0000
  C   C485      1.0  0.22080  0.69895  0.43343  1.0000
  C   C486      1.0  0.01084  0.75977  0.34657  1.0000
  H   H576      1.0  0.22806  0.54726  0.64145  1.0000
  H   H577      1.0  0.23383  0.72612  0.50284  1.0000
  Fe  Fe68      1.0  0.14911  0.53013  0.33033  1.0000
  H   H578      1.0  0.17624  0.73862  0.63060  1.0000
  C   C487      1.0  0.02433  0.78818  0.33016  1.0000
  C   C488      1.0  0.22407  0.80166  0.44076  1.0000
  H   H579      1.0  0.20672  0.72217  0.59001  1.0000
  H   H580      1.0  0.18903  0.76396  0.63724  1.0000
  H   H581      1.0  0.15069  0.90404  0.40922  1.0000
  C   C489      1.0  0.02786  0.77620  0.63908  1.0000
  H   H582      1.0  0.16502  0.85641  0.31818  1.0000
  C   C490      1.0  0.14881  0.71530  0.63272  1.0000
  S   S132      1.0  0.13911  0.76053  0.35225  1.0000
  C   C491      1.0  0.08885  0.59552  0.33327  1.0000
  H   H583      1.0  0.00192  0.77561  0.38997  1.0000
  Fe  Fe69      1.0  0.09909  0.74253  0.31514  1.0000
  C   C492      1.0  0.16620  0.94970  0.42146  1.0000
  C   C493      1.0  0.16872  0.91453  0.43327  1.0000
  C   C494      1.0  0.06235  0.76082  0.63205  1.0000
  C   C495      1.0  0.17591  0.72554  0.37964  1.0000
  C   C496      1.0  0.17368  0.77609  0.40901  1.0000
  H   H584      1.0  0.21980  0.75038  0.40695  1.0000
  S   S133      1.0  0.20074  0.51108  0.34059  1.0000
  N   N31       1.0  0.14938  0.61792  0.48813  1.0000
  C   C497      1.0  0.13172  0.61712  0.50360  1.0000
  C   C498      1.0  0.16625  0.60604  0.49656  1.0000
  C   C499      1.0  0.15221  0.63827  0.48206  1.0000
  C   C500      1.0  0.14697  0.61115  0.47152  1.0000
  C   C501      1.0  0.13378  0.62269  0.45968  1.0000
  C   C502      1.0  0.15705  0.59285  0.46694  1.0000
  C   C503      1.0  0.13157  0.61678  0.44371  1.0000
  C   C504      1.0  0.15464  0.58702  0.45098  1.0000
  C   C505      1.0  0.14207  0.59903  0.43930  1.0000
  H   H585      1.0  0.12899  0.60210  0.50853  1.0000
  H   H586      1.0  0.13295  0.62195  0.51648  1.0000
  H   H587      1.0  0.11867  0.62665  0.49849  1.0000
  H   H588      1.0  0.16430  0.59100  0.50359  1.0000
  H   H589      1.0  0.16868  0.61219  0.50805  1.0000
  H   H590      1.0  0.17984  0.60535  0.48524  1.0000
  H   H591      1.0  0.13907  0.64889  0.47843  1.0000
  H   H592      1.0  0.15587  0.64314  0.49371  1.0000
  H   H593      1.0  0.16409  0.63992  0.46904  1.0000
  H   H594      1.0  0.12522  0.63658  0.46244  1.0000
  H   H595      1.0  0.16721  0.58292  0.47518  1.0000
  H   H596      1.0  0.12180  0.62618  0.43460  1.0000
  H   H597      1.0  0.16279  0.57322  0.44747  1.0000
  H   H598      1.0  0.14050  0.59457  0.42678  1.0000
  C   C506      1.0  0.20452  0.75376  0.40657  1.0000
  H   H599      1.0  0.20115  0.93170  0.44791  1.0000
  C   C507      1.0  0.11546  0.62099  0.34927  1.0000
  H   H600      1.0  0.18196  0.66171  0.50742  1.0000
  H   H601      1.0  0.21002  0.79460  0.59383  1.0000
  H   H602      1.0  0.08011  0.77275  0.64408  1.0000
  H   H603      1.0  0.14030  0.72226  0.39994  1.0000
  Fe  Fe70      1.0  0.19124  0.53020  0.31381  1.0000
  C   C508      1.0  0.17616  0.74372  0.40303  1.0000
  C   C509      1.0  0.23334  0.68297  0.62509  1.0000
  C   C510      1.0  0.09341  0.75663  0.60974  1.0000
  C   C511      1.0  0.16514  0.76235  0.40583  1.0000
  H   H604      1.0  0.21871  0.52329  0.38870  1.0000
  C   C512      1.0  0.18070  0.94937  0.43079  1.0000
  H   H605      1.0  0.19180  0.87880  0.43341  1.0000
  C   C513      1.0  0.14647  0.89857  0.42518  1.0000
  H   H606      1.0  0.20429  0.83780  0.32608  1.0000
  H   H607      1.0  0.21312  0.70743  0.46108  1.0000
  H   H608      1.0  0.16507  0.79026  0.41103  1.0000
  C   C514      1.0  0.15515  0.78679  0.36027  1.0000
  C   C515      1.0  0.17781  0.67237  0.31775  1.0000
  H   H609      1.0  0.03444  0.79726  0.32872  1.0000
  C   C516      1.0  0.12667  0.61751  0.36322  1.0000
  H   H610      1.0  0.22107  0.61600  0.53683  1.0000
  H   H611      1.0  0.19975  0.78240  0.41227  1.0000
  H   H612      1.0  0.14437  0.89806  0.46315  1.0000
  H   H613      1.0  0.22189  0.69547  0.53673  1.0000
  C   C517      1.0  0.21578  0.74478  0.64264  1.0000
  C   C518      1.0  0.15615  0.88757  0.45586  1.0000
  H   H614      1.0  0.07976  0.59762  0.34769  1.0000
  H   H615      1.0  0.18520  0.55463  0.64400  1.0000
  C   C519      1.0  0.12601  0.58722  0.34669  1.0000
  H   H616      1.0  0.16809  0.88319  0.46394  1.0000
  C   C520      1.0  0.04283  0.76258  0.63077  1.0000
  C   C521      1.0  0.19046  0.73506  0.63415  1.0000
  H   H617      1.0  0.19097  0.90151  0.45055  1.0000
  C   C522      1.0  0.18946  0.93190  0.44119  1.0000
  C   C523      1.0  0.21729  0.82046  0.43097  1.0000
  S   S134      1.0  0.23142  0.68697  0.39866  1.0000
  H   H618      1.0  0.10045  0.72214  0.63347  1.0000
  C   C524      1.0  0.20122  0.71606  0.63552  1.0000
  C   C525      1.0  0.21970  0.61334  0.50830  1.0000
  C   C526      1.0  0.22063  0.72222  0.58007  1.0000
  H   H619      1.0  0.13337  0.90875  0.43112  1.0000
  S   S135      1.0  0.21905  0.61083  0.47137  1.0000
  S   S136      1.0  0.18959  0.65616  0.63740  1.0000
  C   C527      1.0  0.18359  0.91471  0.44248  1.0000
  C   C528      1.0  0.19767  0.74937  0.63783  1.0000
  H   H620      1.0  0.16394  0.64315  0.36099  1.0000
  H   H621      1.0  0.18813  0.64424  0.34720  1.0000
  H   H622      1.0  0.13533  0.66122  0.34488  1.0000
  H   H623      1.0  0.03855  0.75324  0.62402  1.0000
  H   H624      1.0  0.23676  0.74271  0.51574  1.0000
  C   C529      1.0  0.99744  0.76529  0.33432  1.0000
  H   H625      1.0  0.23080  0.65791  0.49671  1.0000
  C   C530      1.0  0.19010  0.58222  0.64477  1.0000
  C   C531      1.0  0.17077  0.62346  0.33089  1.0000
  H   H626      1.0  0.17856  0.80410  0.61469  1.0000
  H   H627      1.0  0.17532  0.61882  0.34460  1.0000
  S   S137      1.0  0.23585  0.57838  0.60894  1.0000
  S   S138      1.0  0.22869  0.63128  0.41400  1.0000
  H   H628      1.0  0.07905  0.59788  0.32307  1.0000
  H   H629      1.0  0.21966  0.68336  0.62085  1.0000
  Fe  Fe71      1.0  0.22978  0.61055  0.59688  1.0000
  C   C532      1.0  0.23310  0.53522  0.35993  1.0000
  C   C533      1.0  0.00758  0.74500  0.40162  1.0000
  C   C534      1.0  0.14546  0.67076  0.33597  1.0000
  H   H630      1.0  0.02197  0.74477  0.40332  1.0000
  C   C535      1.0  0.09131  0.62885  0.32179  1.0000
  C   C536      1.0  0.16520  0.64339  0.32235  1.0000
  H   H631      1.0  0.22901  0.66420  0.47181  1.0000
  S   S139      1.0  0.11879  0.54341  0.32606  1.0000
  C   C537      1.0  0.19495  0.82816  0.32552  1.0000
  H   H632      1.0  0.23019  0.59977  0.50862  1.0000
  C   C538      1.0  0.08772  0.73279  0.63931  1.0000
  H   H633      1.0  0.19485  0.70544  0.63285  1.0000
  H   H634      1.0  0.17453  0.59366  0.32879  1.0000
  C   C539      1.0  0.23229  0.72873  0.51762  1.0000
  N   N32       1.0  0.23004  0.69017  0.64323  1.0000
  C   C540      1.0  0.00076  0.72787  0.40622  1.0000
  C   C541      1.0  0.22716  0.53396  0.37997  1.0000
  H   H635      1.0  0.22131  0.75598  0.64555  1.0000
  H   H636      1.0  0.23335  0.73053  0.59945  1.0000
  H   H637      1.0  0.20375  0.81317  0.32765  1.0000
  S   S140      1.0  0.23633  0.63161  0.61065  1.0000
  H   H638      1.0  0.23213  0.93546  0.32226  1.0000
  H   H639      1.0  0.10086  0.63959  0.31604  1.0000
  C   C542      1.0  0.23556  0.72697  0.58539  1.0000
  H   H640      1.0  0.23647  0.68039  0.48204  1.0000
  C   C543      1.0  0.22549  0.80287  0.63086  1.0000
  H   H641      1.0  0.22136  0.54670  0.32427  1.0000
  C   C544      1.0  0.23090  0.55748  0.31867  1.0000
  H   H642      1.0  0.19374  0.58661  0.62908  1.0000
  H   H643      1.0  0.23688  0.77057  0.58990  1.0000
  C   C545      1.0  0.22729  0.79754  0.61293  1.0000
  H   H644      1.0  0.22225  0.57146  0.32251  1.0000
  H   H645      1.0  0.23785  0.80296  0.63634  1.0000
  H   H646      1.0  0.01299  0.77675  0.63863  1.0000
  C   C546      1.0  0.06577  0.77350  0.64211  1.0000
  H   H647      1.0  0.21514  0.87111  0.31424  1.0000
  H   H648      1.0  0.03449  0.74225  0.31362  1.0000
  C   C547      1.0  0.23534  0.55620  0.64569  1.0000
  H   H649      1.0  0.19279  0.66416  0.31333  1.0000
  S   S141      1.0  0.00612  0.73358  0.66701  1.0000
  H   H650      1.0  0.16848  0.59528  0.85896  1.0000
  Fe  Fe72      1.0  0.20608  0.87390  0.73221  1.0000
  S   S142      1.0  0.19798  0.85188  0.75911  1.0000
  S   S143      1.0  0.19279  0.90562  0.73232  1.0000
  C   C548      1.0  0.19654  0.60214  0.85659  1.0000
  H   H651      1.0  0.11279  0.90316  0.72524  1.0000
  Fe  Fe73      1.0  0.19414  0.83521  0.73881  1.0000
  S   S144      1.0  0.16834  0.82092  0.74693  1.0000
  H   H652      1.0  0.16718  0.89276  0.71515  1.0000
  H   H653      1.0  0.16797  0.64334  0.87056  1.0000
  S   S145      1.0  0.19971  0.85843  0.71218  1.0000
  C   C549      1.0  0.13753  0.61409  0.96663  1.0000
  H   H654      1.0  0.15978  0.88524  0.69002  1.0000
  S   S146      1.0  0.21874  0.65267  0.91062  1.0000
  H   H655      1.0  0.21577  0.61698  0.87643  1.0000
  C   C550      1.0  0.19080  0.76340  0.73456  1.0000
  H   H656      1.0  0.99108  0.64243  0.73749  1.0000
  H   H657      1.0  0.01841  0.77526  0.70442  1.0000
  H   H658      1.0  0.11724  0.83733  0.71247  1.0000
  H   H659      1.0  0.20958  0.63489  0.85532  1.0000
  Fe  Fe74      1.0  0.09227  0.75819  0.69300  1.0000
  S   S147      1.0  0.10740  0.72890  0.68651  1.0000
  S   S148      1.0  0.05955  0.76609  0.70218  1.0000
  Fe  Fe75      1.0  0.13013  0.77278  0.68414  1.0000
  S   S149      1.0  0.14782  0.74462  0.67682  1.0000
  S   S150      1.0  0.14832  0.79530  0.67879  1.0000
  Fe  Fe76      1.0  0.12516  0.74564  0.66099  1.0000
  H   H660      1.0  0.22684  0.72892  0.95146  1.0000
  Fe  Fe77      1.0  0.12865  0.73068  0.70304  1.0000
  S   S151      1.0  0.14326  0.70485  0.72244  1.0000
  S   S152      1.0  0.10861  0.77498  0.66605  1.0000
  S   S153      1.0  0.11238  0.75883  0.71174  1.0000
  Fe  Fe78      1.0  0.22174  0.49992  0.73182  1.0000
  H   H661      1.0  0.16155  0.73782  0.71320  1.0000
  H   H662      1.0  0.18499  0.74608  0.68274  1.0000
  Fe  Fe79      1.0  0.19467  0.53708  0.74127  1.0000
  S   S154      1.0  0.21859  0.55015  0.74310  1.0000
  S   S155      1.0  0.16450  0.55524  0.74571  1.0000
  H   H663      1.0  0.14281  0.68946  0.88485  1.0000
  H   H664      1.0  0.11328  0.57989  0.82539  1.0000
  Fe  Fe80      1.0  0.23410  0.53898  0.71614  1.0000
  S   S156      1.0  0.20944  0.52779  0.71294  1.0000
  S   S157      1.0  0.20459  0.50817  0.75991  1.0000
  Fe  Fe81      1.0  0.10892  0.63522  0.86246  1.0000
  S   S158      1.0  0.12732  0.64410  0.83320  1.0000
  S   S159      1.0  0.11726  0.63097  0.89138  1.0000
  Fe  Fe82      1.0  0.08078  0.62254  0.84509  1.0000
  S   S160      1.0  0.09726  0.63002  0.81454  1.0000
  S   S161      1.0  0.05493  0.60814  0.85375  1.0000
  Fe  Fe83      1.0  0.12398  0.61665  0.82687  1.0000
  S   S162      1.0  0.15023  0.59433  0.81772  1.0000
  Fe  Fe84      1.0  0.09890  0.65668  0.82368  1.0000
  S   S163      1.0  0.09000  0.68612  0.80554  1.0000
  S   S164      1.0  0.10742  0.60693  0.85673  1.0000
  S   S165      1.0  0.08054  0.65008  0.85359  1.0000
  C   C551      1.0  0.16042  0.56672  0.76533  1.0000
  C   C552      1.0  0.14412  0.58157  0.76869  1.0000
  C   C553      1.0  0.14085  0.59047  0.78460  1.0000
  C   C554      1.0  0.15380  0.58435  0.79722  1.0000
  C   C555      1.0  0.17001  0.56952  0.79381  1.0000
  C   C556      1.0  0.17331  0.56074  0.77795  1.0000
  H   H665      1.0  0.13407  0.58619  0.75900  1.0000
  H   H666      1.0  0.12847  0.60210  0.78704  1.0000
  H   H667      1.0  0.18006  0.56473  0.80352  1.0000
  H   H668      1.0  0.18569  0.54906  0.77575  1.0000
  C   C557      1.0  0.12826  0.69925  0.74536  1.0000
  C   C558      1.0  0.13415  0.68242  0.75874  1.0000
  C   C559      1.0  0.12237  0.67810  0.77723  1.0000
  C   C560      1.0  0.10487  0.69080  0.78245  1.0000
  C   C561      1.0  0.09899  0.70756  0.76906  1.0000
  C   C562      1.0  0.11053  0.71165  0.75049  1.0000
  H   H669      1.0  0.14782  0.67274  0.75482  1.0000
  H   H670      1.0  0.12698  0.66511  0.78751  1.0000
  H   H671      1.0  0.08556  0.71750  0.77309  1.0000
  H   H672      1.0  0.10578  0.72453  0.74025  1.0000
  N   N33       1.0  0.13995  0.88401  0.72906  1.0000
  H   H673      1.0  0.10652  0.55890  0.84307  1.0000
  S   S166      1.0  0.16544  0.67948  0.91472  1.0000
  C   C563      1.0  0.10102  0.57250  0.83320  1.0000
  C   C564      1.0  0.20043  0.75143  0.72085  1.0000
  C   C565      1.0  0.20789  0.92017  0.73429  1.0000
  H   H674      1.0  0.09096  0.58215  0.84273  1.0000
  H   H675      1.0  0.22925  0.74057  0.70467  1.0000
  C   C566      1.0  0.21652  0.59700  0.84811  1.0000
  C   C567      1.0  0.21267  0.95193  0.73511  1.0000
  H   H676      1.0  0.20782  0.75064  0.68309  1.0000
  C   C568      1.0  0.22093  0.74871  0.71566  1.0000
  C   C569      1.0  0.18448  0.59346  0.71022  1.0000
  C   C570      1.0  0.12205  0.67551  0.95996  1.0000
  H   H677      1.0  0.18618  0.94657  0.73153  1.0000
  H   H678      1.0  0.02780  0.64073  0.79571  1.0000
  H   H679      1.0  0.14401  0.70911  0.66396  1.0000
  H   H680      1.0  0.16531  0.67664  0.66620  1.0000
  C   C571      1.0  0.15176  0.64694  0.91701  1.0000
  C   C572      1.0  0.14065  0.63664  0.91202  1.0000
  C   C573      1.0  0.13073  0.64501  0.89684  1.0000
  C   C574      1.0  0.13169  0.66404  0.88686  1.0000
  C   C575      1.0  0.14239  0.67463  0.89233  1.0000
  H   H681      1.0  0.15929  0.64019  0.92868  1.0000
  H   H682      1.0  0.13991  0.62196  0.91984  1.0000
  H   H683      1.0  0.12394  0.67069  0.87521  1.0000
  Fe  Fe85      1.0  0.21797  0.62345  0.92996  1.0000
  C   C576      1.0  0.16320  0.81313  0.72819  1.0000
  C   C577      1.0  0.14764  0.80377  0.73209  1.0000
  C   C578      1.0  0.14304  0.79792  0.71715  1.0000
  C   C579      1.0  0.15399  0.80147  0.69825  1.0000
  C   C580      1.0  0.16961  0.81068  0.69447  1.0000
  C   C581      1.0  0.17428  0.81641  0.70937  1.0000
  H   H684      1.0  0.13902  0.80120  0.74665  1.0000
  H   H685      1.0  0.13085  0.79097  0.72019  1.0000
  H   H686      1.0  0.17797  0.81367  0.67991  1.0000
  H   H687      1.0  0.18628  0.82360  0.70624  1.0000
  H   H688      1.0  0.07898  0.54582  0.84014  1.0000
  C   C582      1.0  0.15259  0.66603  0.90737  1.0000
  H   H689      1.0  0.21024  0.48557  0.80472  1.0000
  C   C583      1.0  0.00767  0.62590  0.81793  1.0000
  C   C584      1.0  0.02529  0.63212  0.81027  1.0000
  C   C585      1.0  0.03967  0.62723  0.82132  1.0000
  C   C586      1.0  0.03672  0.61561  0.83995  1.0000
  C   C587      1.0  0.01922  0.60915  0.84749  1.0000
  H   H690      1.0  0.21890  0.94240  0.77541  1.0000
  C   C588      1.0  0.20082  0.94015  0.73350  1.0000
  H   H691      1.0  0.05314  0.63215  0.81534  1.0000
  H   H692      1.0  0.01687  0.60012  0.86188  1.0000
  H   H693      1.0  0.99785  0.70011  0.78802  1.0000
  C   C589      1.0  0.02027  0.74184  0.67836  1.0000
  C   C590      1.0  0.04013  0.73373  0.67611  1.0000
  C   C591      1.0  0.05222  0.74075  0.68372  1.0000
  C   C592      1.0  0.04454  0.75599  0.69364  1.0000
  C   C593      1.0  0.02452  0.76357  0.69661  1.0000
  C   C594      1.0  0.01240  0.75652  0.68902  1.0000
  H   H694      1.0  0.04614  0.72207  0.66829  1.0000
  H   H695      1.0  0.06750  0.73453  0.68175  1.0000
  C   C595      1.0  0.18209  0.60617  0.88939  1.0000
  C   C596      1.0  0.20993  0.87630  0.81542  1.0000
  H   H696      1.0  0.16609  0.73879  0.73577  1.0000
  C   C597      1.0  0.22128  0.76850  0.73756  1.0000
  H   H697      1.0  0.18609  0.76816  0.68871  1.0000
  H   H698      1.0  0.05516  0.71384  0.76582  1.0000
  H   H699      1.0  0.18929  0.71456  0.70755  1.0000
  Fe  Fe86      1.0  0.19004  0.66194  0.92956  1.0000
  H   H700      1.0  0.23682  0.91751  0.82098  1.0000
  H   H701      1.0  0.16137  0.76066  0.71754  1.0000
  H   H702      1.0  0.19773  0.71435  0.72865  1.0000
  N   N34       1.0  0.03461  0.69254  0.79760  1.0000
  C   C598      1.0  0.05145  0.67712  0.79208  1.0000
  C   C599      1.0  0.04071  0.70475  0.80744  1.0000
  C   C600      1.0  0.01972  0.68284  0.81202  1.0000
  C   C601      1.0  0.02774  0.70474  0.78001  1.0000
  H   H703      1.0  0.12992  0.67294  0.94525  1.0000
  Fe  Fe87      1.0  0.22984  0.52054  0.75927  1.0000
  H   H704      1.0  0.04151  0.66541  0.75399  1.0000
  C   C602      1.0  0.23589  0.78856  0.68007  1.0000
  S   S167      1.0  0.22159  0.59909  0.91494  1.0000
  H   H705      1.0  0.21527  0.68305  0.67299  1.0000
  H   H706      1.0  0.05711  0.66787  0.80502  1.0000
  C   C603      1.0  0.19066  0.57856  0.84110  1.0000
  H   H707      1.0  0.04571  0.69615  0.82095  1.0000
  H   H708      1.0  0.02868  0.71690  0.81137  1.0000
  H   H709      1.0  0.05314  0.71119  0.79825  1.0000
  H   H710      1.0  0.01454  0.67320  0.80573  1.0000
  C   C604      1.0  0.23168  0.94372  0.73743  1.0000
  H   H711      1.0  0.00704  0.69358  0.81774  1.0000
  H   H712      1.0  0.12305  0.64204  0.95486  1.0000
  H   H713      1.0  0.15717  0.86657  0.66802  1.0000
  C   C605      1.0  0.20179  0.87639  0.80009  1.0000
  C   C606      1.0  0.19467  0.94408  0.80875  1.0000
  H   H714      1.0  0.13723  0.52280  0.77090  1.0000
  N   N35       1.0  0.09118  0.56873  0.81948  1.0000
  C   C607      1.0  0.08410  0.58770  0.80731  1.0000
  C   C608      1.0  0.07426  0.56037  0.83119  1.0000
  C   C609      1.0  0.10388  0.55551  0.80683  1.0000
  C   C610      1.0  0.12367  0.54755  0.80759  1.0000
  C   C611      1.0  0.09660  0.55060  0.79282  1.0000
  C   C612      1.0  0.13534  0.53558  0.79499  1.0000
  C   C613      1.0  0.10848  0.53880  0.78014  1.0000
  C   C614      1.0  0.12785  0.53141  0.78115  1.0000
  H   H715      1.0  0.07539  0.59836  0.81638  1.0000
  H   H716      1.0  0.07458  0.58660  0.79815  1.0000
  H   H717      1.0  0.09639  0.59400  0.79753  1.0000
  H   H718      1.0  0.06472  0.56982  0.84127  1.0000
  H   H719      1.0  0.06493  0.55877  0.82209  1.0000
  H   H720      1.0  0.13073  0.55078  0.81736  1.0000
  H   H721      1.0  0.08173  0.55616  0.79134  1.0000
  H   H722      1.0  0.15054  0.53014  0.79540  1.0000
  H   H723      1.0  0.10276  0.53563  0.76923  1.0000
  S   S168      1.0  0.23364  0.62812  0.95054  1.0000
  H   H724      1.0  0.16954  0.59064  0.71559  1.0000
  C   C615      1.0  0.22316  0.58313  0.83644  1.0000
  H   H725      1.0  0.15942  0.62529  0.86484  1.0000
  H   H726      1.0  0.18583  0.60341  0.71889  1.0000
  H   H727      1.0  0.22728  0.70042  0.93846  1.0000
  H   H728      1.0  0.23389  0.53949  0.67494  1.0000
  H   H729      1.0  0.04755  0.66751  0.78475  1.0000
  H   H730      1.0  0.21326  0.92245  0.83667  1.0000
  H   H731      1.0  0.10780  0.67123  0.96332  1.0000
  C   C616      1.0  0.01846  0.69622  0.71963  1.0000
  C   C617      1.0  0.05068  0.78697  0.65046  1.0000
  C   C618      1.0  0.12748  0.85865  0.72077  1.0000
  H   H732      1.0  0.23066  0.55395  0.77818  1.0000
  H   H733      1.0  0.17655  0.63766  0.84683  1.0000
  H   H734      1.0  0.17788  0.61597  0.89990  1.0000
  H   H735      1.0  0.23082  0.95049  0.78915  1.0000
  C   C619      1.0  0.18703  0.58872  0.67702  1.0000
  C   C620      1.0  0.21027  0.57402  0.83283  1.0000
  H   H736      1.0  0.18749  0.94761  0.79618  1.0000
  C   C621      1.0  0.19234  0.75229  0.69058  1.0000
  C   C622      1.0  0.18535  0.56416  0.65316  1.0000
  N   N36       1.0  0.18899  0.61645  0.86935  1.0000
  C   C623      1.0  0.16888  0.74520  0.71993  1.0000
  H   H737      1.0  0.11957  0.85523  0.73553  1.0000
  H   H738      1.0  0.02084  0.70777  0.70704  1.0000
  C   C624      1.0  0.22678  0.91202  0.73696  1.0000
  C   C625      1.0  0.12608  0.84825  0.70770  1.0000
  C   C626      1.0  0.04036  0.71496  0.76492  1.0000
  H   H739      1.0  0.11902  0.69151  0.95879  1.0000
  S   S169      1.0  0.20297  0.67091  0.95015  1.0000
  H   H740      1.0  0.21302  0.71842  0.70486  1.0000
  C   C627      1.0  0.19794  0.72167  0.71317  1.0000
  S   S170      1.0  0.18875  0.63235  0.94797  1.0000
  H   H741      1.0  0.17524  0.76679  0.73906  1.0000
  C   C628      1.0  0.20936  0.91127  0.80430  1.0000
  H   H742      1.0  0.17849  0.56477  0.70061  1.0000
  C   C629      1.0  0.22250  0.92769  0.82250  1.0000
  H   H743      1.0  0.98924  0.63948  0.76316  1.0000
  C   C630      1.0  0.15129  0.70381  0.65084  1.0000
  C   C631      1.0  0.17259  0.63125  0.86257  1.0000
  H   H744      1.0  0.99113  0.60952  0.84260  1.0000
  N   N37       1.0  0.13367  0.66492  0.97491  1.0000
  H   H745      1.0  0.18430  0.93852  0.82190  1.0000
  N   N38       1.0  0.18995  0.74283  0.71142  1.0000
  H   H746      1.0  0.21385  0.86275  0.82536  1.0000
  H   H747      1.0  0.19349  0.78105  0.75300  1.0000
  H   H748      1.0  0.19742  0.63790  0.87946  1.0000
  C   C632      1.0  0.17398  0.62019  0.68557  1.0000
  C   C633      1.0  0.20366  0.62699  0.87003  1.0000
  H   H749      1.0  0.22310  0.78234  0.68503  1.0000
  H   H750      1.0  0.16926  0.60006  0.89058  1.0000
  H   H751      1.0  0.19366  0.59400  0.89443  1.0000
  C   C634      1.0  0.00242  0.71942  0.76089  1.0000
  H   H752      1.0  0.13273  0.60728  0.95761  1.0000
  H   H753      1.0  0.15905  0.61743  0.68899  1.0000
  C   C635      1.0  0.18384  0.59233  0.85288  1.0000
  H   H754      1.0  0.21917  0.59245  0.68534  1.0000
  H   H755      1.0  0.19157  0.89353  0.77456  1.0000
  C   C636      1.0  0.18120  0.55824  0.67329  1.0000
  H   H756      1.0  0.13975  0.85952  0.75344  1.0000
  N   N39       1.0  0.18831  0.60176  0.68903  1.0000
  C   C637      1.0  0.18189  0.57031  0.68514  1.0000
  H   H757      1.0  0.01021  0.65564  0.76530  1.0000
  H   H758      1.0  0.98978  0.69860  0.71715  1.0000
  C   C638      1.0  0.19743  0.89358  0.78679  1.0000
  C   C639      1.0  0.15172  0.67255  0.96972  1.0000
  C   C640      1.0  0.03408  0.72712  0.74848  1.0000
  H   H759      1.0  0.15187  0.90753  0.73121  1.0000
  C   C641      1.0  0.99700  0.67543  0.74195  1.0000
  H   H760      1.0  0.16309  0.86257  0.73969  1.0000
  H   H761      1.0  0.17765  0.54410  0.67979  1.0000
  H   H762      1.0  0.20417  0.67846  0.65585  1.0000
  C   C642      1.0  0.14843  0.87066  0.74524  1.0000
  N   N40       1.0  0.21317  0.92971  0.80602  1.0000
  H   H763      1.0  0.19939  0.86297  0.79818  1.0000
  H   H764      1.0  0.14992  0.87852  0.75584  1.0000
  C   C643      1.0  0.20117  0.77175  0.74275  1.0000
  C   C644      1.0  0.03321  0.68708  0.72975  1.0000
  C   C645      1.0  0.01214  0.66682  0.75231  1.0000
  C   C646      1.0  0.15000  0.87531  0.69559  1.0000
  C   C647      1.0  0.23571  0.80607  0.68492  1.0000
  H   H765      1.0  0.14610  0.90986  0.70816  1.0000
  C   C648      1.0  0.03003  0.67245  0.74612  1.0000
  C   C649      1.0  0.15172  0.89919  0.72041  1.0000
  H   H766      1.0  0.04702  0.69155  0.72502  1.0000
  H   H767      1.0  0.22921  0.77506  0.74390  1.0000
  H   H768      1.0  0.20715  0.96731  0.73446  1.0000
  C   C650      1.0  0.14864  0.86465  0.68270  1.0000
  C   C651      1.0  0.13920  0.87279  0.71504  1.0000
  H   H769      1.0  0.14872  0.68864  0.96767  1.0000
  C   C652      1.0  0.20108  0.91079  0.78883  1.0000
  H   H770      1.0  0.23598  0.86612  0.76519  1.0000
  C   C653      1.0  0.23114  0.75708  0.72397  1.0000
  C   C654      1.0  0.20800  0.60609  0.68361  1.0000
  C   C655      1.0  0.13204  0.63420  0.96521  1.0000
  H   H771      1.0  0.12028  0.90333  0.74688  1.0000
  C   C656      1.0  0.12011  0.89390  0.73710  1.0000
  Fe  Fe88      1.0  0.20426  0.64019  0.96678  1.0000
  H   H772      1.0  0.19770  0.92366  0.77793  1.0000
  C   C657      1.0  0.21832  0.67806  0.65910  1.0000
  H   H773      1.0  0.19492  0.57961  0.71389  1.0000
  C   C658      1.0  0.00464  0.61443  0.83660  1.0000
  C   C659      1.0  0.03175  0.78832  0.64894  1.0000
  H   H774      1.0  0.20979  0.61530  0.69280  1.0000
  H   H775      1.0  0.22064  0.89214  0.82940  1.0000
  H   H776      1.0  0.11087  0.88347  0.74591  1.0000
  H   H777      1.0  0.18060  0.57156  0.83817  1.0000
  C   C660      1.0  0.00852  0.70725  0.77743  1.0000
  H   H778      1.0  0.06389  0.68310  0.78226  1.0000
  H   H779      1.0  0.99710  0.76282  0.69097  1.0000
  C   C661      1.0  0.21374  0.89342  0.81756  1.0000
  H   H780      1.0  0.02552  0.67344  0.82483  1.0000
  C   C662      1.0  0.13659  0.85127  0.68870  1.0000
  H   H781      1.0  0.21152  0.61395  0.66829  1.0000
  H   H782      1.0  0.01999  0.79831  0.65600  1.0000
  H   H783      1.0  0.22288  0.81317  0.69375  1.0000
  S   S171      1.0  0.22473  0.81834  0.73522  1.0000
  H   H784      1.0  0.04392  0.73500  0.73724  1.0000
  H   H785      1.0  0.19692  0.95811  0.81035  1.0000
  H   H786      1.0  0.16074  0.66882  0.95585  1.0000
  H   H787      1.0  0.22578  0.66250  0.66150  1.0000
  H   H788      1.0  0.17422  0.63033  0.69458  1.0000
  H   H789      1.0  0.07734  0.72443  0.64983  1.0000
  Fe  Fe89      1.0  0.23067  0.84277  0.71015  1.0000
  H   H790      1.0  0.17674  0.62808  0.67021  1.0000
  C   C663      1.0  0.00055  0.69067  0.72562  1.0000
  H   H791      1.0  0.22736  0.60349  0.85017  1.0000
  C   C664      1.0  0.19093  0.59437  0.65644  1.0000
  H   H792      1.0  0.23527  0.52277  0.87489  1.0000
  Fe  Fe90      1.0  0.22921  0.83715  0.75296  1.0000
  H   H793      1.0  0.20652  0.81216  0.65616  1.0000
  H   H794      1.0  0.21548  0.56348  0.82354  1.0000
  H   H795      1.0  0.05358  0.79588  0.65882  1.0000
  H   H796      1.0  0.13581  0.84276  0.67879  1.0000
  C   C665      1.0  0.01513  0.72939  0.74651  1.0000
  H   H797      1.0  0.01031  0.73888  0.73376  1.0000
  C   C666      1.0  0.16335  0.68538  0.65211  1.0000
  H   H798      1.0  0.23231  0.89666  0.73792  1.0000
  H   H799      1.0  0.22528  0.94177  0.82328  1.0000
  C   C667      1.0  0.13855  0.64361  0.97646  1.0000
  S   S172      1.0  0.23771  0.86037  0.72748  1.0000
  C   C668      1.0  0.22611  0.93755  0.78798  1.0000
  H   H800      1.0  0.09313  0.74033  0.64764  1.0000
  H   H801      1.0  0.19490  0.60815  0.64914  1.0000
  Fe  Fe91      1.0  0.23164  0.65851  0.93282  1.0000
  S   S173      1.0  0.99005  0.63276  0.80348  1.0000
  H   H802      1.0  0.23842  0.57952  0.83003  1.0000
  H   H803      1.0  0.17650  0.81263  0.64593  1.0000
  H   H804      1.0  0.35987  0.26905  0.16472  1.0000
  H   H805      1.0  0.29435  0.01091  0.22444  1.0000
  C   C669      1.0  0.28469  0.24023  0.01315  1.0000
  H   H806      1.0  0.24754  0.07450  0.26163  1.0000
  H   H807      1.0  0.33660  0.42021  0.21485  1.0000
  S   S174      1.0  0.34628  0.12863  0.01554  1.0000
  S   S175      1.0  0.32453  0.02982  0.29527  1.0000
  S   S176      1.0  0.26292  0.24133  0.09141  1.0000
  Fe  Fe92      1.0  0.26598  0.34300  0.21531  1.0000
  S   S177      1.0  0.26005  0.36735  0.19028  1.0000
  H   H808      1.0  0.29278  0.09483  0.30277  1.0000
  Fe  Fe93      1.0  0.30864  0.34430  0.20707  1.0000
  S   S178      1.0  0.30649  0.36868  0.18106  1.0000
  S   S179      1.0  0.33478  0.33045  0.22047  1.0000
  Fe  Fe94      1.0  0.27883  0.38176  0.19967  1.0000
  S   S180      1.0  0.26763  0.41155  0.20710  1.0000
  Fe  Fe95      1.0  0.28784  0.35200  0.17405  1.0000
  S   S181      1.0  0.29112  0.34416  0.14513  1.0000
  S   S182      1.0  0.28244  0.35852  0.22615  1.0000
  S   S183      1.0  0.29243  0.32663  0.19860  1.0000
  Fe  Fe96      1.0  0.36137  0.16063  0.10297  1.0000
  S   S184      1.0  0.33124  0.16020  0.12055  1.0000
  S   S185      1.0  0.36884  0.17053  0.07037  1.0000
  Fe  Fe97      1.0  0.37901  0.15206  0.13853  1.0000
  S   S186      1.0  0.35057  0.15088  0.15909  1.0000
  S   S187      1.0  0.40460  0.14646  0.15244  1.0000
  Fe  Fe98      1.0  0.34569  0.13402  0.13978  1.0000
  S   S188      1.0  0.33227  0.10828  0.15474  1.0000
  Fe  Fe99      1.0  0.33879  0.17698  0.13843  1.0000
  S   S189      1.0  0.31888  0.20232  0.14999  1.0000
  S   S190      1.0  0.37528  0.13284  0.12069  1.0000
  S   S191      1.0  0.36760  0.17982  0.11938  1.0000
  Fe  Fe100     1.0  0.46101  0.23530  0.19078  1.0000
  S   S192      1.0  0.43086  0.24701  0.20610  1.0000
  Fe  Fe101     1.0  0.44592  0.22518  0.16022  1.0000
  S   S193      1.0  0.41489  0.23545  0.17345  1.0000
  S   S194      1.0  0.45033  0.21401  0.13314  1.0000
  Fe  Fe102     1.0  0.42500  0.26083  0.17641  1.0000
  S   S195      1.0  0.40883  0.29113  0.16603  1.0000
  Fe  Fe103     1.0  0.42371  0.22055  0.20173  1.0000
  S   S196      1.0  0.40620  0.20101  0.22456  1.0000
  S   S197      1.0  0.45583  0.25159  0.16121  1.0000
  S   S198      1.0  0.45397  0.20789  0.18827  1.0000
  Fe  Fe104     1.0  0.34893  0.04538  0.28947  1.0000
  S   S199      1.0  0.33970  0.06667  0.26368  1.0000
  C   C670      1.0  0.44439  0.29928  0.18466  1.0000
  S   S200      1.0  0.33561  0.02928  0.24848  1.0000
  Fe  Fe105     1.0  0.35896  0.04484  0.24670  1.0000
  S   S201      1.0  0.37845  0.05599  0.21890  1.0000
  Fe  Fe106     1.0  0.31719  0.04932  0.26790  1.0000
  S   S202      1.0  0.28734  0.06427  0.26324  1.0000
  S   S203      1.0  0.37004  0.02442  0.27231  1.0000
  H   H809      1.0  0.30504  0.99461  0.27406  1.0000
  C   C671      1.0  0.29184  0.00615  0.27252  1.0000
  H   H810      1.0  0.24605  0.20617  0.03759  1.0000
  H   H811      1.0  0.42235  0.16346  0.20464  1.0000
  C   C672      1.0  0.26714  0.05746  0.28019  1.0000
  H   H812      1.0  0.28046  0.24836  0.04988  1.0000
  H   H813      1.0  0.24200  0.47276  0.19773  1.0000
  H   H814      1.0  0.39587  0.28439  0.24484  1.0000
  S   S204      1.0  0.43117  0.08940  0.29149  1.0000
  C   C673      1.0  0.38575  0.18965  0.18703  1.0000
  C   C674      1.0  0.42080  0.15006  0.21514  1.0000
  N   N41       1.0  0.34330  0.29340  0.14779  1.0000
  H   H815      1.0  0.28082  0.20055  0.08386  1.0000
  H   H816      1.0  0.41383  0.30386  0.21706  1.0000
  C   C675      1.0  0.41518  0.19403  0.24608  1.0000
  C   C676      1.0  0.40905  0.17892  0.26083  1.0000
  C   C677      1.0  0.41671  0.17287  0.27775  1.0000
  C   C678      1.0  0.42996  0.18246  0.28021  1.0000
  C   C679      1.0  0.43580  0.19777  0.26564  1.0000
  C   C680      1.0  0.42871  0.20331  0.24846  1.0000
  H   H817      1.0  0.39866  0.17163  0.25903  1.0000
  H   H818      1.0  0.41217  0.16100  0.28897  1.0000
  H   H819      1.0  0.44614  0.20511  0.26745  1.0000
  H   H820      1.0  0.43376  0.21475  0.23712  1.0000
  C   C681      1.0  0.36553  0.06979  0.20087  1.0000
  C   C682      1.0  0.37545  0.07905  0.18317  1.0000
  C   C683      1.0  0.36524  0.09110  0.16911  1.0000
  C   C684      1.0  0.34514  0.09328  0.17234  1.0000
  C   C685      1.0  0.33528  0.08359  0.18980  1.0000
  C   C686      1.0  0.34541  0.07212  0.20418  1.0000
  H   H821      1.0  0.39102  0.07714  0.18044  1.0000
  H   H822      1.0  0.37296  0.09842  0.15561  1.0000
  H   H823      1.0  0.31973  0.08531  0.19239  1.0000
  H   H824      1.0  0.33760  0.06516  0.21781  1.0000
  C   C687      1.0  0.43745  0.19543  0.13845  1.0000
  C   C688      1.0  0.42513  0.19557  0.12652  1.0000
  C   C689      1.0  0.41511  0.18047  0.13055  1.0000
  C   C690      1.0  0.41749  0.16517  0.14648  1.0000
  C   C691      1.0  0.42995  0.16497  0.15827  1.0000
  C   C692      1.0  0.43966  0.18023  0.15447  1.0000
  H   H825      1.0  0.42346  0.20729  0.11407  1.0000
  H   H826      1.0  0.40589  0.18054  0.12113  1.0000
  H   H827      1.0  0.43208  0.15303  0.17041  1.0000
  H   H828      1.0  0.44926  0.18000  0.16365  1.0000
  C   C693      1.0  0.28309  0.42824  0.19975  1.0000
  C   C694      1.0  0.29974  0.42596  0.18520  1.0000
  C   C695      1.0  0.31190  0.43942  0.17988  1.0000
  C   C696      1.0  0.30753  0.45517  0.18912  1.0000
  C   C697      1.0  0.29086  0.45741  0.20369  1.0000
  C   C698      1.0  0.27865  0.44403  0.20889  1.0000
  H   H829      1.0  0.30318  0.41393  0.17791  1.0000
  H   H830      1.0  0.24840  0.29693  0.21029  1.0000
  S   S205      1.0  0.43921  0.17572  0.30147  1.0000
  H   H831      1.0  0.26582  0.44581  0.22015  1.0000
  C   C699      1.0  0.35493  0.31907  0.20524  1.0000
  C   C700      1.0  0.36687  0.30196  0.21305  1.0000
  C   C701      1.0  0.38329  0.29298  0.20109  1.0000
  C   C702      1.0  0.38814  0.30149  0.18143  1.0000
  C   C703      1.0  0.37631  0.31870  0.17370  1.0000
  C   C704      1.0  0.35958  0.32732  0.18550  1.0000
  H   H832      1.0  0.36328  0.29555  0.22833  1.0000
  H   H833      1.0  0.39230  0.27964  0.20711  1.0000
  H   H834      1.0  0.38008  0.32537  0.15851  1.0000
  H   H835      1.0  0.35053  0.34062  0.17943  1.0000
  C   C705      1.0  0.27853  0.23160  0.10780  1.0000
  C   C706      1.0  0.29724  0.22155  0.10126  1.0000
  C   C707      1.0  0.30961  0.21256  0.11425  1.0000
  C   C708      1.0  0.30344  0.21390  0.13378  1.0000
  C   C709      1.0  0.28498  0.22449  0.14025  1.0000
  C   C710      1.0  0.27248  0.23327  0.12726  1.0000
  H   H836      1.0  0.30218  0.22065  0.08614  1.0000
  H   H837      1.0  0.32400  0.20472  0.10911  1.0000
  H   H838      1.0  0.28020  0.22556  0.15535  1.0000
  H   H839      1.0  0.25807  0.24096  0.13242  1.0000
  C   C711      1.0  0.24663  0.33179  0.28541  1.0000
  C   C712      1.0  0.32967  0.25303  0.13236  1.0000
  C   C713      1.0  0.27154  0.32984  0.12603  1.0000
  C   C714      1.0  0.27096  0.33644  0.14273  1.0000
  C   C715      1.0  0.25223  0.03996  0.31127  1.0000
  C   C716      1.0  0.27463  0.26319  0.04213  1.0000
  C   C717      1.0  0.40956  0.08062  0.29807  1.0000
  H   H840      1.0  0.28436  0.32958  0.11458  1.0000
  C   C718      1.0  0.44234  0.28542  0.21910  1.0000
  H   H841      1.0  0.25159  0.29118  0.17744  1.0000
  H   H842      1.0  0.39624  0.19944  0.18049  1.0000
  H   H843      1.0  0.26465  0.33395  0.25683  1.0000
  C   C719      1.0  0.30461  0.28181  0.12874  1.0000
  H   H844      1.0  0.31921  0.36964  0.26584  1.0000
  H   H845      1.0  0.27160  0.17845  0.09312  1.0000
  H   H846      1.0  0.35588  0.30624  0.11867  1.0000
  C   C720      1.0  0.36308  0.15838  0.05526  1.0000
  C   C721      1.0  0.35659  0.14095  0.06273  1.0000
  C   C722      1.0  0.35180  0.13179  0.05032  1.0000
  C   C723      1.0  0.35306  0.14019  0.03050  1.0000
  C   C724      1.0  0.35945  0.15768  0.02309  1.0000
  C   C725      1.0  0.36464  0.16663  0.03540  1.0000
  H   H847      1.0  0.35538  0.13445  0.07802  1.0000
  H   H848      1.0  0.34695  0.11821  0.05611  1.0000
  H   H849      1.0  0.36061  0.16419  0.00781  1.0000
  H   H850      1.0  0.36964  0.18012  0.02953  1.0000
  H   H851      1.0  0.41285  0.25442  0.26371  1.0000
  C   C726      1.0  0.40604  0.07048  0.28582  1.0000
  S   S206      1.0  0.46161  0.12238  0.29742  1.0000
  C   C727      1.0  0.25133  0.28362  0.02392  1.0000
  H   H852      1.0  0.32523  0.17888  0.05189  1.0000
  C   C728      1.0  0.41149  0.28005  0.24096  1.0000
  H   H853      1.0  0.41674  0.06782  0.27290  1.0000
  H   H854      1.0  0.35343  0.25439  0.14310  1.0000
  H   H855      1.0  0.29086  0.28917  0.12469  1.0000
  C   C729      1.0  0.46220  0.18478  0.09239  1.0000
  H   H856      1.0  0.25587  0.31901  0.11096  1.0000
  H   H857      1.0  0.37218  0.27672  0.13988  1.0000
  H   H858      1.0  0.30435  0.25516  0.12144  1.0000
  N   N42       1.0  0.25905  0.26313  0.03248  1.0000
  H   H859      1.0  0.26079  0.19999  0.06544  1.0000
  H   H860      1.0  0.42936  0.30797  0.18617  1.0000
  H   H861      1.0  0.33412  0.32119  0.12943  1.0000
  C   C730      1.0  0.28012  0.98649  0.25778  1.0000
  C   C731      1.0  0.45166  0.26851  0.23072  1.0000
  H   H862      1.0  0.25572  0.02024  0.26858  1.0000
  H   H863      1.0  0.44840  0.24428  0.25475  1.0000
  H   H864      1.0  0.39280  0.17571  0.18225  1.0000
  C   C732      1.0  0.27718  0.22926  0.98776  1.0000
  H   H865      1.0  0.25367  0.34156  0.17039  1.0000
  C   C733      1.0  0.42101  0.26323  0.25164  1.0000
  C   C734      1.0  0.26884  0.04486  0.29803  1.0000
  H   H866      1.0  0.32473  0.43766  0.16853  1.0000
  H   H867      1.0  0.32628  0.28803  0.17676  1.0000
  C   C735      1.0  0.33280  0.28246  0.14090  1.0000
  C   C736      1.0  0.26556  0.25137  0.01726  1.0000
  H   H868      1.0  0.38639  0.05565  0.28071  1.0000
  C   C737      1.0  0.38888  0.06351  0.29026  1.0000
  C   C738      1.0  0.26642  0.02111  0.25458  1.0000
  H   H869      1.0  0.31337  0.00157  0.23823  1.0000
  C   C739      1.0  0.34753  0.31059  0.13254  1.0000
  N   N43       1.0  0.42871  0.15561  0.07256  1.0000
  C   C740      1.0  0.41227  0.15097  0.08851  1.0000
  C   C741      1.0  0.42049  0.16706  0.05540  1.0000
  C   C742      1.0  0.44096  0.13723  0.06742  1.0000
  C   C743      1.0  0.44025  0.16583  0.07902  1.0000
  C   C744      1.0  0.44895  0.15672  0.09530  1.0000
  C   C745      1.0  0.44305  0.18491  0.06969  1.0000
  C   C746      1.0  0.45975  0.16609  0.10183  1.0000
  C   C747      1.0  0.25544  0.32384  0.12396  1.0000
  N   N44       1.0  0.28433  0.00588  0.25555  1.0000
  H   H870      1.0  0.40285  0.16443  0.09290  1.0000
  H   H871      1.0  0.40303  0.14358  0.08403  1.0000
  H   H872      1.0  0.41695  0.14123  0.10170  1.0000
  H   H873      1.0  0.41031  0.18070  0.05857  1.0000
  H   H874      1.0  0.41176  0.15898  0.05107  1.0000
  H   H875      1.0  0.43202  0.17064  0.04251  1.0000
  H   H876      1.0  0.44606  0.12688  0.08011  1.0000
  H   H877      1.0  0.43289  0.12951  0.06183  1.0000
  H   H878      1.0  0.45396  0.14004  0.05601  1.0000
  H   H879      1.0  0.44714  0.14239  0.10342  1.0000
  H   H880      1.0  0.43687  0.19312  0.05734  1.0000
  S   S207      1.0  0.48498  0.23266  0.20640  1.0000
  C   C748      1.0  0.29687  0.17281  0.03705  1.0000
  H   H881      1.0  0.26950  0.03599  0.25109  1.0000
  C   C749      1.0  0.33995  0.26271  0.13924  1.0000
  C   C750      1.0  0.29891  0.01128  0.23776  1.0000
  C   C751      1.0  0.45388  0.19416  0.07638  1.0000
  C   C752      1.0  0.24575  0.42243  0.26220  1.0000
  C   C753      1.0  0.36199  0.28178  0.15270  1.0000
  C   C754      1.0  0.25424  0.33686  0.15735  1.0000
  H   H882      1.0  0.25928  0.02018  0.24317  1.0000
  N   N45       1.0  0.36688  0.19805  0.18098  1.0000
  C   C755      1.0  0.35463  0.18327  0.18919  1.0000
  C   C756      1.0  0.37066  0.20141  0.15951  1.0000
  C   C757      1.0  0.35669  0.21642  0.18743  1.0000
  C   C758      1.0  0.33801  0.22568  0.18365  1.0000
  C   C759      1.0  0.36462  0.22545  0.19781  1.0000
  C   C760      1.0  0.32764  0.24243  0.19052  1.0000
  C   C761      1.0  0.35415  0.24219  0.20464  1.0000
  C   C762      1.0  0.33559  0.25050  0.20126  1.0000
  H   H883      1.0  0.34123  0.18714  0.18324  1.0000
  H   H884      1.0  0.36239  0.16886  0.18575  1.0000
  H   H885      1.0  0.35024  0.18136  0.20527  1.0000
  H   H886      1.0  0.35713  0.20674  0.15376  1.0000
  H   H887      1.0  0.38014  0.21214  0.15269  1.0000
  H   H888      1.0  0.38401  0.18652  0.20312  1.0000
  H   H889      1.0  0.33112  0.21981  0.17561  1.0000
  H   H890      1.0  0.37880  0.21972  0.20116  1.0000
  H   H891      1.0  0.31325  0.24896  0.18773  1.0000
  H   H892      1.0  0.36042  0.24854  0.21289  1.0000
  H   H893      1.0  0.32736  0.26317  0.20707  1.0000
  H   H894      1.0  0.37800  0.18774  0.15430  1.0000
  H   H895      1.0  0.29268  0.43160  0.27701  1.0000
  Fe  Fe107     1.0  0.43885  0.10444  0.31117  1.0000
  H   H896      1.0  0.32854  0.45218  0.22283  1.0000
  H   H897      1.0  0.43535  0.15631  0.23428  1.0000
  H   H898      1.0  0.35610  0.31875  0.13694  1.0000
  H   H899      1.0  0.31936  0.35762  0.24733  1.0000
  H   H900      1.0  0.35250  0.98755  0.24263  1.0000
  H   H901      1.0  0.25136  0.38264  0.26165  1.0000
  H   H902      1.0  0.30000  0.39939  0.26998  1.0000
  C   C763      1.0  0.42816  0.14609  0.23189  1.0000
  H   H903      1.0  0.29272  0.18087  0.09966  1.0000
  N   N46       1.0  0.40002  0.10484  0.22256  1.0000
  C   C764      1.0  0.41453  0.08659  0.22082  1.0000
  C   C765      1.0  0.38403  0.10061  0.23933  1.0000
  C   C766      1.0  0.39170  0.11124  0.20481  1.0000
  C   C767      1.0  0.40935  0.11932  0.22560  1.0000
  C   C768      1.0  0.41160  0.13689  0.21188  1.0000
  C   C769      1.0  0.41707  0.11579  0.24248  1.0000
  H   H904      1.0  0.30667  0.45821  0.25375  1.0000
  C   C770      1.0  0.42626  0.12902  0.24556  1.0000
  H   H905      1.0  0.42019  0.07987  0.23433  1.0000
  H   H906      1.0  0.40826  0.07547  0.21787  1.0000
  H   H907      1.0  0.42710  0.08920  0.20875  1.0000
  H   H908      1.0  0.38918  0.09381  0.25307  1.0000
  H   H909      1.0  0.37637  0.09016  0.23712  1.0000
  H   H910      1.0  0.37316  0.11407  0.24167  1.0000
  H   H911      1.0  0.40306  0.11315  0.19131  1.0000
  H   H912      1.0  0.38416  0.10035  0.20346  1.0000
  H   H913      1.0  0.38072  0.12500  0.20505  1.0000
  H   H914      1.0  0.40656  0.14069  0.19843  1.0000
  H   H915      1.0  0.41628  0.10264  0.25343  1.0000
  H   H916      1.0  0.43199  0.12593  0.25863  1.0000
  N   N47       1.0  0.29728  0.17646  0.07040  1.0000
  C   C771      1.0  0.30305  0.15515  0.07712  1.0000
  C   C772      1.0  0.31489  0.18486  0.06409  1.0000
  C   C773      1.0  0.31475  0.29162  0.13556  1.0000
  H   H917      1.0  0.30835  0.30654  0.13655  1.0000
  H   H918      1.0  0.45559  0.20884  0.06933  1.0000
  Fe  Fe108     1.0  0.34472  0.01068  0.27558  1.0000
  H   H919      1.0  0.31389  0.14807  0.06591  1.0000
  H   H920      1.0  0.30986  0.15142  0.09000  1.0000
  H   H921      1.0  0.29033  0.14811  0.08114  1.0000
  H   H922      1.0  0.31120  0.16363  0.03591  1.0000
  H   H923      1.0  0.32292  0.18174  0.07602  1.0000
  C   C774      1.0  0.28500  0.18444  0.08743  1.0000
  N   N48       1.0  0.45299  0.29697  0.20170  1.0000
  H   H924      1.0  0.31123  0.20088  0.05908  1.0000
  C   C775      1.0  0.26963  0.18838  0.02159  1.0000
  H   H925      1.0  0.36962  0.29041  0.15764  1.0000
  N   N49       1.0  0.32475  0.38676  0.23673  1.0000
  C   C776      1.0  0.31947  0.38783  0.21810  1.0000
  C   C777      1.0  0.34595  0.37954  0.23464  1.0000
  C   C778      1.0  0.31513  0.37205  0.25158  1.0000
  C   C779      1.0  0.31930  0.40628  0.24158  1.0000
  C   C780      1.0  0.32705  0.42197  0.22863  1.0000
  C   C781      1.0  0.30665  0.41029  0.25920  1.0000
  C   C782      1.0  0.32254  0.44040  0.23307  1.0000
  C   C783      1.0  0.30226  0.42881  0.26347  1.0000
  C   C784      1.0  0.31015  0.44384  0.25042  1.0000
  H   H926      1.0  0.32707  0.39748  0.20570  1.0000
  H   H927      1.0  0.32320  0.37333  0.21414  1.0000
  H   H928      1.0  0.30367  0.39336  0.21899  1.0000
  H   H929      1.0  0.35425  0.38883  0.22248  1.0000
  H   H930      1.0  0.35044  0.36460  0.23152  1.0000
  H   H931      1.0  0.35068  0.37907  0.24814  1.0000
  H   H932      1.0  0.29910  0.37630  0.25347  1.0000
  H   H933      1.0  0.29050  0.07141  0.30125  1.0000
  H   H934      1.0  0.33890  0.30749  0.17178  1.0000
  H   H935      1.0  0.28669  0.26924  0.03159  1.0000
  C   C785      1.0  0.31214  0.26261  0.12700  1.0000
  H   H936      1.0  0.46572  0.15911  0.11468  1.0000
  C   C786      1.0  0.33109  0.30024  0.16541  1.0000
  H   H937      1.0  0.31784  0.31106  0.16233  1.0000
  C   C787      1.0  0.28755  0.18076  0.05382  1.0000
  H   H938      1.0  0.45975  0.32548  0.19268  1.0000
  C   C788      1.0  0.28791  0.17647  0.02132  1.0000
  H   H939      1.0  0.44391  0.28492  0.18235  1.0000
  H   H940      1.0  0.33529  0.23798  0.13111  1.0000
  C   C789      1.0  0.26896  0.19310  0.05351  1.0000
  H   H941      1.0  0.26280  0.19113  0.00929  1.0000
  C   C790      1.0  0.25248  0.25063  0.00614  1.0000
  H   H942      1.0  0.26245  0.28992  0.01211  1.0000
  S   S208      1.0  0.32326  0.47165  0.18207  1.0000
  H   H943      1.0  0.47005  0.19224  0.09792  1.0000
  C   C791      1.0  0.26024  0.19680  0.03756  1.0000
  H   H944      1.0  0.26915  0.27219  0.05348  1.0000
  H   H945      1.0  0.48174  0.28666  0.20799  1.0000
  C   C792      1.0  0.24044  0.44895  0.27866  1.0000
  H   H946      1.0  0.25656  0.33592  0.29158  1.0000
  H   H947      1.0  0.29515  0.16995  0.00882  1.0000
  H   H948      1.0  0.28741  0.46932  0.21109  1.0000
  H   H949      1.0  0.45764  0.31524  0.21825  1.0000
  C   C793      1.0  0.29700  0.07900  0.30859  1.0000
  H   H950      1.0  0.30493  0.22089  0.99566  1.0000
  C   C794      1.0  0.24890  0.06481  0.27547  1.0000
  C   C795      1.0  0.44105  0.25756  0.24661  1.0000
  C   C796      1.0  0.29030  0.22937  0.99859  1.0000
  H   H951      1.0  0.29561  0.23964  0.02093  1.0000
  H   H952      1.0  0.43640  0.32459  0.20800  1.0000
  H   H953      1.0  0.24801  0.23959  0.98324  1.0000
  C   C797      1.0  0.25112  0.43884  0.26419  1.0000
  H   H954      1.0  0.47572  0.27338  0.19330  1.0000
  H   H955      1.0  0.30111  0.02628  0.23601  1.0000
  Fe  Fe109     1.0  0.34383  0.14448  0.98488  1.0000
  H   H956      1.0  0.48192  0.16663  0.28189  1.0000
  C   C798      1.0  0.42194  0.29107  0.22498  1.0000
  H   H957      1.0  0.26362  0.44382  0.25439  1.0000
  H   H958      1.0  0.25458  0.41542  0.25054  1.0000
  C   C799      1.0  0.45162  0.31643  0.20531  1.0000
  C   C800      1.0  0.25106  0.33102  0.26567  1.0000
  H   H959      1.0  0.46709  0.26304  0.22756  1.0000
  S   S209      1.0  0.24170  0.32807  0.23244  1.0000
  H   H960      1.0  0.29578  0.02030  0.27113  1.0000
  H   H961      1.0  0.24632  0.29291  0.03501  1.0000
  C   C801      1.0  0.25829  0.23981  0.99158  1.0000
  H   H962      1.0  0.24468  0.46161  0.28021  1.0000
  H   H963      1.0  0.28287  0.03898  0.30172  1.0000
  C   C802      1.0  0.24351  0.25540  0.04771  1.0000
  H   H964      1.0  0.24884  0.24023  0.05501  1.0000
  H   H965      1.0  0.26621  0.47768  0.17068  1.0000
  H   H966      1.0  0.45278  0.30673  0.17100  1.0000
  H   H967      1.0  0.28107  0.00384  0.28636  1.0000
  C   C803      1.0  0.47384  0.28802  0.19637  1.0000
  H   H968      1.0  0.25671  0.98899  0.28320  1.0000
  H   H969      1.0  0.31288  0.07426  0.30364  1.0000
  H   H970      1.0  0.48141  0.29672  0.18301  1.0000
  C   C804      1.0  0.37520  0.06642  0.30717  1.0000
  C   C805      1.0  0.24073  0.48369  0.20582  1.0000
  C   C806      1.0  0.23851  0.32498  0.13835  1.0000
  H   H971      1.0  0.23857  0.28519  0.01767  1.0000
  Fe  Fe110     1.0  0.30977  0.09968  0.62103  1.0000
  S   S210      1.0  0.33355  0.11355  0.60105  1.0000
  H   H972      1.0  0.29455  0.07397  0.57991  1.0000
  Fe  Fe111     1.0  0.28135  0.13762  0.62144  1.0000
  S   S211      1.0  0.30285  0.15522  0.60210  1.0000
  H   H973      1.0  0.41039  0.22277  0.64212  1.0000
  Fe  Fe112     1.0  0.31089  0.13199  0.58458  1.0000
  S   S212      1.0  0.31538  0.14131  0.55184  1.0000
  Fe  Fe113     1.0  0.32394  0.13552  0.62019  1.0000
  S   S213      1.0  0.35028  0.14215  0.62632  1.0000
  S   S214      1.0  0.28807  0.11584  0.60268  1.0000
  C   C807      1.0  0.24531  0.19699  0.64563  1.0000
  H   H974      1.0  0.27893  0.16660  0.57057  1.0000
  Fe  Fe114     1.0  0.47392  0.10915  0.32417  1.0000
  S   S215      1.0  0.45592  0.13215  0.34026  1.0000
  C   C808      1.0  0.24295  0.06543  0.40328  1.0000
  H   H975      1.0  0.31555  0.05096  0.33325  1.0000
  H   H976      1.0  0.31114  0.02435  0.38677  1.0000
  S   S216      1.0  0.24159  0.00799  0.36316  1.0000
  Fe  Fe115     1.0  0.43400  0.11317  0.35064  1.0000
  S   S217      1.0  0.42096  0.10871  0.38266  1.0000
  H   H977      1.0  0.37137  0.04691  0.37400  1.0000
  S   S218      1.0  0.45303  0.08896  0.33649  1.0000
  H   H978      1.0  0.33895  0.07206  0.51169  1.0000
  Fe  Fe116     1.0  0.31895  0.09748  0.42875  1.0000
  S   S219      1.0  0.29602  0.08372  0.45082  1.0000
  S   S220      1.0  0.34094  0.08191  0.40676  1.0000
  Fe  Fe117     1.0  0.29975  0.13763  0.43676  1.0000
  S   S221      1.0  0.27476  0.12761  0.45882  1.0000
  S   S222      1.0  0.30539  0.16782  0.42826  1.0000
  Fe  Fe118     1.0  0.29766  0.10309  0.46975  1.0000
  S   S223      1.0  0.29514  0.09232  0.50216  1.0000
  Fe  Fe119     1.0  0.27527  0.10926  0.43803  1.0000
  C   C809      1.0  0.47050  0.08588  0.40992  1.0000
  S   S224      1.0  0.32285  0.11430  0.44889  1.0000
  S   S225      1.0  0.29800  0.12193  0.41483  1.0000
  C   C810      1.0  0.36946  0.18765  0.62496  1.0000
  H   H979      1.0  0.36370  0.02002  0.34186  1.0000
  H   H980      1.0  0.25482  0.18781  0.59009  1.0000
  Fe  Fe120     1.0  0.44197  0.14394  0.31449  1.0000
  C   C811      1.0  0.28516  0.18667  0.43168  1.0000
  S   S226      1.0  0.26741  0.03639  0.38553  1.0000
  C   C812      1.0  0.34277  0.00484  0.34165  1.0000
  C   C813      1.0  0.26189  0.05496  0.39873  1.0000
  C   C814      1.0  0.27682  0.05990  0.40404  1.0000
  C   C815      1.0  0.27289  0.07528  0.41371  1.0000
  S   S227      1.0  0.31364  0.06781  0.63417  1.0000
  C   C816      1.0  0.25042  0.19918  0.43827  1.0000
  H   H981      1.0  0.29145  0.05183  0.40074  1.0000
  H   H982      1.0  0.28458  0.07905  0.41754  1.0000
  N   N50       1.0  0.34563  0.03722  0.37431  1.0000
  C   C817      1.0  0.39925  0.10027  0.38936  1.0000
  C   C818      1.0  0.38857  0.09955  0.40841  1.0000
  C   C819      1.0  0.37070  0.09376  0.41388  1.0000
  C   C820      1.0  0.36364  0.08836  0.40040  1.0000
  C   C821      1.0  0.37465  0.08839  0.38152  1.0000
  C   C822      1.0  0.39234  0.09458  0.37592  1.0000
  H   H983      1.0  0.39395  0.10379  0.41888  1.0000
  H   H984      1.0  0.36241  0.09345  0.42856  1.0000
  H   H985      1.0  0.36929  0.08415  0.37104  1.0000
  H   H986      1.0  0.40062  0.09494  0.36124  1.0000
  N   N51       1.0  0.24609  0.18237  0.49973  1.0000
  H   H987      1.0  0.39843  0.09152  0.32447  1.0000
  C   C823      1.0  0.37864  0.07658  0.31951  1.0000
  H   H988      1.0  0.27500  0.23489  0.43195  1.0000
  H   H989      1.0  0.24951  0.15372  0.49433  1.0000
  H   H990      1.0  0.32677  0.03445  0.40292  1.0000
  H   H991      1.0  0.38358  0.13682  0.64225  1.0000
  C   C824      1.0  0.31375  0.00704  0.36656  1.0000
  C   C825      1.0  0.33971  0.08143  0.56146  1.0000
  H   H992      1.0  0.29465  0.04371  0.33097  1.0000
  S   S228      1.0  0.24890  0.10551  0.42988  1.0000
  C   C826      1.0  0.33906  0.02380  0.36635  1.0000
  C   C827      1.0  0.33447  0.05709  0.36869  1.0000
  H   H993      1.0  0.34443  0.19917  0.64474  1.0000
  H   H994      1.0  0.26379  0.06940  0.34993  1.0000
  H   H995      1.0  0.29152  0.17863  0.53594  1.0000
  H   H996      1.0  0.29783  0.05936  0.60338  1.0000
  C   C828      1.0  0.36654  0.03760  0.36697  1.0000
  H   H997      1.0  0.30903  0.02942  0.59147  1.0000
  H   H998      1.0  0.34038  0.05792  0.59751  1.0000
  C   C829      1.0  0.30815  0.12858  0.53828  1.0000
  C   C830      1.0  0.29950  0.11264  0.54733  1.0000
  C   C831      1.0  0.29497  0.10201  0.53611  1.0000
  C   C832      1.0  0.29910  0.10723  0.51576  1.0000
  C   C833      1.0  0.30709  0.12362  0.50671  1.0000
  C   C834      1.0  0.31162  0.13425  0.51796  1.0000
  H   H999      1.0  0.29672  0.10825  0.56293  1.0000
  H   H1000     1.0  0.28873  0.08939  0.54315  1.0000
  H   H1001     1.0  0.31033  0.12774  0.49103  1.0000
  H   H1002     1.0  0.31831  0.14659  0.51087  1.0000
  H   H1003     1.0  0.34881  0.01626  0.40081  1.0000
  H   H1004     1.0  0.39359  0.18038  0.32486  1.0000
  H   H1005     1.0  0.28581  0.10321  0.38218  1.0000
  H   H1006     1.0  0.36107  0.18453  0.61625  1.0000
  H   H1007     1.0  0.26839  0.19010  0.47478  1.0000
  H   H1008     1.0  0.30953  0.07929  0.59305  1.0000
  C   C835      1.0  0.26624  0.18361  0.43570  1.0000
  H   H1009     1.0  0.42058  0.17204  0.34194  1.0000
  C   C836      1.0  0.40042  0.18569  0.63238  1.0000
  H   H1010     1.0  0.32988  0.03728  0.60676  1.0000
  Fe  Fe121     1.0  0.24091  0.02821  0.38210  1.0000
  H   H1011     1.0  0.30378  0.04303  0.56867  1.0000
  C   C837      1.0  0.29375  0.10061  0.36797  1.0000
  H   H1012     1.0  0.34876  0.04069  0.40193  1.0000
  H   H1013     1.0  0.37567  0.02278  0.36977  1.0000
  H   H1014     1.0  0.26382  0.16937  0.43648  1.0000
  C   C838      1.0  0.36011  0.19591  0.64103  1.0000
  H   H1015     1.0  0.34593  0.14694  0.35562  1.0000
  H   H1016     1.0  0.48184  0.07072  0.37837  1.0000
  H   H1017     1.0  0.32748  0.02771  0.56996  1.0000
  H   H1018     1.0  0.38544  0.14766  0.39426  1.0000
  C   C839      1.0  0.40660  0.16883  0.34975  1.0000
  H   H1019     1.0  0.36200  0.17284  0.34195  1.0000
  H   H1020     1.0  0.35192  0.15652  0.40913  1.0000
  C   C840      1.0  0.25358  0.21769  0.43702  1.0000
  C   C841      1.0  0.26659  0.18340  0.49058  1.0000
  H   H1021     1.0  0.47009  0.12345  0.39890  1.0000
  C   C842      1.0  0.28823  0.20519  0.43025  1.0000
  C   C843      1.0  0.33143  0.06585  0.56130  1.0000
  H   H1022     1.0  0.26346  0.13818  0.55462  1.0000
  C   C844      1.0  0.25399  0.08590  0.41809  1.0000
  C   C845      1.0  0.24092  0.17004  0.63469  1.0000
  H   H1023     1.0  0.32529  0.05149  0.54105  1.0000
  C   C846      1.0  0.26000  0.19392  0.57499  1.0000
  H   H1024     1.0  0.41621  0.15535  0.37643  1.0000
  C   C847      1.0  0.34985  0.14635  0.40111  1.0000
  H   H1025     1.0  0.35927  0.12780  0.37101  1.0000
  C   C848      1.0  0.47081  0.11630  0.38693  1.0000
  C   C849      1.0  0.32105  0.10407  0.34140  1.0000
  H   H1026     1.0  0.33549  0.14258  0.40818  1.0000
  H   H1027     1.0  0.25994  0.23132  0.59181  1.0000
  H   H1028     1.0  0.24164  0.17323  0.47559  1.0000
  H   H1029     1.0  0.45557  0.11858  0.38539  1.0000
  C   C850      1.0  0.38615  0.15520  0.37933  1.0000
  H   H1030     1.0  0.36807  0.07898  0.33256  1.0000
  H   H1031     1.0  0.33403  0.17938  0.36340  1.0000
  C   C851      1.0  0.31074  0.10747  0.35958  1.0000
  C   C852      1.0  0.28710  0.09008  0.35837  1.0000
  C   C853      1.0  0.37330  0.16921  0.35012  1.0000
  H   H1032     1.0  0.27424  0.08454  0.36601  1.0000
  H   H1033     1.0  0.31604  0.11515  0.36737  1.0000
  C   C854      1.0  0.33968  0.07426  0.52565  1.0000
  C   C855      1.0  0.34235  0.03180  0.39586  1.0000
  H   H1034     1.0  0.47874  0.12432  0.37337  1.0000
  N   N52       1.0  0.48014  0.09539  0.39059  1.0000
  H   H1035     1.0  0.36057  0.13259  0.40348  1.0000
  H   H1036     1.0  0.45477  0.08722  0.41064  1.0000
  C   C856      1.0  0.37012  0.15999  0.37007  1.0000
  C   C857      1.0  0.28079  0.18833  0.54434  1.0000
  H   H1037     1.0  0.34966  0.03745  0.58590  1.0000
  S   S229      1.0  0.41810  0.12725  0.32631  1.0000
  H   H1038     1.0  0.32107  0.16947  0.38660  1.0000
  H   H1039     1.0  0.24745  0.25336  0.56287  1.0000
  C   C858      1.0  0.26040  0.22001  0.54655  1.0000
  C   C859      1.0  0.34766  0.09300  0.54424  1.0000
  H   H1040     1.0  0.26202  0.09200  0.33216  1.0000
  H   H1041     1.0  0.32340  0.09111  0.31783  1.0000
  C   C860      1.0  0.31441  0.09373  0.33158  1.0000
  C   C861      1.0  0.40406  0.15959  0.36922  1.0000
  H   H1042     1.0  0.29532  0.04948  0.35320  1.0000
  C   C862      1.0  0.34728  0.14082  0.37095  1.0000
  H   H1043     1.0  0.33810  0.18389  0.38501  1.0000
  N   N53       1.0  0.35108  0.15504  0.38012  1.0000
  H   H1044     1.0  0.33447  0.10912  0.33498  1.0000
  H   H1045     1.0  0.47159  0.09239  0.42173  1.0000
  H   H1046     1.0  0.26736  0.14994  0.51967  1.0000
  C   C863      1.0  0.39129  0.17358  0.34018  1.0000
  H   H1047     1.0  0.30282  0.20762  0.42710  1.0000
  H   H1048     1.0  0.33884  0.06781  0.37429  1.0000
  N   N54       1.0  0.29078  0.07426  0.33010  1.0000
  C   C864      1.0  0.29947  0.05371  0.33713  1.0000
  H   H1049     1.0  0.31867  0.05811  0.37441  1.0000
  H   H1050     1.0  0.25356  0.03037  0.32509  1.0000
  C   C865      1.0  0.34758  0.08947  0.52637  1.0000
  H   H1051     1.0  0.33677  0.06177  0.35264  1.0000
  H   H1052     1.0  0.33952  0.08523  0.57490  1.0000
  C   C866      1.0  0.32478  0.00006  0.35016  1.0000
  H   H1053     1.0  0.26439  0.06917  0.32570  1.0000
  H   H1054     1.0  0.33366  0.13574  0.37883  1.0000
  C   C867      1.0  0.27249  0.22061  0.43298  1.0000
  C   C868      1.0  0.27407  0.20746  0.53563  1.0000
  H   H1055     1.0  0.27210  0.19220  0.49754  1.0000
  H   H1056     1.0  0.26761  0.17163  0.64104  1.0000
  C   C869      1.0  0.33548  0.17271  0.37860  1.0000
  C   C870      1.0  0.25315  0.21366  0.56671  1.0000
  C   C871      1.0  0.38958  0.18255  0.62063  1.0000
  C   C872      1.0  0.39580  0.08370  0.31496  1.0000
  C   C873      1.0  0.26935  0.07643  0.33469  1.0000
  H   H1057     1.0  0.27639  0.16886  0.49134  1.0000
  C   C874      1.0  0.32066  0.01882  0.37449  1.0000
  H   H1058     1.0  0.35314  0.10533  0.54476  1.0000
  C   C875      1.0  0.29710  0.08650  0.33971  1.0000
  N   N55       1.0  0.32226  0.05445  0.57978  1.0000
  C   C876      1.0  0.33620  0.04641  0.59294  1.0000
  C   C877      1.0  0.30529  0.06731  0.58939  1.0000
  C   C878      1.0  0.31540  0.03793  0.57725  1.0000
  S   S230      1.0  0.24906  0.14678  0.62988  1.0000
  H   H1059     1.0  0.35306  0.09894  0.51305  1.0000
  C   C879      1.0  0.34988  0.01652  0.34953  1.0000
  C   C880      1.0  0.33169  0.06257  0.54280  1.0000
  H   H1060     1.0  0.46080  0.08915  0.37604  1.0000
  H   H1061     1.0  0.42837  0.20118  0.63865  1.0000
  H   H1062     1.0  0.36983  0.04388  0.35114  1.0000
  H   H1063     1.0  0.27486  0.09047  0.63883  1.0000
  C   C881      1.0  0.27373  0.18158  0.56394  1.0000
  C   C882      1.0  0.24377  0.17546  0.52104  1.0000
  H   H1064     1.0  0.39673  0.17565  0.60839  1.0000
  H   H1065     1.0  0.47713  0.07014  0.41326  1.0000
  C   C883      1.0  0.25605  0.15828  0.52892  1.0000
  H   H1066     1.0  0.27967  0.21266  0.52037  1.0000
  H   H1067     1.0  0.35117  0.99967  0.32865  1.0000
  H   H1068     1.0  0.41596  0.18105  0.62867  1.0000
  C   C884      1.0  0.24591  0.22647  0.59608  1.0000
  H   H1069     1.0  0.24817  0.21191  0.60568  1.0000
  C   C885      1.0  0.25380  0.15123  0.54896  1.0000
  H   H1070     1.0  0.25581  0.23463  0.53887  1.0000
  C   C886      1.0  0.25282  0.17890  0.64032  1.0000
  C   C887      1.0  0.47653  0.08673  0.37582  1.0000
  S   S231      1.0  0.30143  0.12023  0.64131  1.0000
  H   H1071     1.0  0.48349  0.09325  0.36090  1.0000
  H   H1072     1.0  0.31930  0.99111  0.34390  1.0000
  H   H1073     1.0  0.29956  0.00360  0.37302  1.0000
  C   C888      1.0  0.23903  0.08095  0.41279  1.0000
  C   C889      1.0  0.23912  0.16083  0.56174  1.0000
  C   C890      1.0  0.24032  0.16854  0.49160  1.0000
  N   N56       1.0  0.23874  0.22651  0.57876  1.0000
  S   S232      1.0  0.35389  0.05717  0.31321  1.0000
  C   C891      1.0  0.25927  0.16930  0.92626  1.0000
  H   H1074     1.0  0.25279  0.41572  0.67229  1.0000
  H   H1075     1.0  0.46263  0.14222  0.73871  1.0000
  C   C892      1.0  0.47641  0.26420  0.76260  1.0000
  H   H1076     1.0  0.38823  0.14529  0.67139  1.0000
  C   C893      1.0  0.26943  0.46277  0.79288  1.0000
  Fe  Fe122     1.0  0.26968  0.38101  0.83575  1.0000
  S   S233      1.0  0.26259  0.39575  0.86075  1.0000
  C   C894      1.0  0.32881  0.07038  0.69634  1.0000
  Fe  Fe123     1.0  0.31283  0.37703  0.83144  1.0000
  S   S234      1.0  0.30941  0.39118  0.85650  1.0000
  S   S235      1.0  0.34156  0.36570  0.81343  1.0000
  Fe  Fe124     1.0  0.28686  0.37313  0.87132  1.0000
  S   S236      1.0  0.28358  0.35435  0.90134  1.0000
  Fe  Fe125     1.0  0.28541  0.41255  0.84366  1.0000
  S   S237      1.0  0.27676  0.44503  0.84123  1.0000
  S   S238      1.0  0.29246  0.35717  0.84734  1.0000
  S   S239      1.0  0.29038  0.39977  0.81742  1.0000
  Fe  Fe126     1.0  0.43128  0.22498  0.84360  1.0000
  S   S240      1.0  0.40336  0.23888  0.83389  1.0000
  S   S241      1.0  0.43246  0.19515  0.86222  1.0000
  Fe  Fe127     1.0  0.45117  0.25793  0.82003  1.0000
  S   S242      1.0  0.42486  0.27441  0.80801  1.0000
  H   H1077     1.0  0.29510  0.48036  0.92063  1.0000
  Fe  Fe128     1.0  0.40850  0.26625  0.83847  1.0000
  S   S243      1.0  0.38503  0.28538  0.85601  1.0000
  Fe  Fe129     1.0  0.42233  0.24553  0.80454  1.0000
  S   S244      1.0  0.41840  0.24111  0.77656  1.0000
  S   S245      1.0  0.43504  0.25175  0.85088  1.0000
  S   S246      1.0  0.45003  0.22973  0.81385  1.0000
  Fe  Fe130     1.0  0.35344  0.17693  0.95073  1.0000
  S   S247      1.0  0.36876  0.20190  0.93907  1.0000
  Fe  Fe131     1.0  0.34566  0.14081  0.94342  1.0000
  S   S248      1.0  0.35459  0.12345  0.91969  1.0000
  S   S249      1.0  0.33349  0.17256  0.93425  1.0000
  Fe  Fe132     1.0  0.40791  0.11789  0.73790  1.0000
  S   S250      1.0  0.37967  0.13781  0.74584  1.0000
  S   S251      1.0  0.40546  0.08668  0.74649  1.0000
  S   S252      1.0  0.40139  0.17348  0.72304  1.0000
  Fe  Fe133     1.0  0.39707  0.15517  0.75307  1.0000
  S   S253      1.0  0.38790  0.16582  0.78122  1.0000
  Fe  Fe134     1.0  0.38650  0.15405  0.71519  1.0000
  S   S254      1.0  0.34131  0.03947  0.87762  1.0000
  S   S255      1.0  0.42496  0.13361  0.74796  1.0000
  Fe  Fe135     1.0  0.31316  0.06087  0.87900  1.0000
  S   S256      1.0  0.30093  0.07501  0.90505  1.0000
  Fe  Fe136     1.0  0.30909  0.05699  0.83944  1.0000
  S   S257      1.0  0.28879  0.06817  0.81849  1.0000
  Fe  Fe137     1.0  0.34847  0.05530  0.84681  1.0000
  S   S258      1.0  0.37630  0.06615  0.83724  1.0000
  S   S259      1.0  0.32105  0.07779  0.84881  1.0000
  C   C895      1.0  0.28747  0.48070  0.76460  1.0000
  H   H1078     1.0  0.26131  0.06987  0.79583  1.0000
  H   H1079     1.0  0.28499  0.12579  0.94779  1.0000
  H   H1080     1.0  0.32047  0.48106  0.91455  1.0000
  H   H1081     1.0  0.25627  0.46740  0.78650  1.0000
  H   H1082     1.0  0.47134  0.14616  0.78585  1.0000
  C   C896      1.0  0.39786  0.08039  0.77171  1.0000
  C   C897      1.0  0.38534  0.06739  0.77974  1.0000
  C   C898      1.0  0.37859  0.06294  0.79991  1.0000
  C   C899      1.0  0.38485  0.07102  0.81206  1.0000
  C   C900      1.0  0.39766  0.08372  0.80403  1.0000
  C   C901      1.0  0.40386  0.08869  0.78386  1.0000
  H   H1083     1.0  0.38068  0.06095  0.77037  1.0000
  H   H1084     1.0  0.36875  0.05309  0.80604  1.0000
  H   H1085     1.0  0.40259  0.08995  0.81338  1.0000
  H   H1086     1.0  0.41363  0.09864  0.77772  1.0000
  C   C902      1.0  0.31617  0.08789  0.90946  1.0000
  C   C903      1.0  0.31191  0.09407  0.92711  1.0000
  C   C904      1.0  0.32346  0.10515  0.93045  1.0000
  C   C905      1.0  0.33922  0.11020  0.91606  1.0000
  C   C906      1.0  0.34344  0.10399  0.89848  1.0000
  C   C907      1.0  0.33212  0.09266  0.89526  1.0000
  H   H1087     1.0  0.29973  0.09015  0.93824  1.0000
  H   H1088     1.0  0.32043  0.10948  0.94423  1.0000
  H   H1089     1.0  0.35544  0.10810  0.88726  1.0000
  H   H1090     1.0  0.33549  0.08798  0.88161  1.0000
  C   C908      1.0  0.40907  0.22063  0.77828  1.0000
  C   C909      1.0  0.40207  0.20946  0.79627  1.0000
  C   C910      1.0  0.39517  0.19287  0.79711  1.0000
  C   C911      1.0  0.39568  0.18715  0.77999  1.0000
  C   C912      1.0  0.40279  0.19830  0.76208  1.0000
  C   C913      1.0  0.40924  0.21509  0.76122  1.0000
  H   H1091     1.0  0.40187  0.21361  0.80952  1.0000
  H   H1092     1.0  0.38966  0.18435  0.81104  1.0000
  H   H1093     1.0  0.40317  0.19418  0.74883  1.0000
  H   H1094     1.0  0.41444  0.22375  0.74727  1.0000
  C   C914      1.0  0.41512  0.19656  0.88391  1.0000
  C   C915      1.0  0.41016  0.21344  0.89142  1.0000
  C   C916      1.0  0.39634  0.21465  0.90869  1.0000
  C   C917      1.0  0.38691  0.19930  0.91818  1.0000
  C   C918      1.0  0.39167  0.18247  0.91060  1.0000
  C   C919      1.0  0.40598  0.18100  0.89361  1.0000
  H   H1095     1.0  0.41728  0.22540  0.88418  1.0000
  H   H1096     1.0  0.39295  0.22753  0.91470  1.0000
  H   H1097     1.0  0.38442  0.17055  0.91785  1.0000
  H   H1098     1.0  0.40973  0.16794  0.88784  1.0000
  H   H1099     1.0  0.38238  0.10622  0.71724  1.0000
  C   C920      1.0  0.29453  0.45890  0.83650  1.0000
  C   C921      1.0  0.31424  0.45041  0.83430  1.0000
  C   C922      1.0  0.32796  0.46214  0.83026  1.0000
  H   H1100     1.0  0.31910  0.08149  0.66932  1.0000
  H   H1101     1.0  0.28165  0.22078  0.97654  1.0000
  C   C923      1.0  0.33659  0.15444  0.66123  1.0000
  H   H1102     1.0  0.31891  0.43485  0.83567  1.0000
  H   H1103     1.0  0.34321  0.45555  0.82858  1.0000
  H   H1104     1.0  0.24616  0.37927  0.89812  1.0000
  C   C924      1.0  0.32783  0.08315  0.67856  1.0000
  C   C925      1.0  0.37305  0.30752  0.84379  1.0000
  C   C926      1.0  0.35735  0.31871  0.85441  1.0000
  C   C927      1.0  0.34753  0.33650  0.84513  1.0000
  C   C928      1.0  0.35358  0.34333  0.82522  1.0000
  C   C929      1.0  0.36945  0.33224  0.81465  1.0000
  C   C930      1.0  0.37909  0.31429  0.82388  1.0000
  H   H1105     1.0  0.35275  0.31369  0.86986  1.0000
  H   H1106     1.0  0.33543  0.34506  0.85343  1.0000
  H   H1107     1.0  0.37411  0.33745  0.79923  1.0000
  H   H1108     1.0  0.39110  0.30574  0.81555  1.0000
  C   C931      1.0  0.25623  0.23240  0.92594  1.0000
  C   C932      1.0  0.27492  0.22173  0.92051  1.0000
  S   S260      1.0  0.36084  0.16540  0.70048  1.0000
  H   H1109     1.0  0.26115  0.00882  0.88547  1.0000
  C   C933      1.0  0.30403  0.45689  0.78752  1.0000
  C   C934      1.0  0.29974  0.02238  0.79236  1.0000
  C   C935      1.0  0.30146  0.03521  0.80298  1.0000
  C   C936      1.0  0.28755  0.05230  0.80440  1.0000
  C   C937      1.0  0.27212  0.05665  0.79481  1.0000
  C   C938      1.0  0.27040  0.04381  0.78415  1.0000
  H   H1110     1.0  0.45653  0.24545  0.75325  1.0000
  H   H1111     1.0  0.31345  0.03176  0.81021  1.0000
  C   C939      1.0  0.41762  0.20850  0.64975  1.0000
  H   H1112     1.0  0.43857  0.19195  0.81521  1.0000
  H   H1113     1.0  0.36251  0.20480  0.66554  1.0000
  C   C940      1.0  0.34965  0.10008  0.68434  1.0000
  C   C941      1.0  0.29250  0.04697  0.66580  1.0000
  C   C942      1.0  0.27543  0.04407  0.67949  1.0000
  H   H1114     1.0  0.28311  0.22542  0.90590  1.0000
  H   H1115     1.0  0.47324  0.31793  0.82840  1.0000
  H   H1116     1.0  0.27560  0.03119  0.69086  1.0000
  C   C943      1.0  0.35307  0.08914  0.73483  1.0000
  C   C944      1.0  0.36534  0.07165  0.93812  1.0000
  H   H1117     1.0  0.30347  0.44392  0.79961  1.0000
  H   H1118     1.0  0.42373  0.16952  0.65917  1.0000
  H   H1119     1.0  0.26849  0.47350  0.80177  1.0000
  H   H1120     1.0  0.42842  0.17234  0.81476  1.0000
  H   H1121     1.0  0.26076  0.13631  0.91591  1.0000
  H   H1122     1.0  0.39020  0.07114  0.72388  1.0000
  S   S261      1.0  0.24580  0.25128  0.90902  1.0000
  C   C945      1.0  0.37383  0.14777  0.66874  1.0000
  S   S262      1.0  0.41398  0.13306  0.70664  1.0000
  H   H1123     1.0  0.30613  0.14467  0.92396  1.0000
  C   C946      1.0  0.35114  0.08721  0.70249  1.0000
  H   H1124     1.0  0.28556  0.01306  0.85731  1.0000
  S   S263      1.0  0.33057  0.98977  0.87741  1.0000
  C   C947      1.0  0.37978  0.07076  0.71527  1.0000
  C   C948      1.0  0.44212  0.17616  0.81509  1.0000
  C   C949      1.0  0.46864  0.23434  0.74868  1.0000
  H   H1125     1.0  0.47594  0.19522  0.72830  1.0000
  C   C950      1.0  0.45060  0.18243  0.78035  1.0000
  S   S264      1.0  0.29841  0.04205  0.87002  1.0000
  H   H1126     1.0  0.28055  0.37417  0.76160  1.0000
  N   N57       1.0  0.34554  0.25108  0.88946  1.0000
  C   C951      1.0  0.34887  0.22955  0.89346  1.0000
  C   C952      1.0  0.34795  0.25797  0.86810  1.0000
  C   C953      1.0  0.36076  0.25631  0.89601  1.0000
  C   C954      1.0  0.32628  0.26040  0.89933  1.0000
  C   C955      1.0  0.32045  0.28097  0.89583  1.0000
  C   C956      1.0  0.31307  0.24966  0.91299  1.0000
  C   C957      1.0  0.30249  0.29018  0.90516  1.0000
  C   C958      1.0  0.29515  0.25904  0.92228  1.0000
  C   C959      1.0  0.28983  0.27920  0.91831  1.0000
  H   H1127     1.0  0.33800  0.22452  0.88877  1.0000
  H   H1128     1.0  0.36346  0.22303  0.88575  1.0000
  H   H1129     1.0  0.34848  0.22318  0.90915  1.0000
  H   H1130     1.0  0.33622  0.25519  0.86268  1.0000
  H   H1131     1.0  0.36207  0.25069  0.86026  1.0000
  H   H1132     1.0  0.34798  0.27374  0.86345  1.0000
  H   H1133     1.0  0.37552  0.25010  0.88843  1.0000
  H   H1134     1.0  0.35974  0.27225  0.89296  1.0000
  H   H1135     1.0  0.35985  0.25082  0.91192  1.0000
  H   H1136     1.0  0.32990  0.29013  0.88601  1.0000
  H   H1137     1.0  0.31624  0.23400  0.91688  1.0000
  H   H1138     1.0  0.29850  0.30594  0.90232  1.0000
  H   H1139     1.0  0.28530  0.25062  0.93270  1.0000
  H   H1140     1.0  0.27590  0.28626  0.92561  1.0000
  S   S265      1.0  0.28200  0.00944  0.77090  1.0000
  H   H1141     1.0  0.35728  0.11184  0.67875  1.0000
  C   C960      1.0  0.41362  0.17742  0.67020  1.0000
  H   H1142     1.0  0.26870  0.44852  0.80300  1.0000
  H   H1143     1.0  0.27357  0.14637  0.95850  1.0000
  H   H1144     1.0  0.27842  0.14828  0.89823  1.0000
  H   H1145     1.0  0.32071  0.05885  0.70088  1.0000
  H   H1146     1.0  0.30441  0.45917  0.89568  1.0000
  C   C961      1.0  0.37315  0.10558  0.70750  1.0000
  N   N58       1.0  0.39383  0.05846  0.88994  1.0000
  C   C962      1.0  0.39434  0.04261  0.88029  1.0000
  C   C963      1.0  0.38889  0.07715  0.87641  1.0000
  C   C964      1.0  0.41363  0.05628  0.89309  1.0000
  C   C965      1.0  0.37959  0.05839  0.90858  1.0000
  C   C966      1.0  0.36568  0.04634  0.91498  1.0000
  C   C967      1.0  0.37881  0.07125  0.92060  1.0000
  C   C968      1.0  0.35201  0.04716  0.93234  1.0000
  C   C969      1.0  0.35190  0.05970  0.94393  1.0000
  H   H1147     1.0  0.38041  0.04424  0.87594  1.0000
  H   H1148     1.0  0.40541  0.04280  0.86650  1.0000
  H   H1149     1.0  0.39765  0.02808  0.88983  1.0000
  H   H1150     1.0  0.37407  0.07925  0.87374  1.0000
  H   H1151     1.0  0.39898  0.07775  0.86199  1.0000
  H   H1152     1.0  0.38927  0.08978  0.88213  1.0000
  H   H1153     1.0  0.41726  0.04312  0.90437  1.0000
  H   H1154     1.0  0.42479  0.05496  0.87954  1.0000
  H   H1155     1.0  0.41538  0.06897  0.89779  1.0000
  H   H1156     1.0  0.36478  0.03638  0.90672  1.0000
  H   H1157     1.0  0.38812  0.08165  0.91629  1.0000
  C   C970      1.0  0.37079  0.19907  0.65292  1.0000
  C   C971      1.0  0.24408  0.36485  0.90535  1.0000
  C   C972      1.0  0.25003  0.01450  0.87628  1.0000
  H   H1158     1.0  0.43970  0.29182  0.83113  1.0000
  C   C973      1.0  0.26768  0.31718  0.85314  1.0000
  C   C974      1.0  0.28783  0.44651  0.76703  1.0000
  C   C975      1.0  0.29989  0.42768  0.76993  1.0000
  C   C976      1.0  0.27512  0.45014  0.75408  1.0000
  C   C977      1.0  0.29936  0.41361  0.76023  1.0000
  C   C978      1.0  0.27513  0.43614  0.74406  1.0000
  C   C979      1.0  0.28710  0.41786  0.74724  1.0000
  C   C980      1.0  0.33933  0.15978  0.67743  1.0000
  C   C981      1.0  0.24168  0.41049  0.66891  1.0000
  H   H1159     1.0  0.43645  0.17940  0.78031  1.0000
  H   H1160     1.0  0.31501  0.46909  0.87088  1.0000
  C   C982      1.0  0.24638  0.39341  0.66192  1.0000
  C   C983      1.0  0.24864  0.36997  0.80501  1.0000
  H   H1161     1.0  0.46054  0.17847  0.76696  1.0000
  H   H1162     1.0  0.36204  0.11933  0.70673  1.0000
  H   H1163     1.0  0.26122  0.38538  0.65990  1.0000
  H   H1164     1.0  0.30969  0.42332  0.77982  1.0000
  C   C984      1.0  0.46096  0.15051  0.79888  1.0000
  H   H1165     1.0  0.30848  0.39924  0.76291  1.0000
  C   C985      1.0  0.47917  0.20574  0.73454  1.0000
  H   H1166     1.0  0.28673  0.40692  0.73973  1.0000
  H   H1167     1.0  0.25929  0.13338  0.95138  1.0000
  H   H1168     1.0  0.38337  0.22110  0.67202  1.0000
  H   H1169     1.0  0.26486  0.46374  0.75169  1.0000
  H   H1170     1.0  0.28195  0.47379  0.87632  1.0000
  C   C986      1.0  0.28866  0.47905  0.83453  1.0000
  S   S266      1.0  0.25479  0.36547  0.74249  1.0000
  N   N59       1.0  0.40320  0.19667  0.66143  1.0000
  C   C987      1.0  0.29237  0.06376  0.65112  1.0000
  C   C988      1.0  0.27300  0.13881  0.94720  1.0000
  C   C989      1.0  0.27492  0.01741  0.84768  1.0000
  H   H1171     1.0  0.34105  0.06058  0.95717  1.0000
  H   H1172     1.0  0.46687  0.14182  0.81184  1.0000
  C   C990      1.0  0.25299  0.36618  0.76673  1.0000
  C   C991      1.0  0.25353  0.21192  0.95811  1.0000
  H   H1173     1.0  0.30581  0.03633  0.66673  1.0000
  H   H1174     1.0  0.29959  0.47983  0.75179  1.0000
  H   H1175     1.0  0.42621  0.21131  0.65900  1.0000
  H   H1176     1.0  0.25834  0.04717  0.77699  1.0000
  H   H1177     1.0  0.34047  0.10159  0.73486  1.0000
  C   C992      1.0  0.25684  0.33188  0.92020  1.0000
  H   H1178     1.0  0.38815  0.06945  0.70038  1.0000
  C   C993      1.0  0.25989  0.35024  0.90978  1.0000
  H   H1179     1.0  0.27807  0.32002  0.86038  1.0000
  H   H1180     1.0  0.47065  0.27207  0.74935  1.0000
  H   H1181     1.0  0.32863  0.46315  0.88939  1.0000
  C   C994      1.0  0.25816  0.05776  0.67820  1.0000
  C   C995      1.0  0.26764  0.37141  0.77222  1.0000
  S   S267      1.0  0.47696  0.27221  0.80879  1.0000
  H   H1182     1.0  0.24632  0.03055  0.87498  1.0000
  C   C996      1.0  0.26287  0.98778  0.86000  1.0000
  N   N60       1.0  0.45774  0.17159  0.79823  1.0000
  S   S268      1.0  0.26176  0.00616  0.72823  1.0000
  H   H1183     1.0  0.26556  0.43941  0.73395  1.0000
  H   H1184     1.0  0.37421  0.05722  0.72200  1.0000
  Fe  Fe138     1.0  0.25625  0.01428  0.75716  1.0000
  Fe  Fe139     1.0  0.42860  0.15096  0.71737  1.0000
  H   H1185     1.0  0.32698  0.16670  0.68694  1.0000
  H   H1186     1.0  0.40096  0.20841  0.68655  1.0000
  Fe  Fe140     1.0  0.31293  0.16900  0.96302  1.0000
  C   C997      1.0  0.24320  0.01657  0.84400  1.0000
  C   C998      1.0  0.47412  0.27998  0.87651  1.0000
  H   H1187     1.0  0.32224  0.15729  0.65828  1.0000
  H   H1188     1.0  0.29440  0.16581  0.93380  1.0000
  H   H1189     1.0  0.28615  0.12655  0.91458  1.0000
  H   H1190     1.0  0.27489  0.30427  0.84655  1.0000
  H   H1191     1.0  0.34115  0.03829  0.93663  1.0000
  C   C999      1.0  0.27210  0.20110  0.95269  1.0000
  S   S269      1.0  0.36744  0.14542  0.95793  1.0000
  H   H1192     1.0  0.26539  0.32996  0.84108  1.0000
  C   C1000     1.0  0.33822  0.09797  0.67261  1.0000
  S   S270      1.0  0.32334  0.13684  0.97099  1.0000
  H   H1193     1.0  0.34095  0.06173  0.72157  1.0000
  H   H1194     1.0  0.42252  0.17860  0.68002  1.0000
  N   N61       1.0  0.36404  0.08831  0.71472  1.0000
  C   C1001     1.0  0.28302  0.20633  0.93403  1.0000
  C   C1002     1.0  0.35795  0.15668  0.68112  1.0000
  H   H1195     1.0  0.44606  0.16797  0.82918  1.0000
  C   C1003     1.0  0.34035  0.07227  0.70812  1.0000
  C   C1004     1.0  0.29393  0.15748  0.92319  1.0000
  H   H1196     1.0  0.31046  0.00909  0.79149  1.0000
  C   C1005     1.0  0.46452  0.22069  0.74073  1.0000
  C   C1006     1.0  0.27506  0.14028  0.91347  1.0000
  H   H1197     1.0  0.46774  0.18671  0.82557  1.0000
  H   H1198     1.0  0.44983  0.22175  0.73940  1.0000
  N   N62       1.0  0.27496  0.15175  0.92766  1.0000
  H   H1199     1.0  0.28578  0.12537  0.86920  1.0000
  C   C1007     1.0  0.25900  0.18302  0.90844  1.0000
  H   H1200     1.0  0.33757  0.10785  0.65869  1.0000
  C   C1008     1.0  0.37115  0.14294  0.65225  1.0000
  H   H1201     1.0  0.34757  0.07571  0.74238  1.0000
  H   H1202     1.0  0.30399  0.46889  0.79442  1.0000
  C   C1009     1.0  0.24575  0.22777  0.94489  1.0000
  S   S271      1.0  0.45551  0.16243  0.70030  1.0000
  N   N63       1.0  0.28738  0.46140  0.77779  1.0000
  C   C1010     1.0  0.47484  0.14867  0.73081  1.0000
  H   H1203     1.0  0.38285  0.10538  0.69297  1.0000
  H   H1204     1.0  0.24300  0.16407  0.95645  1.0000
  H   H1205     1.0  0.27674  0.37748  0.79558  1.0000
  C   C1011     1.0  0.32200  0.48231  0.82872  1.0000
  H   H1206     1.0  0.31807  0.45443  0.77707  1.0000
  C   C1012     1.0  0.47287  0.30781  0.84218  1.0000
  H   H1207     1.0  0.29751  0.19836  0.92983  1.0000
  H   H1208     1.0  0.36233  0.09090  0.74403  1.0000
  S   S272      1.0  0.24458  0.37379  0.82859  1.0000
  C   C1013     1.0  0.39163  0.20645  0.67756  1.0000
  H   H1209     1.0  0.26256  0.00516  0.81927  1.0000
  C   C1014     1.0  0.26550  0.37326  0.79142  1.0000
  Fe  Fe141     1.0  0.32750  0.02205  0.86584  1.0000
  H   H1210     1.0  0.48084  0.27505  0.76799  1.0000
  H   H1211     1.0  0.24506  0.20799  0.97255  1.0000
  H   H1212     1.0  0.38129  0.19770  0.68773  1.0000
  H   H1213     1.0  0.26368  0.30406  0.89128  1.0000
  C   C1015     1.0  0.28413  0.02654  0.78307  1.0000
  N   N64       1.0  0.43660  0.31313  0.84775  1.0000
  C   C1016     1.0  0.43415  0.33452  0.84442  1.0000
  C   C1017     1.0  0.43672  0.30783  0.82940  1.0000
  C   C1018     1.0  0.41933  0.30771  0.86215  1.0000
  H   H1214     1.0  0.44861  0.19839  0.77896  1.0000
  H   H1215     1.0  0.24450  0.21010  0.89305  1.0000
  H   H1216     1.0  0.46440  0.25914  0.77416  1.0000
  H   H1217     1.0  0.26895  0.32076  0.92415  1.0000
  H   H1218     1.0  0.48768  0.23204  0.78800  1.0000
  H   H1219     1.0  0.36476  0.08198  0.94677  1.0000
  H   H1220     1.0  0.44533  0.34020  0.83227  1.0000
  H   H1221     1.0  0.41992  0.34217  0.84053  1.0000
  H   H1222     1.0  0.43495  0.33899  0.85765  1.0000
  H   H1223     1.0  0.44811  0.31307  0.81719  1.0000
  H   H1224     1.0  0.42260  0.31380  0.82473  1.0000
  H   H1225     1.0  0.24479  0.08485  0.66216  1.0000
  H   H1226     1.0  0.41825  0.31133  0.87638  1.0000
  H   H1227     1.0  0.40560  0.31547  0.85721  1.0000
  H   H1228     1.0  0.41945  0.29197  0.86441  1.0000
  C   C1019     1.0  0.24382  0.17324  0.94215  1.0000
  H   H1229     1.0  0.44371  0.28429  0.88095  1.0000
  S   S273      1.0  0.33745  0.03582  0.83464  1.0000
  H   H1230     1.0  0.32090  0.00007  0.83945  1.0000
  H   H1231     1.0  0.25440  0.20383  0.65023  1.0000
  N   N65       1.0  0.34677  0.12866  0.80870  1.0000
  C   C1020     1.0  0.34911  0.11236  0.79895  1.0000
  C   C1021     1.0  0.34318  0.14725  0.79463  1.0000
  C   C1022     1.0  0.36547  0.12688  0.81421  1.0000
  C   C1023     1.0  0.33013  0.12827  0.82540  1.0000
  C   C1024     1.0  0.31175  0.12734  0.82294  1.0000
  C   C1025     1.0  0.33144  0.12918  0.84429  1.0000
  C   C1026     1.0  0.29597  0.12634  0.83858  1.0000
  C   C1027     1.0  0.31545  0.12848  0.85977  1.0000
  C   C1028     1.0  0.29788  0.12670  0.85700  1.0000
  H   H1232     1.0  0.34977  0.09829  0.80964  1.0000
  H   H1233     1.0  0.33716  0.11406  0.79148  1.0000
  H   H1234     1.0  0.36263  0.11103  0.78756  1.0000
  H   H1235     1.0  0.34144  0.15985  0.80139  1.0000
  H   H1236     1.0  0.32997  0.14916  0.78889  1.0000
  H   H1237     1.0  0.35547  0.14830  0.78193  1.0000
  H   H1238     1.0  0.36880  0.11328  0.82511  1.0000
  H   H1239     1.0  0.37779  0.12645  0.80144  1.0000
  H   H1240     1.0  0.36561  0.13962  0.81991  1.0000
  H   H1241     1.0  0.30948  0.12705  0.80894  1.0000
  H   H1242     1.0  0.34468  0.13020  0.84757  1.0000
  H   H1243     1.0  0.28230  0.12486  0.83646  1.0000
  H   H1244     1.0  0.31683  0.12892  0.87410  1.0000
  S   S274      1.0  0.28099  0.18098  0.96954  1.0000
  C   C1029     1.0  0.45513  0.30341  0.85396  1.0000
  C   C1030     1.0  0.47511  0.15923  0.71180  1.0000
  C   C1031     1.0  0.47620  0.17666  0.79796  1.0000
  H   H1245     1.0  0.44728  0.14608  0.79946  1.0000
  C   C1032     1.0  0.27515  0.07747  0.65003  1.0000
  H   H1246     1.0  0.27128  0.03359  0.84398  1.0000
  H   H1247     1.0  0.28266  0.01232  0.83410  1.0000
  C   C1033     1.0  0.25807  0.07431  0.66332  1.0000
  H   H1248     1.0  0.27037  0.18123  0.89581  1.0000
  C   C1034     1.0  0.25442  0.29930  0.88418  1.0000
  H   H1249     1.0  0.47476  0.26884  0.88961  1.0000
  C   C1035     1.0  0.31383  0.46929  0.88639  1.0000
  H   H1250     1.0  0.29715  0.16662  0.90847  1.0000
  C   C1036     1.0  0.45630  0.28903  0.87129  1.0000
  C   C1037     1.0  0.35256  0.14642  0.64833  1.0000
  H   H1251     1.0  0.26256  0.28521  0.88021  1.0000
  C   C1038     1.0  0.31850  0.98560  0.84623  1.0000
  H   H1252     1.0  0.23995  0.01769  0.79753  1.0000
  C   C1039     1.0  0.47897  0.18429  0.81295  1.0000
  N   N66       1.0  0.25735  0.00926  0.85689  1.0000
  C   C1040     1.0  0.24418  0.19951  0.90662  1.0000
  H   H1253     1.0  0.40318  0.16812  0.67884  1.0000
  C   C1041     1.0  0.24835  0.01309  0.82484  1.0000
  H   H1254     1.0  0.24131  0.29669  0.89550  1.0000
  C   C1042     1.0  0.39137  0.19409  0.64889  1.0000
  H   H1255     1.0  0.48415  0.24317  0.84353  1.0000
  H   H1256     1.0  0.24865  0.33714  0.88080  1.0000
  H   H1257     1.0  0.24203  0.41074  0.78128  1.0000
  N   N67       1.0  0.24934  0.31407  0.86696  1.0000
  H   H1258     1.0  0.24150  0.43286  0.83419  1.0000
  H   H1259     1.0  0.25221  0.09890  0.68925  1.0000
  C   C1043     1.0  0.48778  0.23345  0.75053  1.0000
  S   S275      1.0  0.33164  0.17640  0.97881  1.0000
  C   C1044     1.0  0.23978  0.10628  0.69838  1.0000
  C   C1045     1.0  0.23943  0.33237  0.87368  1.0000
  H   H1260     1.0  0.28399  0.62060  0.11855  1.0000
  H   H1261     1.0  0.29120  0.59697  0.14741  1.0000
  H   H1262     1.0  0.30277  0.87959  0.17894  1.0000
  H   H1263     1.0  0.24564  0.69298  0.06250  1.0000
  Fe  Fe142     1.0  0.41924  0.75961  0.28777  1.0000
  H   H1264     1.0  0.35007  0.97009  0.21852  1.0000
  S   S276      1.0  0.40577  0.77610  0.26226  1.0000
  C   C1046     1.0  0.28641  0.95520  0.24797  1.0000
  H   H1265     1.0  0.41740  0.82280  0.24297  1.0000
  S   S277      1.0  0.44513  0.73578  0.28337  1.0000
  Fe  Fe143     1.0  0.32769  0.90622  0.23146  1.0000
  S   S278      1.0  0.31128  0.89570  0.26119  1.0000
  S   S279      1.0  0.33779  0.93471  0.22241  1.0000
  Fe  Fe144     1.0  0.32692  0.87040  0.21692  1.0000
  S   S280      1.0  0.31046  0.85696  0.24559  1.0000
  S   S281      1.0  0.33829  0.85587  0.19101  1.0000
  Fe  Fe145     1.0  0.29294  0.88725  0.24578  1.0000
  S   S282      1.0  0.26083  0.89471  0.25630  1.0000
  Fe  Fe146     1.0  0.33028  0.86663  0.25841  1.0000
  S   S283      1.0  0.34306  0.84899  0.28394  1.0000
  S   S284      1.0  0.30772  0.90010  0.21592  1.0000
  S   S285      1.0  0.34842  0.87771  0.22975  1.0000
  S   S286      1.0  0.40725  0.62334  0.25289  1.0000
  Fe  Fe147     1.0  0.40809  0.64412  0.19843  1.0000
  S   S287      1.0  0.38060  0.64613  0.22087  1.0000
  S   S288      1.0  0.40534  0.65548  0.16733  1.0000
  Fe  Fe148     1.0  0.39762  0.65403  0.23810  1.0000
  S   S289      1.0  0.38467  0.67959  0.25242  1.0000
  Fe  Fe149     1.0  0.39267  0.61522  0.23334  1.0000
  S   S290      1.0  0.37364  0.59303  0.24587  1.0000
  S   S291      1.0  0.42430  0.65469  0.21457  1.0000
  Fe  Fe150     1.0  0.31771  0.77145  0.11202  1.0000
  S   S292      1.0  0.29154  0.77018  0.13622  1.0000
  S   S293      1.0  0.31146  0.78424  0.08181  1.0000
  Fe  Fe151     1.0  0.34526  0.75439  0.14005  1.0000
  S   S294      1.0  0.32104  0.75110  0.16589  1.0000
  S   S295      1.0  0.37420  0.74618  0.14869  1.0000
  Fe  Fe152     1.0  0.30788  0.74048  0.14707  1.0000
  S   S296      1.0  0.29261  0.71533  0.15883  1.0000
  Fe  Fe153     1.0  0.30731  0.78108  0.15259  1.0000
  S   S297      1.0  0.29222  0.80184  0.17287  1.0000
  S   S298      1.0  0.33344  0.74102  0.12219  1.0000
  S   S299      1.0  0.33218  0.78516  0.12749  1.0000
  H   H1266     1.0  0.24359  0.53764  0.17301  1.0000
  H   H1267     1.0  0.24574  0.78491  0.07935  1.0000
  S   S300      1.0  0.27378  0.68725  0.09208  1.0000
  H   H1268     1.0  0.30282  0.97670  0.23380  1.0000
  C   C1047     1.0  0.40541  0.85279  0.23217  1.0000
  H   H1269     1.0  0.33455  0.87287  0.15258  1.0000
  Fe  Fe154     1.0  0.30777  0.50891  0.23584  1.0000
  C   C1048     1.0  0.29227  0.66440  0.98984  1.0000
  Fe  Fe155     1.0  0.29336  0.53647  0.20133  1.0000
  S   S301      1.0  0.32010  0.52670  0.18018  1.0000
  S   S302      1.0  0.26778  0.56019  0.19544  1.0000
  Fe  Fe156     1.0  0.33584  0.52801  0.20246  1.0000
  S   S303      1.0  0.36075  0.54374  0.19185  1.0000
  S   S304      1.0  0.28975  0.50638  0.21651  1.0000
  S   S305      1.0  0.30909  0.54005  0.22234  1.0000
  C   C1049     1.0  0.25917  0.58774  0.13373  1.0000
  C   C1050     1.0  0.27306  0.57059  0.13704  1.0000
  C   C1051     1.0  0.27606  0.56200  0.15593  1.0000
  C   C1052     1.0  0.26486  0.57038  0.17154  1.0000
  C   C1053     1.0  0.25094  0.58743  0.16822  1.0000
  C   C1054     1.0  0.27530  0.50976  0.17348  1.0000
  H   H1270     1.0  0.45329  0.66608  0.25634  1.0000
  H   H1271     1.0  0.28715  0.54910  0.15829  1.0000
  H   H1272     1.0  0.26647  0.63760  0.02899  1.0000
  H   H1273     1.0  0.38794  0.52542  0.23989  1.0000
  C   C1055     1.0  0.28033  0.69261  0.11136  1.0000
  C   C1056     1.0  0.29580  0.70200  0.10733  1.0000
  C   C1057     1.0  0.30020  0.70823  0.12205  1.0000
  C   C1058     1.0  0.28909  0.70515  0.14090  1.0000
  C   C1059     1.0  0.27418  0.69490  0.14516  1.0000
  C   C1060     1.0  0.26975  0.68868  0.13038  1.0000
  H   H1274     1.0  0.30413  0.70490  0.09267  1.0000
  H   H1275     1.0  0.31185  0.71588  0.11862  1.0000
  H   H1276     1.0  0.35303  0.81106  0.20212  1.0000
  C   C1061     1.0  0.45201  0.69353  0.20112  1.0000
  C   C1062     1.0  0.37024  0.57950  0.23061  1.0000
  C   C1063     1.0  0.35709  0.56704  0.23799  1.0000
  C   C1064     1.0  0.35383  0.55625  0.22614  1.0000
  C   C1065     1.0  0.36375  0.55783  0.20681  1.0000
  C   C1066     1.0  0.37671  0.57050  0.19933  1.0000
  C   C1067     1.0  0.38002  0.58125  0.21122  1.0000
  H   H1277     1.0  0.34946  0.56566  0.25298  1.0000
  H   H1278     1.0  0.34398  0.54638  0.23210  1.0000
  H   H1279     1.0  0.38449  0.57172  0.18440  1.0000
  H   H1280     1.0  0.39021  0.59078  0.20540  1.0000
  C   C1068     1.0  0.39810  0.68083  0.16122  1.0000
  C   C1069     1.0  0.38767  0.68914  0.14641  1.0000
  C   C1070     1.0  0.38006  0.70919  0.14261  1.0000
  C   C1071     1.0  0.38366  0.72109  0.15302  1.0000
  C   C1072     1.0  0.39478  0.71288  0.16727  1.0000
  C   C1073     1.0  0.40162  0.69273  0.17169  1.0000
  H   H1281     1.0  0.38508  0.68000  0.13815  1.0000
  H   H1282     1.0  0.37179  0.71549  0.13135  1.0000
  H   H1283     1.0  0.39782  0.72210  0.17508  1.0000
  H   H1284     1.0  0.40970  0.68644  0.18310  1.0000
  C   C1074     1.0  0.32519  0.84095  0.18624  1.0000
  C   C1075     1.0  0.33283  0.83211  0.17012  1.0000
  C   C1076     1.0  0.32299  0.81990  0.16602  1.0000
  C   C1077     1.0  0.30525  0.81666  0.17786  1.0000
  C   C1078     1.0  0.29747  0.82573  0.19383  1.0000
  C   C1079     1.0  0.30746  0.83774  0.19810  1.0000
  H   H1285     1.0  0.34647  0.83465  0.16079  1.0000
  H   H1286     1.0  0.32898  0.81320  0.15353  1.0000
  H   H1287     1.0  0.28370  0.82337  0.20299  1.0000
  H   H1288     1.0  0.30140  0.84452  0.21053  1.0000
  H   H1289     1.0  0.40801  0.85095  0.21734  1.0000
  C   C1080     1.0  0.42028  0.66700  0.29036  1.0000
  C   C1081     1.0  0.40995  0.66513  0.27739  1.0000
  C   C1082     1.0  0.39668  0.68105  0.26983  1.0000
  C   C1083     1.0  0.39357  0.69873  0.27555  1.0000
  C   C1084     1.0  0.40437  0.70078  0.28798  1.0000
  H   H1290     1.0  0.36639  0.74385  0.19508  1.0000
  H   H1291     1.0  0.41223  0.65136  0.27328  1.0000
  H   H1292     1.0  0.38301  0.71098  0.27011  1.0000
  H   H1293     1.0  0.40221  0.71462  0.29185  1.0000
  C   C1085     1.0  0.38794  0.79600  0.26846  1.0000
  C   C1086     1.0  0.38417  0.79989  0.28706  1.0000
  C   C1087     1.0  0.37043  0.81630  0.29168  1.0000
  C   C1088     1.0  0.36018  0.82860  0.27787  1.0000
  C   C1089     1.0  0.36375  0.82459  0.25934  1.0000
  C   C1090     1.0  0.37771  0.80834  0.25462  1.0000
  H   H1294     1.0  0.39203  0.79041  0.29780  1.0000
  H   H1295     1.0  0.24908  0.95733  0.28679  1.0000
  H   H1296     1.0  0.35589  0.83409  0.24861  1.0000
  H   H1297     1.0  0.38077  0.80551  0.24017  1.0000
  C   C1091     1.0  0.45044  0.67342  0.24164  1.0000
  H   H1298     1.0  0.29019  0.61248  0.19138  1.0000
  C   C1092     1.0  0.34143  0.96697  0.26737  1.0000
  C   C1093     1.0  0.25740  0.73016  0.02588  1.0000
  C   C1094     1.0  0.34556  0.96441  0.23387  1.0000
  C   C1095     1.0  0.33864  0.94709  0.23998  1.0000
  C   C1096     1.0  0.33292  0.93985  0.25985  1.0000
  C   C1097     1.0  0.33448  0.94966  0.27349  1.0000
  H   H1299     1.0  0.40939  0.89769  0.26482  1.0000
  C   C1098     1.0  0.24358  0.52505  0.16702  1.0000
  H   H1300     1.0  0.32737  0.92667  0.26473  1.0000
  H   H1301     1.0  0.33014  0.94392  0.28885  1.0000
  C   C1099     1.0  0.41814  0.57126  0.25789  1.0000
  N   N68       1.0  0.25876  0.70946  0.03563  1.0000
  H   H1302     1.0  0.31353  0.85018  0.10608  1.0000
  N   N69       1.0  0.38274  0.89251  0.26182  1.0000
  C   C1100     1.0  0.31376  0.74610  0.03944  1.0000
  C   C1101     1.0  0.30977  0.76634  0.03381  1.0000
  C   C1102     1.0  0.30922  0.77786  0.04690  1.0000
  C   C1103     1.0  0.31283  0.76926  0.06560  1.0000
  C   C1104     1.0  0.31688  0.74902  0.07116  1.0000
  C   C1105     1.0  0.31728  0.73754  0.05814  1.0000
  H   H1303     1.0  0.30615  0.79351  0.04246  1.0000
  H   H1304     1.0  0.31970  0.74218  0.08547  1.0000
  H   H1305     1.0  0.32050  0.72189  0.06251  1.0000
  S   S306      1.0  0.41918  0.61242  0.20961  1.0000
  H   H1306     1.0  0.32533  0.56723  0.18010  1.0000
  H   H1307     1.0  0.44501  0.54457  0.27567  1.0000
  C   C1106     1.0  0.44506  0.70343  0.18431  1.0000
  C   C1107     1.0  0.43652  0.72308  0.18210  1.0000
  C   C1108     1.0  0.41075  0.83693  0.24654  1.0000
  C   C1109     1.0  0.25335  0.77042  0.00911  1.0000
  N   N70       1.0  0.30724  0.89137  0.14814  1.0000
  N   N71       1.0  0.25410  0.75754  0.09838  1.0000
  H   H1308     1.0  0.44630  0.69581  0.17290  1.0000
  H   H1309     1.0  0.43111  0.73069  0.16905  1.0000
  H   H1310     1.0  0.28019  0.68444  0.04505  1.0000
  H   H1311     1.0  0.33614  0.89015  0.13005  1.0000
  Fe  Fe157     1.0  0.31217  0.73912  0.99214  1.0000
  C   C1110     1.0  0.40068  0.53170  0.23369  1.0000
  C   C1111     1.0  0.44181  0.72314  0.21359  1.0000
  C   C1112     1.0  0.30561  0.65776  0.01858  1.0000
  H   H1312     1.0  0.27279  0.73714  0.04431  1.0000
  C   C1113     1.0  0.38427  0.72670  0.21474  1.0000
  H   H1313     1.0  0.26553  0.69245  0.15972  1.0000
  S   S307      1.0  0.25101  0.65134  0.08013  1.0000
  C   C1114     1.0  0.32868  0.60154  0.18033  1.0000
  C   C1115     1.0  0.24687  0.50155  0.19701  1.0000
  S   S308      1.0  0.31349  0.73083  0.02418  1.0000
  H   H1314     1.0  0.38464  0.78424  0.17762  1.0000
  C   C1116     1.0  0.29177  0.84520  0.13191  1.0000
  H   H1315     1.0  0.26447  0.53299  0.30590  1.0000
  H   H1316     1.0  0.24871  0.78686  0.10274  1.0000
  H   H1317     1.0  0.24891  0.52834  0.20379  1.0000
  H   H1318     1.0  0.24154  0.64285  0.01465  1.0000
  H   H1319     1.0  0.36135  0.79816  0.17352  1.0000
  H   H1320     1.0  0.33876  0.76780  0.19859  1.0000
  H   H1321     1.0  0.43464  0.70723  0.25394  1.0000
  H   H1322     1.0  0.29484  0.94543  0.23839  1.0000
  H   H1323     1.0  0.29064  0.64126  0.04434  1.0000
  C   C1117     1.0  0.31145  0.64394  0.13204  1.0000
  C   C1118     1.0  0.30008  0.64035  0.12120  1.0000
  H   H1324     1.0  0.31651  0.65750  0.12769  1.0000
  H   H1325     1.0  0.29652  0.65092  0.10847  1.0000
  C   C1119     1.0  0.39425  0.89777  0.27305  1.0000
  H   H1326     1.0  0.36787  0.81957  0.30590  1.0000
  H   H1327     1.0  0.44726  0.57624  0.22799  1.0000
  H   H1328     1.0  0.46222  0.55226  0.23349  1.0000
  H   H1329     1.0  0.33319  0.89784  0.15208  1.0000
  S   S309      1.0  0.46201  0.60893  0.23579  1.0000
  S   S310      1.0  0.24320  0.64807  0.12703  1.0000
  S   S311      1.0  0.25620  0.59888  0.10999  1.0000
  H   H1330     1.0  0.40112  0.53843  0.26023  1.0000
  C   C1120     1.0  0.40697  0.83906  0.26569  1.0000
  H   H1331     1.0  0.40481  0.56637  0.26696  1.0000
  C   C1121     1.0  0.34069  0.77862  0.20591  1.0000
  C   C1122     1.0  0.32863  0.88795  0.14554  1.0000
  H   H1332     1.0  0.31751  0.67395  0.99083  1.0000
  N   N72       1.0  0.43281  0.55547  0.24997  1.0000
  H   H1333     1.0  0.41351  0.58309  0.24593  1.0000
  H   H1334     1.0  0.31640  0.65922  0.02562  1.0000
  H   H1335     1.0  0.48312  0.70715  0.30423  1.0000
  H   H1336     1.0  0.30389  0.90467  0.17253  1.0000
  H   H1337     1.0  0.37657  0.79991  0.20673  1.0000
  S   S312      1.0  0.43201  0.77264  0.30501  1.0000
  H   H1338     1.0  0.47359  0.67826  0.30685  1.0000
  S   S313      1.0  0.48821  0.74921  0.29073  1.0000
  H   H1339     1.0  0.38264  0.77347  0.23155  1.0000
  H   H1340     1.0  0.34249  0.60200  0.16942  1.0000
  C   C1123     1.0  0.24744  0.73884  0.01038  1.0000
  H   H1341     1.0  0.27719  0.75171  0.07391  1.0000
  H   H1342     1.0  0.25350  0.75115  0.07143  1.0000
  H   H1343     1.0  0.32502  0.63403  0.15615  1.0000
  C   C1124     1.0  0.48678  0.79758  0.30864  1.0000
  H   H1344     1.0  0.32380  0.61528  0.18577  1.0000
  H   H1345     1.0  0.33478  0.77430  0.22173  1.0000
  H   H1346     1.0  0.26327  0.49597  0.14943  1.0000
  C   C1125     1.0  0.29749  0.60967  0.14336  1.0000
  C   C1126     1.0  0.30946  0.61254  0.15449  1.0000
  N   N73       1.0  0.45729  0.69203  0.23435  1.0000
  H   H1347     1.0  0.39247  0.88248  0.22499  1.0000
  N   N74       1.0  0.26326  0.65182  0.98975  1.0000
  C   C1127     1.0  0.39643  0.87092  0.23682  1.0000
  H   H1348     1.0  0.40259  0.71270  0.23517  1.0000
  H   H1349     1.0  0.39430  0.85765  0.28576  1.0000
  Fe  Fe158     1.0  0.31795  0.49656  0.19728  1.0000
  H   H1350     1.0  0.26670  0.73147  0.08668  1.0000
  H   H1351     1.0  0.24060  0.63631  0.99314  1.0000
  H   H1352     1.0  0.39416  0.91051  0.23483  1.0000
  H   H1353     1.0  0.27923  0.86890  0.16881  1.0000
  C   C1128     1.0  0.27137  0.94945  0.26275  1.0000
  C   C1129     1.0  0.39335  0.74332  0.23460  1.0000
  S   S314      1.0  0.43200  0.68756  0.31029  1.0000
  H   H1354     1.0  0.43044  0.54334  0.19025  1.0000
  H   H1355     1.0  0.42844  0.74827  0.19483  1.0000
  H   H1356     1.0  0.25221  0.90957  0.30639  1.0000
  C   C1130     1.0  0.37370  0.74424  0.20610  1.0000
  C   C1131     1.0  0.37260  0.76193  0.21155  1.0000
  H   H1357     1.0  0.37010  0.90684  0.23671  1.0000
  C   C1132     1.0  0.29112  0.64764  0.02905  1.0000
  S   S315      1.0  0.30084  0.71736  0.98341  1.0000
  C   C1133     1.0  0.28695  0.86575  0.15484  1.0000
  C   C1134     1.0  0.27765  0.65367  0.99990  1.0000
  H   H1358     1.0  0.35516  0.79601  0.22528  1.0000
  C   C1135     1.0  0.26077  0.96182  0.27528  1.0000
  H   H1359     1.0  0.29787  0.58682  0.20051  1.0000
  H   H1360     1.0  0.37358  0.92294  0.24951  1.0000
  C   C1136     1.0  0.26311  0.76240  0.02431  1.0000
  H   H1361     1.0  0.26014  0.75783  0.12567  1.0000
  H   H1362     1.0  0.36403  0.87937  0.28738  1.0000
  H   H1363     1.0  0.43030  0.65457  0.29636  1.0000
  C   C1137     1.0  0.25369  0.69771  0.02446  1.0000
  H   H1364     1.0  0.33135  0.79259  0.20041  1.0000
  C   C1138     1.0  0.40836  0.53922  0.24519  1.0000
  H   H1365     1.0  0.35564  0.90479  0.27890  1.0000
  H   H1366     1.0  0.48469  0.67876  0.21841  1.0000
  Fe  Fe159     1.0  0.25016  0.67029  0.10021  1.0000
  H   H1367     1.0  0.26799  0.93535  0.26447  1.0000
  H   H1368     1.0  0.45627  0.56866  0.24970  1.0000
  C   C1139     1.0  0.36894  0.78404  0.18098  1.0000
  C   C1140     1.0  0.24523  0.70829  0.05470  1.0000
  C   C1141     1.0  0.45071  0.70280  0.25046  1.0000
  N   N75       1.0  0.33461  0.68489  0.18966  1.0000
  C   C1142     1.0  0.35083  0.69061  0.19401  1.0000
  C   C1143     1.0  0.33662  0.68873  0.16826  1.0000
  C   C1144     1.0  0.31636  0.69762  0.19751  1.0000
  C   C1145     1.0  0.33524  0.66398  0.19796  1.0000
  C   C1146     1.0  0.35082  0.64981  0.19054  1.0000
  C   C1147     1.0  0.32116  0.65708  0.21405  1.0000
  C   C1148     1.0  0.35223  0.63005  0.19872  1.0000
  C   C1149     1.0  0.32277  0.63726  0.22217  1.0000
  C   C1150     1.0  0.33831  0.62381  0.21460  1.0000
  H   H1369     1.0  0.36503  0.68184  0.18832  1.0000
  H   H1370     1.0  0.35140  0.70611  0.18739  1.0000
  H   H1371     1.0  0.34966  0.68841  0.20995  1.0000
  H   H1372     1.0  0.35092  0.68167  0.16079  1.0000
  H   H1373     1.0  0.33516  0.70451  0.16168  1.0000
  H   H1374     1.0  0.32531  0.68358  0.16437  1.0000
  H   H1375     1.0  0.31470  0.69704  0.21325  1.0000
  H   H1376     1.0  0.31584  0.71312  0.19020  1.0000
  H   H1377     1.0  0.30351  0.69372  0.19510  1.0000
  H   H1378     1.0  0.36253  0.65393  0.17885  1.0000
  H   H1379     1.0  0.30893  0.66671  0.22086  1.0000
  H   H1380     1.0  0.36459  0.61963  0.19311  1.0000
  H   H1381     1.0  0.31215  0.63232  0.23472  1.0000
  H   H1382     1.0  0.33970  0.60854  0.22127  1.0000
  N   N76       1.0  0.36120  0.78028  0.20224  1.0000
  H   H1383     1.0  0.43457  0.67589  0.24257  1.0000
  H   H1384     1.0  0.46670  0.63888  0.20109  1.0000
  H   H1385     1.0  0.28283  0.70607  0.04954  1.0000
  C   C1151     1.0  0.36159  0.79747  0.20948  1.0000
  H   H1386     1.0  0.27122  0.84317  0.15895  1.0000
  H   H1387     1.0  0.44829  0.52703  0.26099  1.0000
  C   C1152     1.0  0.34689  0.97436  0.24751  1.0000
  C   C1153     1.0  0.45012  0.70294  0.21653  1.0000
  H   H1388     1.0  0.33213  0.58983  0.19298  1.0000
  H   H1389     1.0  0.36718  0.77291  0.17398  1.0000
  H   H1390     1.0  0.45770  0.66265  0.23231  1.0000
  H   H1391     1.0  0.27553  0.52183  0.18005  1.0000
  H   H1392     1.0  0.24238  0.67641  0.99847  1.0000
  C   C1154     1.0  0.43246  0.54938  0.21709  1.0000
  C   C1155     1.0  0.43805  0.53966  0.26638  1.0000
  C   C1156     1.0  0.40882  0.53295  0.21402  1.0000
  H   H1393     1.0  0.45708  0.71591  0.24707  1.0000
  H   H1394     1.0  0.28136  0.75233  0.10715  1.0000
  C   C1157     1.0  0.43505  0.73295  0.19663  1.0000
  H   H1395     1.0  0.45888  0.67842  0.20191  1.0000
  C   C1158     1.0  0.29566  0.59808  0.18720  1.0000
  S   S316      1.0  0.33615  0.49681  0.21779  1.0000
  H   H1396     1.0  0.40243  0.52760  0.20505  1.0000
  S   S317      1.0  0.34328  0.97887  0.28489  1.0000
  C   C1159     1.0  0.47909  0.63613  0.20766  1.0000
  H   H1397     1.0  0.38796  0.91252  0.27633  1.0000
  H   H1398     1.0  0.28840  0.83316  0.12812  1.0000
  C   C1160     1.0  0.26513  0.98001  0.27297  1.0000
  C   C1161     1.0  0.25081  0.63790  0.00140  1.0000
  H   H1399     1.0  0.48445  0.70136  0.22394  1.0000
  C   C1162     1.0  0.23979  0.51212  0.29334  1.0000
  H   H1400     1.0  0.26932  0.78096  0.08444  1.0000
  C   C1163     1.0  0.39241  0.87361  0.25625  1.0000
  C   C1164     1.0  0.31618  0.63028  0.14845  1.0000
  H   H1401     1.0  0.30430  0.92239  0.13886  1.0000
  H   H1402     1.0  0.26967  0.77142  0.02936  1.0000
  C   C1165     1.0  0.26870  0.86559  0.28718  1.0000
  C   C1166     1.0  0.26496  0.74264  0.03269  1.0000
  C   C1167     1.0  0.36334  0.89099  0.27409  1.0000
  H   H1403     1.0  0.42378  0.57778  0.26701  1.0000
  C   C1168     1.0  0.24808  0.59610  0.14937  1.0000
  C   C1169     1.0  0.24653  0.53755  0.26528  1.0000
  C   C1170     1.0  0.38271  0.76093  0.22619  1.0000
  H   H1404     1.0  0.35413  0.88740  0.26606  1.0000
  C   C1171     1.0  0.30172  0.87551  0.14283  1.0000
  C   C1172     1.0  0.45042  0.56339  0.23976  1.0000
  N   N77       1.0  0.31366  0.59793  0.17206  1.0000
  H   H1405     1.0  0.28370  0.86424  0.27994  1.0000
  C   C1173     1.0  0.27729  0.64558  0.01996  1.0000
  H   H1406     1.0  0.26292  0.69875  0.00960  1.0000
  H   H1407     1.0  0.27525  0.53323  0.24811  1.0000
  H   H1408     1.0  0.30709  0.90990  0.11976  1.0000
  C   C1174     1.0  0.27866  0.70027  0.03886  1.0000
  Fe  Fe160     1.0  0.43290  0.62319  0.22802  1.0000
  H   H1409     1.0  0.24889  0.71583  0.06433  1.0000
  C   C1175     1.0  0.25444  0.87956  0.27882  1.0000
  H   H1410     1.0  0.28962  0.70234  0.02513  1.0000
  H   H1411     1.0  0.28452  0.91304  0.13681  1.0000
  H   H1412     1.0  0.32182  0.87685  0.11472  1.0000
  C   C1176     1.0  0.29308  0.62326  0.12687  1.0000
  C   C1177     1.0  0.27196  0.50964  0.27273  1.0000
  H   H1413     1.0  0.45511  0.69385  0.26414  1.0000
  C   C1178     1.0  0.24450  0.51457  0.20937  1.0000
  H   H1414     1.0  0.30713  0.77310  0.01941  1.0000
  H   H1415     1.0  0.30916  0.57286  0.16419  1.0000
  C   C1179     1.0  0.30604  0.85471  0.11963  1.0000
  C   C1180     1.0  0.39421  0.72630  0.22878  1.0000
  H   H1416     1.0  0.28385  0.59507  0.18211  1.0000
  H   H1417     1.0  0.33315  0.57786  0.15507  1.0000
  C   C1181     1.0  0.30052  0.91000  0.13533  1.0000
  C   C1182     1.0  0.31082  0.86980  0.12484  1.0000
  N   N78       1.0  0.25542  0.50675  0.17603  1.0000
  C   C1183     1.0  0.26553  0.52727  0.26076  1.0000
  H   H1418     1.0  0.28266  0.89781  0.17128  1.0000
  H   H1419     1.0  0.25555  0.68211  0.03176  1.0000
  H   H1420     1.0  0.25776  0.68142  0.13362  1.0000
  H   H1421     1.0  0.44444  0.55639  0.20962  1.0000
  C   C1184     1.0  0.47873  0.68776  0.22968  1.0000
  H   H1422     1.0  0.40082  0.74289  0.24585  1.0000
  C   C1185     1.0  0.26362  0.85334  0.30509  1.0000
  C   C1186     1.0  0.48046  0.62207  0.22467  1.0000
  H   H1423     1.0  0.28178  0.56421  0.12490  1.0000
  H   H1424     1.0  0.38474  0.71325  0.21065  1.0000
  H   H1425     1.0  0.28238  0.51339  0.15788  1.0000
  C   C1187     1.0  0.41776  0.68494  0.29541  1.0000
  C   C1188     1.0  0.25904  0.50201  0.28904  1.0000
  Fe  Fe161     1.0  0.24106  0.63029  0.10706  1.0000
  C   C1189     1.0  0.29871  0.89339  0.16858  1.0000
  C   C1190     1.0  0.25048  0.67104  0.98507  1.0000
  H   H1426     1.0  0.48426  0.63730  0.27095  1.0000
  C   C1191     1.0  0.42457  0.54190  0.20571  1.0000
  H   H1427     1.0  0.28467  0.49648  0.18028  1.0000
  C   C1192     1.0  0.42470  0.54803  0.23733  1.0000
  C   C1193     1.0  0.32058  0.57822  0.16756  1.0000
  H   H1428     1.0  0.39478  0.88773  0.28733  1.0000
  C   C1194     1.0  0.28206  0.85092  0.14929  1.0000
  H   H1429     1.0  0.44017  0.73169  0.22423  1.0000
  C   C1195     1.0  0.26618  0.75031  0.11325  1.0000
  C   C1196     1.0  0.39770  0.85701  0.27057  1.0000
  C   C1197     1.0  0.26320  0.74752  0.08192  1.0000
  C   C1198     1.0  0.38012  0.90880  0.24494  1.0000
  H   H1430     1.0  0.24187  0.55139  0.25613  1.0000
  H   H1431     1.0  0.25221  0.78567  0.00240  1.0000
  H   H1432     1.0  0.25958  0.62318  0.00577  1.0000
  C   C1199     1.0  0.30617  0.66611  0.99902  1.0000
  H   H1433     1.0  0.41070  0.82653  0.27689  1.0000
  C   C1200     1.0  0.25429  0.77851  0.09091  1.0000
  H   H1434     1.0  0.26693  0.73465  0.11944  1.0000
  H   H1435     1.0  0.48485  0.67975  0.24267  1.0000
  H   H1436     1.0  0.24917  0.52908  0.15109  1.0000
  C   C1201     1.0  0.25676  0.49164  0.16511  1.0000
  H   H1437     1.0  0.24255  0.59417  0.18021  1.0000
  H   H1438     1.0  0.42522  0.53437  0.27615  1.0000
  H   H1439     1.0  0.46282  0.65505  0.29600  1.0000
  C   C1202     1.0  0.24551  0.75867  0.00220  1.0000
  Fe  Fe162     1.0  0.45685  0.74708  0.30289  1.0000
  H   H1440     1.0  0.24118  0.73066  0.00409  1.0000
  S   S318      1.0  0.29611  0.49739  0.26723  1.0000
  C   C1203     1.0  0.48377  0.67108  0.29594  1.0000
  H   H1441     1.0  0.27474  0.84253  0.31145  1.0000
  H   H1442     1.0  0.34911  0.78537  0.31049  1.0000
  Fe  Fe163     1.0  0.43014  0.71879  0.31057  1.0000
  C   C1204     1.0  0.47729  0.65771  0.28970  1.0000
  H   H1443     1.0  0.26593  0.56539  0.30062  1.0000
  H   H1444     1.0  0.24223  0.48897  0.16586  1.0000
  H   H1445     1.0  0.26388  0.48829  0.29826  1.0000
  H   H1446     1.0  0.48178  0.78559  0.30659  1.0000
  H   H1447     1.0  0.24427  0.72177  0.11258  1.0000
  C   C1205     1.0  0.29083  0.97338  0.24545  1.0000
  C   C1206     1.0  0.39158  0.79045  0.63481  1.0000
  C   C1207     1.0  0.31813  0.79209  0.35403  1.0000
  S   S319      1.0  0.27992  0.73157  0.62067  1.0000
  H   H1448     1.0  0.25683  0.66308  0.44601  1.0000
  H   H1449     1.0  0.26121  0.88639  0.31987  1.0000
  S   S320      1.0  0.30464  0.76108  0.62604  1.0000
  C   C1208     1.0  0.34141  0.76357  0.34553  1.0000
  H   H1450     1.0  0.27097  0.64295  0.53868  1.0000
  S   S321      1.0  0.26826  0.66473  0.56861  1.0000
  Fe  Fe164     1.0  0.30478  0.74531  0.60317  1.0000
  S   S322      1.0  0.30171  0.76289  0.57318  1.0000
  H   H1451     1.0  0.28551  0.64485  0.63252  1.0000
  S   S323      1.0  0.32768  0.71986  0.61272  1.0000
  C   C1209     1.0  0.24110  0.57235  0.63230  1.0000
  C   C1210     1.0  0.24340  0.54956  0.34795  1.0000
  H   H1452     1.0  0.34897  0.80895  0.34016  1.0000
  S   S324      1.0  0.44388  0.72801  0.33011  1.0000
  H   H1453     1.0  0.25869  0.83784  0.42048  1.0000
  Fe  Fe165     1.0  0.41778  0.75268  0.33080  1.0000
  S   S325      1.0  0.40034  0.76498  0.35703  1.0000
  H   H1454     1.0  0.34406  0.75783  0.36049  1.0000
  S   S326      1.0  0.24048  0.62560  0.56623  1.0000
  Fe  Fe166     1.0  0.27191  0.73335  0.45708  1.0000
  S   S327      1.0  0.27295  0.75269  0.47606  1.0000
  H   H1455     1.0  0.24340  0.57200  0.38413  1.0000
  Fe  Fe167     1.0  0.31335  0.73396  0.43455  1.0000
  S   S328      1.0  0.31786  0.75328  0.45174  1.0000
  S   S329      1.0  0.33649  0.71988  0.41226  1.0000
  Fe  Fe168     1.0  0.30254  0.73464  0.47782  1.0000
  S   S330      1.0  0.31261  0.71856  0.50553  1.0000
  Fe  Fe169     1.0  0.28782  0.76945  0.44828  1.0000
  S   S331      1.0  0.27998  0.80180  0.43871  1.0000
  S   S332      1.0  0.30034  0.71399  0.46082  1.0000
  S   S333      1.0  0.28443  0.75147  0.42905  1.0000
  H   H1456     1.0  0.26721  0.71901  0.42501  1.0000
  H   H1457     1.0  0.24115  0.66752  0.62667  1.0000
  H   H1458     1.0  0.27020  0.80887  0.39033  1.0000
  H   H1459     1.0  0.32889  0.77839  0.38069  1.0000
  C   C1211     1.0  0.28431  0.80976  0.36029  1.0000
  H   H1460     1.0  0.36846  0.79021  0.62154  1.0000
  C   C1212     1.0  0.25917  0.53198  0.32185  1.0000
  C   C1213     1.0  0.38303  0.75208  0.37268  1.0000
  C   C1214     1.0  0.37024  0.75990  0.38810  1.0000
  C   C1215     1.0  0.35573  0.75027  0.40022  1.0000
  C   C1216     1.0  0.35412  0.73264  0.39712  1.0000
  C   C1217     1.0  0.36715  0.72464  0.38197  1.0000
  C   C1218     1.0  0.38149  0.73438  0.36970  1.0000
  H   H1461     1.0  0.37143  0.77355  0.39051  1.0000
  H   H1462     1.0  0.34581  0.75648  0.41194  1.0000
  H   H1463     1.0  0.36606  0.71092  0.37961  1.0000
  H   H1464     1.0  0.39138  0.72814  0.35798  1.0000
  N   N79       1.0  0.24875  0.55111  0.32663  1.0000
  H   H1465     1.0  0.25134  0.63271  0.46666  1.0000
  H   H1466     1.0  0.26615  0.70626  0.50417  1.0000
  C   C1219     1.0  0.24432  0.85535  0.31496  1.0000
  C   C1220     1.0  0.25413  0.71365  0.42731  1.0000
  C   C1221     1.0  0.35228  0.79279  0.34333  1.0000
  C   C1222     1.0  0.25636  0.87587  0.35947  1.0000
  H   H1467     1.0  0.25143  0.93428  0.33371  1.0000
  C   C1223     1.0  0.25770  0.90214  0.31992  1.0000
  C   C1224     1.0  0.28346  0.80441  0.38024  1.0000
  C   C1225     1.0  0.29249  0.67249  0.61717  1.0000
  C   C1226     1.0  0.29290  0.68632  0.59982  1.0000
  C   C1227     1.0  0.28617  0.68346  0.58460  1.0000
  C   C1228     1.0  0.27846  0.66710  0.58696  1.0000
  C   C1229     1.0  0.27845  0.65308  0.60416  1.0000
  C   C1230     1.0  0.28558  0.65571  0.61921  1.0000
  H   H1468     1.0  0.29855  0.69913  0.59806  1.0000
  H   H1469     1.0  0.28676  0.69402  0.57110  1.0000
  C   C1231     1.0  0.25936  0.63448  0.47701  1.0000
  H   H1470     1.0  0.32382  0.78546  0.31691  1.0000
  C   C1232     1.0  0.30423  0.75032  0.55469  1.0000
  C   C1233     1.0  0.31074  0.73020  0.55752  1.0000
  C   C1234     1.0  0.31316  0.72060  0.54234  1.0000
  C   C1235     1.0  0.30892  0.73103  0.52434  1.0000
  C   C1236     1.0  0.30202  0.75110  0.52162  1.0000
  C   C1237     1.0  0.29978  0.76073  0.53674  1.0000
  H   H1471     1.0  0.31432  0.72208  0.57125  1.0000
  H   H1472     1.0  0.31844  0.70505  0.54457  1.0000
  H   H1473     1.0  0.29871  0.75924  0.50778  1.0000
  H   H1474     1.0  0.29476  0.77631  0.53446  1.0000
  H   H1475     1.0  0.48475  0.74580  0.33237  1.0000
  Fe  Fe170     1.0  0.24427  0.64809  0.58026  1.0000
  H   H1476     1.0  0.41175  0.81784  0.63657  1.0000
  H   H1477     1.0  0.27159  0.81845  0.35489  1.0000
  H   H1478     1.0  0.27328  0.64004  0.60576  1.0000
  S   S334      1.0  0.40300  0.74178  0.31357  1.0000
  C   C1238     1.0  0.24101  0.56140  0.37737  1.0000
  H   H1479     1.0  0.26992  0.72396  0.51480  1.0000
  C   C1239     1.0  0.25589  0.80886  0.43565  1.0000
  C   C1240     1.0  0.26561  0.66428  0.45595  1.0000
  S   S335      1.0  0.23869  0.84049  0.33782  1.0000
  H   H1480     1.0  0.24077  0.69005  0.51685  1.0000
  H   H1481     1.0  0.26292  0.78043  0.62296  1.0000
  H   H1482     1.0  0.26372  0.90390  0.39467  1.0000
  C   C1241     1.0  0.41446  0.75991  0.64016  1.0000
  S   S336      1.0  0.29927  0.67663  0.63690  1.0000
  H   H1483     1.0  0.25295  0.64038  0.51579  1.0000
  C   C1242     1.0  0.30136  0.80381  0.34728  1.0000
  H   H1484     1.0  0.28085  0.65732  0.45054  1.0000
  H   H1485     1.0  0.35493  0.75774  0.33573  1.0000
  N   N80       1.0  0.33635  0.78511  0.34082  1.0000
  H   H1486     1.0  0.27428  0.69870  0.52676  1.0000
  N   N81       1.0  0.24342  0.90677  0.33754  1.0000
  H   H1487     1.0  0.27155  0.90648  0.31880  1.0000
  H   H1488     1.0  0.46929  0.84102  0.32216  1.0000
  N   N82       1.0  0.25834  0.65522  0.47643  1.0000
  H   H1489     1.0  0.35502  0.78785  0.35830  1.0000
  C   C1243     1.0  0.24817  0.80438  0.58117  1.0000
  C   C1244     1.0  0.24909  0.82771  0.42597  1.0000
  C   C1245     1.0  0.26931  0.65693  0.49021  1.0000
  C   C1246     1.0  0.28453  0.66741  0.48449  1.0000
  C   C1247     1.0  0.26457  0.64829  0.51021  1.0000
  C   C1248     1.0  0.29433  0.66898  0.49801  1.0000
  C   C1249     1.0  0.27466  0.64976  0.52350  1.0000
  C   C1250     1.0  0.28944  0.66012  0.51746  1.0000
  H   H1490     1.0  0.25389  0.58034  0.31779  1.0000
  S   S337      1.0  0.24521  0.72099  0.46417  1.0000
  Fe  Fe171     1.0  0.30261  0.70736  0.63202  1.0000
  C   C1251     1.0  0.29970  0.79322  0.38727  1.0000
  H   H1491     1.0  0.27191  0.52592  0.32886  1.0000
  C   C1252     1.0  0.25650  0.72207  0.55458  1.0000
  C   C1253     1.0  0.43981  0.78597  0.64094  1.0000
  H   H1492     1.0  0.26524  0.73023  0.57690  1.0000
  C   C1254     1.0  0.26450  0.71026  0.51837  1.0000
  H   H1493     1.0  0.28908  0.67465  0.46968  1.0000
  H   H1494     1.0  0.27461  0.62664  0.47328  1.0000
  H   H1495     1.0  0.30573  0.67723  0.49346  1.0000
  H   H1496     1.0  0.27078  0.72215  0.54559  1.0000
  H   H1497     1.0  0.29696  0.66142  0.52797  1.0000
  C   C1255     1.0  0.26145  0.56522  0.31650  1.0000
  C   C1256     1.0  0.38790  0.76254  0.62490  1.0000
  H   H1498     1.0  0.33250  0.80720  0.31505  1.0000
  H   H1499     1.0  0.27705  0.78587  0.59908  1.0000
  H   H1500     1.0  0.36628  0.78784  0.33362  1.0000
  C   C1257     1.0  0.47979  0.82878  0.31735  1.0000
  C   C1258     1.0  0.25455  0.90632  0.36814  1.0000
  H   H1501     1.0  0.25622  0.59547  0.62729  1.0000
  H   H1502     1.0  0.26210  0.76556  0.58931  1.0000
  Fe  Fe172     1.0  0.32519  0.73434  0.63748  1.0000
  C   C1259     1.0  0.26342  0.86577  0.37616  1.0000
  H   H1503     1.0  0.24523  0.68216  0.54102  1.0000
  C   C1260     1.0  0.25109  0.70568  0.41298  1.0000
  H   H1504     1.0  0.25432  0.57451  0.34947  1.0000
  H   H1505     1.0  0.32957  0.75715  0.34439  1.0000
  H   H1506     1.0  0.38542  0.80532  0.63611  1.0000
  C   C1261     1.0  0.25345  0.72688  0.57268  1.0000
  C   C1262     1.0  0.33528  0.79109  0.31995  1.0000
  C   C1263     1.0  0.24713  0.56273  0.35730  1.0000
  H   H1507     1.0  0.24670  0.81959  0.58257  1.0000
  C   C1264     1.0  0.40426  0.75153  0.63182  1.0000
  C   C1265     1.0  0.25143  0.89648  0.35505  1.0000
  C   C1266     1.0  0.26171  0.89607  0.38476  1.0000
  H   H1508     1.0  0.27151  0.86797  0.40176  1.0000
  H   H1509     1.0  0.29901  0.78913  0.40281  1.0000
  H   H1510     1.0  0.25131  0.92196  0.36609  1.0000
  C   C1267     1.0  0.40845  0.77966  0.64191  1.0000
  H   H1511     1.0  0.26480  0.68002  0.45427  1.0000
  C   C1268     1.0  0.31677  0.78714  0.37444  1.0000
  C   C1269     1.0  0.26300  0.79071  0.60871  1.0000
  N   N83       1.0  0.37099  0.71003  0.45801  1.0000
  C   C1270     1.0  0.35283  0.70308  0.46116  1.0000
  C   C1271     1.0  0.38229  0.70758  0.43835  1.0000
  C   C1272     1.0  0.38253  0.69744  0.47233  1.0000
  C   C1273     1.0  0.36619  0.73035  0.46064  1.0000
  C   C1274     1.0  0.35620  0.73489  0.47893  1.0000
  C   C1275     1.0  0.37064  0.74618  0.44529  1.0000
  C   C1276     1.0  0.35084  0.75399  0.48167  1.0000
  C   C1277     1.0  0.36525  0.76525  0.44820  1.0000
  C   C1278     1.0  0.35532  0.76916  0.46633  1.0000
  H   H1512     1.0  0.34407  0.70307  0.47612  1.0000
  H   H1513     1.0  0.34359  0.71254  0.45097  1.0000
  H   H1514     1.0  0.35564  0.68805  0.45873  1.0000
  H   H1515     1.0  0.37391  0.71568  0.42694  1.0000
  H   H1516     1.0  0.38585  0.69214  0.43688  1.0000
  H   H1517     1.0  0.39621  0.71253  0.43495  1.0000
  H   H1518     1.0  0.37419  0.69653  0.48753  1.0000
  H   H1519     1.0  0.38728  0.68224  0.47007  1.0000
  H   H1520     1.0  0.39569  0.70299  0.47127  1.0000
  H   H1521     1.0  0.35199  0.72372  0.49121  1.0000
  H   H1522     1.0  0.37802  0.74429  0.43080  1.0000
  H   H1523     1.0  0.34281  0.75703  0.49571  1.0000
  H   H1524     1.0  0.36852  0.77712  0.43623  1.0000
  H   H1525     1.0  0.35088  0.78399  0.46843  1.0000
  H   H1526     1.0  0.26173  0.70513  0.39958  1.0000
  C   C1279     1.0  0.24768  0.77125  0.59786  1.0000
  H   H1527     1.0  0.44741  0.77055  0.64182  1.0000
  H   H1528     1.0  0.27493  0.56152  0.32228  1.0000
  C   C1280     1.0  0.26607  0.87585  0.38880  1.0000
  H   H1529     1.0  0.26258  0.80011  0.57169  1.0000
  H   H1530     1.0  0.30094  0.80853  0.33205  1.0000
  H   H1531     1.0  0.26674  0.85001  0.37938  1.0000
  H   H1532     1.0  0.24855  0.78118  0.45025  1.0000
  N   N84       1.0  0.24413  0.71262  0.52933  1.0000
  C   C1281     1.0  0.24059  0.71395  0.44482  1.0000
  C   C1282     1.0  0.25087  0.58360  0.63776  1.0000
  H   H1533     1.0  0.44098  0.79301  0.62530  1.0000
  H   H1534     1.0  0.26327  0.80533  0.61056  1.0000
  H   H1535     1.0  0.37966  0.75582  0.61901  1.0000
  H   H1536     1.0  0.25285  0.62677  0.49150  1.0000
  Fe  Fe173     1.0  0.28124  0.74533  0.64430  1.0000
  H   H1537     1.0  0.25458  0.86733  0.35015  1.0000
  N   N85       1.0  0.24625  0.79113  0.60049  1.0000
  C   C1283     1.0  0.47339  0.81341  0.31465  1.0000
  H   H1538     1.0  0.25890  0.69562  0.63674  1.0000
  H   H1539     1.0  0.24555  0.76104  0.61214  1.0000
  H   H1540     1.0  0.45804  0.81365  0.31732  1.0000
  C   C1284     1.0  0.38160  0.78194  0.62636  1.0000
  H   H1541     1.0  0.40872  0.73629  0.63111  1.0000
  H   H1542     1.0  0.24983  0.52107  0.32646  1.0000
  C   C1285     1.0  0.24163  0.71703  0.54870  1.0000
  H   H1543     1.0  0.24235  0.69140  0.61274  1.0000
  C   C1286     1.0  0.24341  0.79578  0.44285  1.0000
  H   H1544     1.0  0.42685  0.75065  0.64561  1.0000
  C   C1287     1.0  0.31377  0.85832  0.73572  1.0000
  C   C1288     1.0  0.33164  0.49825  0.75270  1.0000
  H   H1545     1.0  0.28176  0.78054  0.65366  1.0000
  H   H1546     1.0  0.25034  0.48949  0.86956  1.0000
  H   H1547     1.0  0.27137  0.82416  0.80179  1.0000
  Fe  Fe174     1.0  0.42726  0.66372  0.81997  1.0000
  S   S338      1.0  0.43895  0.63260  0.83221  1.0000
  H   H1548     1.0  0.27181  0.93610  0.76793  1.0000
  Fe  Fe175     1.0  0.41464  0.67510  0.85887  1.0000
  S   S339      1.0  0.42507  0.64505  0.87498  1.0000
  S   S340      1.0  0.40219  0.70177  0.87153  1.0000
  Fe  Fe176     1.0  0.45124  0.64492  0.85064  1.0000
  Fe  Fe177     1.0  0.41186  0.63532  0.85531  1.0000
  S   S341      1.0  0.39230  0.61368  0.86711  1.0000
  S   S342      1.0  0.44190  0.67581  0.83619  1.0000
  S   S343      1.0  0.39904  0.66549  0.84150  1.0000
  H   H1549     1.0  0.31673  0.96111  0.77320  1.0000
  S   S344      1.0  0.31171  0.74055  0.93847  1.0000
  S   S345      1.0  0.34139  0.68853  0.95028  1.0000
  H   H1550     1.0  0.37889  0.75771  0.69034  1.0000
  C   C1289     1.0  0.35729  0.77977  0.67745  1.0000
  Fe  Fe178     1.0  0.28663  0.74246  0.96348  1.0000
  S   S346      1.0  0.29887  0.53930  0.84331  1.0000
  Fe  Fe179     1.0  0.32166  0.76085  0.95033  1.0000
  S   S347      1.0  0.33444  0.78402  0.92720  1.0000
  C   C1290     1.0  0.34781  0.78643  0.83455  1.0000
  Fe  Fe180     1.0  0.32671  0.71695  0.95912  1.0000
  Fe  Fe181     1.0  0.41763  0.79024  0.71939  1.0000
  S   S348      1.0  0.40379  0.79734  0.74874  1.0000
  C   C1291     1.0  0.26881  0.78765  0.66209  1.0000
  S   S349      1.0  0.36196  0.80226  0.73667  1.0000
  Fe  Fe182     1.0  0.38333  0.82070  0.73293  1.0000
  S   S350      1.0  0.37071  0.85077  0.73828  1.0000
  Fe  Fe183     1.0  0.38371  0.77828  0.74977  1.0000
  S   S351      1.0  0.37383  0.75895  0.77808  1.0000
  S   S352      1.0  0.39874  0.81538  0.70334  1.0000
  S   S353      1.0  0.39892  0.76919  0.72159  1.0000
  Fe  Fe184     1.0  0.29829  0.91341  0.84119  1.0000
  S   S354      1.0  0.27150  0.90114  0.84868  1.0000
  S   S355      1.0  0.29712  0.94566  0.83345  1.0000
  Fe  Fe185     1.0  0.32443  0.87498  0.83360  1.0000
  S   S356      1.0  0.29989  0.85962  0.83977  1.0000
  S   S357      1.0  0.35544  0.86043  0.82476  1.0000
  Fe  Fe186     1.0  0.28487  0.88723  0.82302  1.0000
  S   S358      1.0  0.26723  0.89302  0.80038  1.0000
  Fe  Fe187     1.0  0.28886  0.87471  0.86492  1.0000
  S   S359      1.0  0.27585  0.85791  0.89370  1.0000
  S   S360      1.0  0.31051  0.90113  0.81440  1.0000
  S   S361      1.0  0.31457  0.88829  0.85996  1.0000
  Fe  Fe188     1.0  0.31349  0.55472  0.85642  1.0000
  S   S362      1.0  0.31116  0.58178  0.83333  1.0000
  S   S363      1.0  0.30727  0.55589  0.88797  1.0000
  Fe  Fe189     1.0  0.29961  0.56499  0.81852  1.0000
  S   S364      1.0  0.27445  0.57758  0.80346  1.0000
  Fe  Fe190     1.0  0.34045  0.56742  0.81898  1.0000
  S   S365      1.0  0.36371  0.58512  0.80617  1.0000
  H   H1551     1.0  0.32684  0.79608  0.71422  1.0000
  C   C1292     1.0  0.30612  0.92530  0.74340  1.0000
  C   C1293     1.0  0.30232  0.49068  0.83090  1.0000
  C   C1294     1.0  0.26518  0.55949  0.79902  1.0000
  H   H1552     1.0  0.31663  0.51628  0.88054  1.0000
  C   C1295     1.0  0.26841  0.80545  0.66631  1.0000
  S   S366      1.0  0.30168  0.71976  0.65740  1.0000
  C   C1296     1.0  0.26678  0.52549  0.80043  1.0000
  C   C1297     1.0  0.27364  0.53997  0.80450  1.0000
  H   H1553     1.0  0.28873  0.49172  0.77212  1.0000
  H   H1554     1.0  0.30993  0.93349  0.87027  1.0000
  H   H1555     1.0  0.27370  0.51044  0.80438  1.0000
  C   C1298     1.0  0.28358  0.56817  0.89537  1.0000
  C   C1299     1.0  0.27027  0.57243  0.88337  1.0000
  H   H1556     1.0  0.26612  0.55519  0.73131  1.0000
  H   H1557     1.0  0.24786  0.79047  0.84482  1.0000
  C   C1300     1.0  0.25906  0.58398  0.91917  1.0000
  C   C1301     1.0  0.27796  0.57381  0.91334  1.0000
  H   H1558     1.0  0.27455  0.56813  0.86947  1.0000
  H   H1559     1.0  0.28821  0.57039  0.92271  1.0000
  C   C1302     1.0  0.26244  0.87356  0.79372  1.0000
  C   C1303     1.0  0.31958  0.95807  0.87319  1.0000
  H   H1560     1.0  0.38677  0.67288  0.80156  1.0000
  C   C1304     1.0  0.27000  0.85423  0.80153  1.0000
  C   C1305     1.0  0.25311  0.79677  0.85394  1.0000
  C   C1306     1.0  0.33725  0.90325  0.73963  1.0000
  H   H1561     1.0  0.27932  0.85097  0.81179  1.0000
  C   C1307     1.0  0.36654  0.85191  0.76275  1.0000
  C   C1308     1.0  0.34805  0.86013  0.77190  1.0000
  C   C1309     1.0  0.34464  0.86247  0.79102  1.0000
  C   C1310     1.0  0.35976  0.85683  0.80103  1.0000
  C   C1311     1.0  0.37822  0.84818  0.79208  1.0000
  C   C1312     1.0  0.38159  0.84557  0.77295  1.0000
  H   H1562     1.0  0.33631  0.86477  0.76422  1.0000
  H   H1563     1.0  0.33023  0.86861  0.79795  1.0000
  H   H1564     1.0  0.38995  0.84369  0.79984  1.0000
  H   H1565     1.0  0.39594  0.83927  0.76586  1.0000
  H   H1566     1.0  0.44133  0.76364  0.74998  1.0000
  C   C1313     1.0  0.27519  0.71013  0.94387  1.0000
  C   C1314     1.0  0.27546  0.69426  0.93620  1.0000
  C   C1315     1.0  0.25820  0.69055  0.93440  1.0000
  H   H1567     1.0  0.28858  0.71247  0.94563  1.0000
  H   H1568     1.0  0.28908  0.68459  0.93210  1.0000
  N   N86       1.0  0.34349  0.79998  0.81644  1.0000
  C   C1316     1.0  0.31833  0.80521  0.91880  1.0000
  C   C1317     1.0  0.29918  0.80954  0.92885  1.0000
  C   C1318     1.0  0.28637  0.82613  0.92136  1.0000
  C   C1319     1.0  0.29253  0.83818  0.90361  1.0000
  C   C1320     1.0  0.31170  0.83390  0.89359  1.0000
  C   C1321     1.0  0.32462  0.81758  0.90130  1.0000
  H   H1569     1.0  0.29427  0.80019  0.94243  1.0000
  H   H1570     1.0  0.27162  0.82955  0.92926  1.0000
  H   H1571     1.0  0.31660  0.84319  0.87995  1.0000
  H   H1572     1.0  0.33948  0.81443  0.89359  1.0000
  C   C1322     1.0  0.41336  0.69917  0.78536  1.0000
  C   C1323     1.0  0.40346  0.70720  0.80155  1.0000
  C   C1324     1.0  0.39109  0.72544  0.79925  1.0000
  C   C1325     1.0  0.38900  0.73595  0.78070  1.0000
  C   C1326     1.0  0.39894  0.72796  0.76448  1.0000
  C   C1327     1.0  0.41105  0.70952  0.76680  1.0000
  H   H1573     1.0  0.40561  0.69961  0.81586  1.0000
  H   H1574     1.0  0.38355  0.73155  0.81186  1.0000
  H   H1575     1.0  0.39691  0.73569  0.75018  1.0000
  H   H1576     1.0  0.37628  0.89434  0.85944  1.0000
  C   C1328     1.0  0.38559  0.60466  0.85009  1.0000
  C   C1329     1.0  0.37174  0.59293  0.85656  1.0000
  C   C1330     1.0  0.36509  0.58666  0.84321  1.0000
  C   C1331     1.0  0.37266  0.59167  0.82333  1.0000
  C   C1332     1.0  0.38718  0.60261  0.81693  1.0000
  C   C1333     1.0  0.39344  0.60936  0.83023  1.0000
  H   H1577     1.0  0.36604  0.58878  0.87193  1.0000
  H   H1578     1.0  0.35411  0.57797  0.84832  1.0000
  H   H1579     1.0  0.39350  0.60591  0.80163  1.0000
  H   H1580     1.0  0.40446  0.61800  0.82517  1.0000
  C   C1334     1.0  0.38478  0.69808  0.89297  1.0000
  C   C1335     1.0  0.37749  0.71280  0.90362  1.0000
  C   C1336     1.0  0.36392  0.71000  0.92109  1.0000
  C   C1337     1.0  0.35796  0.69227  0.92818  1.0000
  C   C1338     1.0  0.36543  0.67742  0.91764  1.0000
  C   C1339     1.0  0.37870  0.68039  0.89992  1.0000
  H   H1581     1.0  0.38251  0.72631  0.89850  1.0000
  H   H1582     1.0  0.35833  0.72145  0.92925  1.0000
  H   H1583     1.0  0.36083  0.66368  0.92313  1.0000
  H   H1584     1.0  0.38436  0.66893  0.89179  1.0000
  H   H1585     1.0  0.47078  0.67201  0.86215  1.0000
  H   H1586     1.0  0.36375  0.69192  0.72235  1.0000
  C   C1340     1.0  0.45984  0.79814  0.73323  1.0000
  H   H1587     1.0  0.44462  0.80434  0.73718  1.0000
  H   H1588     1.0  0.46809  0.81098  0.75269  1.0000
  C   C1341     1.0  0.25253  0.77925  0.66874  1.0000
  C   C1342     1.0  0.41621  0.75230  0.82171  1.0000
  C   C1343     1.0  0.31251  0.94790  0.86344  1.0000
  C   C1344     1.0  0.30809  0.95678  0.84524  1.0000
  H   H1589     1.0  0.24455  0.89261  0.77434  1.0000
  C   C1345     1.0  0.24561  0.58773  0.90738  1.0000
  H   H1590     1.0  0.34183  0.78282  0.88375  1.0000
  C   C1346     1.0  0.25913  0.52572  0.88531  1.0000
  H   H1591     1.0  0.45518  0.74431  0.73853  1.0000
  C   C1347     1.0  0.25965  0.82482  0.86085  1.0000
  N   N87       1.0  0.31086  0.61974  0.88595  1.0000
  C   C1348     1.0  0.31652  0.61626  0.86586  1.0000
  C   C1349     1.0  0.31889  0.60196  0.89913  1.0000
  C   C1350     1.0  0.31869  0.63624  0.88693  1.0000
  C   C1351     1.0  0.30674  0.65338  0.89278  1.0000
  C   C1352     1.0  0.33897  0.63535  0.88218  1.0000
  C   C1353     1.0  0.31471  0.66848  0.89392  1.0000
  C   C1354     1.0  0.34680  0.65049  0.88343  1.0000
  C   C1355     1.0  0.33469  0.66702  0.88933  1.0000
  H   H1592     1.0  0.33246  0.61258  0.86083  1.0000
  H   H1593     1.0  0.31092  0.60382  0.86469  1.0000
  H   H1594     1.0  0.31088  0.62928  0.85542  1.0000
  H   H1595     1.0  0.33487  0.59753  0.89483  1.0000
  H   H1596     1.0  0.31305  0.58930  0.89907  1.0000
  H   H1597     1.0  0.31541  0.60409  0.91433  1.0000
  H   H1598     1.0  0.35923  0.81376  0.78915  1.0000
  H   H1599     1.0  0.34904  0.62282  0.87766  1.0000
  H   H1600     1.0  0.30529  0.68133  0.89857  1.0000
  H   H1601     1.0  0.36239  0.64924  0.87994  1.0000
  H   H1602     1.0  0.34081  0.67866  0.89045  1.0000
  H   H1603     1.0  0.35679  0.72452  0.72994  1.0000
  C   C1356     1.0  0.36779  0.93164  0.83713  1.0000
  C   C1357     1.0  0.34191  0.90964  0.75398  1.0000
  H   H1604     1.0  0.33430  0.80621  0.85491  1.0000
  H   H1605     1.0  0.39631  0.81142  0.66006  1.0000
  N   N88       1.0  0.29640  0.54290  0.73168  1.0000
  C   C1358     1.0  0.29802  0.53695  0.71319  1.0000
  C   C1359     1.0  0.27564  0.54597  0.74140  1.0000
  C   C1360     1.0  0.30811  0.52857  0.74491  1.0000
  C   C1361     1.0  0.32081  0.51142  0.73975  1.0000
  H   H1606     1.0  0.26275  0.64238  0.96409  1.0000
  H   H1607     1.0  0.37054  0.80932  0.80949  1.0000
  H   H1608     1.0  0.31309  0.53533  0.70451  1.0000
  C   C1362     1.0  0.24956  0.56452  0.78960  1.0000
  H   H1609     1.0  0.29284  0.52322  0.71581  1.0000
  H   H1610     1.0  0.32271  0.50787  0.72579  1.0000
  C   C1363     1.0  0.24270  0.55000  0.78544  1.0000
  H   H1611     1.0  0.41380  0.78213  0.80680  1.0000
  H   H1612     1.0  0.42543  0.76186  0.67292  1.0000
  H   H1613     1.0  0.27075  0.53194  0.74729  1.0000
  H   H1614     1.0  0.36367  0.76221  0.82047  1.0000
  H   H1615     1.0  0.48312  0.74553  0.75191  1.0000
  C   C1364     1.0  0.35221  0.75042  0.66157  1.0000
  C   C1365     1.0  0.36821  0.76094  0.68150  1.0000
  H   H1616     1.0  0.27262  0.55347  0.75366  1.0000
  C   C1366     1.0  0.36985  0.96843  0.84204  1.0000
  H   H1617     1.0  0.38324  0.89031  0.81876  1.0000
  C   C1367     1.0  0.44571  0.74759  0.75245  1.0000
  C   C1368     1.0  0.27625  0.48825  0.87915  1.0000
  S   S367      1.0  0.25252  0.75773  0.66205  1.0000
  H   H1618     1.0  0.25935  0.76987  0.87326  1.0000
  C   C1369     1.0  0.45617  0.64572  0.91133  1.0000
  H   H1619     1.0  0.37179  0.97765  0.81129  1.0000
  H   H1620     1.0  0.28406  0.62469  0.90695  1.0000
  H   H1621     1.0  0.33336  0.92834  0.77393  1.0000
  H   H1622     1.0  0.32047  0.50269  0.86208  1.0000
  H   H1623     1.0  0.24286  0.57964  0.78544  1.0000
  C   C1370     1.0  0.25195  0.81460  0.67786  1.0000
  H   H1624     1.0  0.31910  0.78827  0.81701  1.0000
  C   C1371     1.0  0.30362  0.95493  0.78046  1.0000
  C   C1372     1.0  0.29120  0.96511  0.75136  1.0000
  C   C1373     1.0  0.25117  0.58181  0.88958  1.0000
  H   H1625     1.0  0.28233  0.63575  0.88202  1.0000
  H   H1626     1.0  0.46848  0.76429  0.76391  1.0000
  C   C1374     1.0  0.33274  0.79157  0.80704  1.0000
  C   C1375     1.0  0.36583  0.74638  0.67336  1.0000
  C   C1376     1.0  0.46629  0.78663  0.71921  1.0000
  S   S368      1.0  0.42845  0.67616  0.78828  1.0000
  H   H1627     1.0  0.44340  0.71338  0.80374  1.0000
  H   H1628     1.0  0.37484  0.73202  0.67585  1.0000
  S   S369      1.0  0.25909  0.66994  0.92558  1.0000
  H   H1629     1.0  0.31771  0.86911  0.74090  1.0000
  H   H1630     1.0  0.28487  0.86216  0.75279  1.0000
  C   C1377     1.0  0.47408  0.63295  0.90833  1.0000
  H   H1631     1.0  0.26761  0.95200  0.78427  1.0000
  H   H1632     1.0  0.42597  0.78362  0.67948  1.0000
  H   H1633     1.0  0.28046  0.97687  0.75771  1.0000
  S   S370      1.0  0.25208  0.83668  0.68317  1.0000
  C   C1378     1.0  0.35841  0.76719  0.83402  1.0000
  H   H1634     1.0  0.29227  0.93062  0.73907  1.0000
  C   C1379     1.0  0.25791  0.49715  0.87519  1.0000
  H   H1635     1.0  0.32265  0.95136  0.88745  1.0000
  H   H1636     1.0  0.35941  0.74945  0.88185  1.0000
  H   H1637     1.0  0.30285  0.50310  0.91417  1.0000
  N   N89       1.0  0.43581  0.67813  0.91852  1.0000
  C   C1380     1.0  0.43604  0.69397  0.90106  1.0000
  C   C1381     1.0  0.41873  0.66950  0.92108  1.0000
  C   C1382     1.0  0.43299  0.68654  0.93585  1.0000
  C   C1383     1.0  0.45444  0.66396  0.91603  1.0000
  H   H1638     1.0  0.26841  0.77980  0.93074  1.0000
  H   H1639     1.0  0.40625  0.75562  0.83486  1.0000
  H   H1640     1.0  0.28095  0.81205  0.66073  1.0000
  H   H1641     1.0  0.36230  0.88395  0.84961  1.0000
  H   H1642     1.0  0.39701  0.90303  0.82660  1.0000
  H   H1643     1.0  0.44794  0.70175  0.89878  1.0000
  H   H1644     1.0  0.41818  0.66541  0.90757  1.0000
  H   H1645     1.0  0.40484  0.67994  0.92458  1.0000
  H   H1646     1.0  0.41859  0.65650  0.93312  1.0000
  H   H1647     1.0  0.43453  0.67488  0.94901  1.0000
  H   H1648     1.0  0.44334  0.69597  0.93406  1.0000
  H   H1649     1.0  0.41836  0.69601  0.93890  1.0000
  C   C1384     1.0  0.28675  0.49804  0.88613  1.0000
  H   H1650     1.0  0.26357  0.80372  0.91658  1.0000
  H   H1651     1.0  0.42216  0.70489  0.90199  1.0000
  H   H1652     1.0  0.42136  0.72155  0.83290  1.0000
  H   H1653     1.0  0.37060  0.73934  0.85021  1.0000
  H   H1654     1.0  0.25856  0.75805  0.90641  1.0000
  C   C1385     1.0  0.33157  0.81920  0.81960  1.0000
  H   H1655     1.0  0.27485  0.80161  0.71630  1.0000
  H   H1656     1.0  0.28457  0.52542  0.89445  1.0000
  H   H1657     1.0  0.31694  0.52100  0.79071  1.0000
  H   H1658     1.0  0.34142  0.48538  0.74845  1.0000
  C   C1386     1.0  0.41846  0.77747  0.67168  1.0000
  N   N90       1.0  0.37586  0.66032  0.78386  1.0000
  C   C1387     1.0  0.36201  0.64742  0.78734  1.0000
  C   C1388     1.0  0.39563  0.64992  0.77632  1.0000
  C   C1389     1.0  0.37584  0.66416  0.80294  1.0000
  C   C1390     1.0  0.37049  0.67813  0.76939  1.0000
  C   C1391     1.0  0.36938  0.67676  0.75062  1.0000
  C   C1392     1.0  0.36644  0.69712  0.77323  1.0000
  C   C1393     1.0  0.36143  0.71359  0.75914  1.0000
  C   C1394     1.0  0.36048  0.71170  0.74087  1.0000
  H   H1659     1.0  0.36299  0.64152  0.77441  1.0000
  H   H1660     1.0  0.36465  0.63452  0.79917  1.0000
  H   H1661     1.0  0.34682  0.65524  0.79156  1.0000
  H   H1662     1.0  0.40615  0.65972  0.77206  1.0000
  H   H1663     1.0  0.40101  0.63737  0.78739  1.0000
  H   H1664     1.0  0.36135  0.67179  0.80961  1.0000
  H   H1665     1.0  0.36735  0.69974  0.78687  1.0000
  H   H1666     1.0  0.35858  0.72794  0.76233  1.0000
  N   N91       1.0  0.45565  0.73927  0.76902  1.0000
  C   C1395     1.0  0.26545  0.83911  0.79593  1.0000
  S   S371      1.0  0.29521  0.76475  0.97423  1.0000
  H   H1667     1.0  0.34741  0.90173  0.82316  1.0000
  H   H1668     1.0  0.28585  0.53607  0.81139  1.0000
  H   H1669     1.0  0.30104  0.77425  0.91007  1.0000
  H   H1670     1.0  0.47281  0.71564  0.75521  1.0000
  N   N92       1.0  0.27435  0.78109  0.89983  1.0000
  H   H1671     1.0  0.29265  0.96670  0.78673  1.0000
  C   C1396     1.0  0.25443  0.57905  0.65660  1.0000
  H   H1672     1.0  0.30684  0.94316  0.79305  1.0000
  C   C1397     1.0  0.26668  0.79301  0.88259  1.0000
  C   C1398     1.0  0.25979  0.78507  0.87039  1.0000
  C   C1399     1.0  0.31936  0.91100  0.73441  1.0000
  C   C1400     1.0  0.36249  0.75401  0.85091  1.0000
  C   C1401     1.0  0.42046  0.76717  0.80591  1.0000
  H   H1673     1.0  0.30805  0.98236  0.82241  1.0000
  H   H1674     1.0  0.31566  0.90587  0.72339  1.0000
  C   C1402     1.0  0.30616  0.48840  0.91077  1.0000
  H   H1675     1.0  0.28202  0.92792  0.78918  1.0000
  C   C1403     1.0  0.24571  0.86267  0.77505  1.0000
  C   C1404     1.0  0.44219  0.74341  0.78722  1.0000
  C   C1405     1.0  0.47318  0.80193  0.74197  1.0000
  H   H1676     1.0  0.28898  0.54802  0.70365  1.0000
  H   H1677     1.0  0.30409  0.97119  0.74290  1.0000
  H   H1678     1.0  0.28442  0.96178  0.74095  1.0000
  C   C1406     1.0  0.43332  0.76286  0.78895  1.0000
  C   C1407     1.0  0.32886  0.92411  0.76292  1.0000
  C   C1408     1.0  0.25048  0.87771  0.78036  1.0000
  S   S372      1.0  0.25192  0.55862  0.69395  1.0000
  C   C1409     1.0  0.26632  0.81329  0.87731  1.0000
  H   H1679     1.0  0.24675  0.75506  0.71948  1.0000
  S   S373      1.0  0.25735  0.74302  0.95843  1.0000
  H   H1680     1.0  0.45095  0.71059  0.77143  1.0000
  C   C1410     1.0  0.30163  0.82017  0.69335  1.0000
  C   C1411     1.0  0.36982  0.94748  0.82112  1.0000
  C   C1412     1.0  0.27317  0.64504  0.97143  1.0000
  C   C1413     1.0  0.25304  0.81658  0.84918  1.0000
  H   H1681     1.0  0.33498  0.79825  0.66270  1.0000
  H   H1682     1.0  0.37044  0.94607  0.80657  1.0000
  H   H1683     1.0  0.28402  0.63132  0.97416  1.0000
  C   C1414     1.0  0.31135  0.97550  0.83655  1.0000
  C   C1415     1.0  0.36186  0.80331  0.80283  1.0000
  H   H1684     1.0  0.31738  0.81781  0.82955  1.0000
  H   H1685     1.0  0.32834  0.82893  0.80577  1.0000
  H   H1686     1.0  0.37104  0.78978  0.79841  1.0000
  H   H1687     1.0  0.28259  0.75328  0.89129  1.0000
  H   H1688     1.0  0.29443  0.57278  0.71652  1.0000
  C   C1416     1.0  0.32719  0.84835  0.72240  1.0000
  S   S374      1.0  0.32876  0.55295  0.80190  1.0000
  H   H1689     1.0  0.48041  0.74255  0.77774  1.0000
  H   H1690     1.0  0.26794  0.82636  0.71828  1.0000
  H   H1691     1.0  0.37247  0.66283  0.74659  1.0000
  H   H1692     1.0  0.29742  0.80958  0.68741  1.0000
  H   H1693     1.0  0.39638  0.64411  0.76341  1.0000
  H   H1694     1.0  0.37972  0.65047  0.81355  1.0000
  H   H1695     1.0  0.44400  0.64110  0.90945  1.0000
  C   C1417     1.0  0.33011  0.50167  0.77106  1.0000
  C   C1418     1.0  0.36444  0.69333  0.73662  1.0000
  H   H1696     1.0  0.40317  0.77832  0.67964  1.0000
  H   H1697     1.0  0.36697  0.95565  0.87236  1.0000
  C   C1419     1.0  0.34621  0.77850  0.86979  1.0000
  S   S375      1.0  0.24774  0.51055  0.73246  1.0000
  C   C1420     1.0  0.34198  0.79180  0.85301  1.0000
  C   C1421     1.0  0.25319  0.84337  0.78275  1.0000
  C   C1422     1.0  0.36713  0.93498  0.85571  1.0000
  C   C1423     1.0  0.30723  0.53172  0.76357  1.0000
  H   H1698     1.0  0.29275  0.83473  0.68846  1.0000
  C   C1424     1.0  0.41144  0.80893  0.65151  1.0000
  H   H1699     1.0  0.28069  0.65586  0.96049  1.0000
  H   H1700     1.0  0.29755  0.50612  0.82972  1.0000
  H   H1701     1.0  0.24799  0.69105  0.66233  1.0000
  S   S376      1.0  0.33936  0.73681  0.96890  1.0000
  H   H1702     1.0  0.43242  0.74184  0.75485  1.0000
  S   S377      1.0  0.34348  0.54121  0.84302  1.0000
  H   H1703     1.0  0.29830  0.54466  0.76834  1.0000
  C   C1425     1.0  0.46300  0.71822  0.76921  1.0000
  S   S378      1.0  0.36142  0.79912  0.68518  1.0000
  H   H1704     1.0  0.34131  0.77791  0.80249  1.0000
  C   C1426     1.0  0.30271  0.56169  0.72675  1.0000
  H   H1705     1.0  0.31837  0.55999  0.71983  1.0000
  C   C1427     1.0  0.38382  0.90482  0.82082  1.0000
  C   C1428     1.0  0.31792  0.51835  0.77646  1.0000
  C   C1429     1.0  0.34920  0.91567  0.82535  1.0000
  H   H1706     1.0  0.25321  0.91723  0.74057  1.0000
  C   C1430     1.0  0.27822  0.81259  0.72242  1.0000
  H   H1707     1.0  0.32894  0.80161  0.79356  1.0000
  H   H1708     1.0  0.27121  0.82046  0.88589  1.0000
  S   S379      1.0  0.24732  0.82465  0.77573  1.0000
  C   C1431     1.0  0.24807  0.56332  0.67017  1.0000
  C   C1432     1.0  0.25770  0.72277  0.94928  1.0000
  N   N93       1.0  0.36616  0.91280  0.83414  1.0000
  H   H1709     1.0  0.27498  0.80782  0.73853  1.0000
  C   C1433     1.0  0.26298  0.78846  0.91747  1.0000
  Fe  Fe191     1.0  0.32878  0.52801  0.82756  1.0000
  C   C1434     1.0  0.34337  0.78370  0.66603  1.0000
  H   H1710     1.0  0.41853  0.70327  0.75425  1.0000
  S   S380      1.0  0.44986  0.78124  0.70820  1.0000
  C   C1435     1.0  0.27368  0.76020  0.90354  1.0000
  H   H1711     1.0  0.38580  0.91427  0.80612  1.0000
  N   N94       1.0  0.29858  0.81497  0.71484  1.0000
  H   H1712     1.0  0.27553  0.83806  0.74164  1.0000
  S   S381      1.0  0.48182  0.63263  0.85508  1.0000
  H   H1713     1.0  0.25470  0.58833  0.93305  1.0000
  H   H1714     1.0  0.23930  0.92641  0.78414  1.0000
  C   C1436     1.0  0.31058  0.93256  0.75771  1.0000
  H   H1715     1.0  0.27944  0.75181  0.91668  1.0000
  C   C1437     1.0  0.27870  0.94071  0.77746  1.0000
  H   H1716     1.0  0.30048  0.56796  0.73977  1.0000
  H   H1717     1.0  0.35570  0.90316  0.75825  1.0000
  H   H1718     1.0  0.31701  0.82041  0.68627  1.0000
  H   H1719     1.0  0.43815  0.68820  0.88772  1.0000
  C   C1438     1.0  0.35629  0.75965  0.86876  1.0000
  C   C1439     1.0  0.25147  0.53046  0.79072  1.0000
  H   H1720     1.0  0.24747  0.78773  0.91998  1.0000
  H   H1721     1.0  0.29116  0.65549  0.89672  1.0000
  H   H1722     1.0  0.41997  0.81479  0.65851  1.0000
  C   C1440     1.0  0.36366  0.89788  0.85236  1.0000
  C   C1441     1.0  0.30344  0.82996  0.72214  1.0000
  C   C1442     1.0  0.29009  0.84039  0.73579  1.0000
  H   H1723     1.0  0.30796  0.78423  0.71545  1.0000
  C   C1443     1.0  0.24043  0.71921  0.94730  1.0000
  C   C1444     1.0  0.29484  0.78237  0.89715  1.0000
  H   H1724     1.0  0.34747  0.89204  0.73275  1.0000
  H   H1725     1.0  0.33566  0.92192  0.83482  1.0000
  H   H1726     1.0  0.36536  0.92400  0.86882  1.0000
  C   C1445     1.0  0.31131  0.79593  0.72055  1.0000
  Fe  Fe192     1.0  0.37873  0.79502  0.70815  1.0000
  H   H1727     1.0  0.35024  0.90266  0.86285  1.0000
  S   S382      1.0  0.35133  0.73246  0.64973  1.0000
  N   N95       1.0  0.29643  0.94802  0.76666  1.0000
  H   H1728     1.0  0.47197  0.68279  0.91913  1.0000
  C   C1446     1.0  0.28940  0.62284  0.89163  1.0000
  H   H1729     1.0  0.28400  0.61029  0.89048  1.0000
  C   C1447     1.0  0.43761  0.72860  0.80366  1.0000
  C   C1448     1.0  0.32217  0.83437  0.71570  1.0000
  C   C1449     1.0  0.29527  0.85436  0.74240  1.0000
  H   H1730     1.0  0.30973  0.79171  0.73660  1.0000
  H   H1731     1.0  0.33318  0.82695  0.70548  1.0000
  H   H1732     1.0  0.29316  0.67158  0.97475  1.0000
  H   H1733     1.0  0.35035  0.92560  0.81091  1.0000
  H   H1734     1.0  0.33920  0.82695  0.82564  1.0000
  H   H1735     1.0  0.34166  0.85136  0.71732  1.0000
  H   H1736     1.0  0.47146  0.71107  0.78075  1.0000
  H   H1737     1.0  0.25246  0.54028  0.88767  1.0000
  H   H1738     1.0  0.33855  0.49157  0.78111  1.0000
  C   C1450     1.0  0.32023  0.50135  0.87768  1.0000
  H   H1739     1.0  0.33530  0.49503  0.87983  1.0000
  C   C1451     1.0  0.47262  0.74826  0.76553  1.0000
  H   H1740     1.0  0.26206  0.58780  0.66066  1.0000
  H   H1741     1.0  0.47518  0.61942  0.90407  1.0000
  S   S383      1.0  0.24695  0.95742  0.74051  1.0000
  H   H1742     1.0  0.25954  0.84026  0.85722  1.0000
  C   C1452     1.0  0.42483  0.73310  0.82061  1.0000
  C   C1453     1.0  0.24065  0.70303  0.94001  1.0000
  H   H1743     1.0  0.43627  0.77492  0.77713  1.0000
  H   H1744     1.0  0.29661  0.79751  0.89491  1.0000
  C   C1454     1.0  0.36822  0.95313  0.85799  1.0000
  C   C1455     1.0  0.34067  0.76902  0.65830  1.0000
  H   H1745     1.0  0.30399  0.77643  0.88437  1.0000
  H   H1746     1.0  0.27345  0.48573  0.83598  1.0000
  C   C1456     1.0  0.27751  0.51701  0.88924  1.0000
  N   N96       1.0  0.30637  0.48927  0.89014  1.0000
  N   N97       1.0  0.41925  0.78801  0.65127  1.0000
  S   S384      1.0  0.33936  0.49667  0.82429  1.0000
  C   C1457     1.0  0.47181  0.66876  0.91690  1.0000
  C   C1458     1.0  0.37072  0.96561  0.82362  1.0000
  H   H1747     1.0  0.24074  0.58453  0.88054  1.0000
  C   C1459     1.0  0.24940  0.51586  0.87817  1.0000
  H   H1748     1.0  0.24777  0.82559  0.83648  1.0000
  C   C1460     1.0  0.48581  0.66635  0.86300  1.0000
  H   H1749     1.0  0.25876  0.68217  0.97595  1.0000
  H   H1750     1.0  0.27376  0.48687  0.75933  1.0000
  H   H1751     1.0  0.25005  0.98103  0.86682  1.0000
  H   H1752     1.0  0.25693  0.67164  0.64965  1.0000
  C   C1461     1.0  0.32232  0.97705  0.86472  1.0000
  S   S385      1.0  0.24420  0.51190  0.78484  1.0000
  H   H1753     1.0  0.23970  0.67049  0.97693  1.0000
  H   H1754     1.0  0.24043  0.72322  0.64828  1.0000
  C   C1462     1.0  0.48617  0.77890  0.71410  1.0000
  H   H1755     1.0  0.33025  0.77229  0.64913  1.0000
  H   H1756     1.0  0.27370  0.98174  0.86948  1.0000
  C   C1463     1.0  0.24920  0.68712  0.64823  1.0000
  H   H1757     1.0  0.44815  0.79271  0.64730  1.0000
  H   H1758     1.0  0.36995  0.98264  0.84409  1.0000
  H   H1759     1.0  0.26961  0.98263  0.84621  1.0000
  C   C1464     1.0  0.23856  0.55185  0.66468  1.0000
  C   C1465     1.0  0.23862  0.92374  0.73847  1.0000
  C   C1466     1.0  0.71458  0.43865  0.21743  1.0000
  N   N98       1.0  0.64076  0.24843  0.25874  1.0000
  H   H1760     1.0  0.66637  0.24026  0.22542  1.0000
  S   S386      1.0  0.72177  0.14855  0.03060  1.0000
  H   H1761     1.0  0.72063  0.98522  0.28258  1.0000
  C   C1467     1.0  0.67697  0.19342  0.24844  1.0000
  H   H1762     1.0  0.64411  0.27744  0.25749  1.0000
  H   H1763     1.0  0.67557  0.44997  0.20210  1.0000
  C   C1468     1.0  0.70760  0.13582  0.98580  1.0000
  H   H1764     1.0  0.72775  0.19882  0.99490  1.0000
  C   C1469     1.0  0.65832  0.05581  0.27845  1.0000
  C   C1470     1.0  0.66489  0.19447  0.26653  1.0000
  S   S387      1.0  0.70724  0.02627  0.25897  1.0000
  Fe  Fe193     1.0  0.71642  0.03164  0.20339  1.0000
  S   S388      1.0  0.68681  0.03094  0.22225  1.0000
  H   H1765     1.0  0.58699  0.21159  0.30080  1.0000
  Fe  Fe194     1.0  0.69458  0.05050  0.23701  1.0000
  S   S389      1.0  0.67532  0.07787  0.24494  1.0000
  Fe  Fe195     1.0  0.70231  0.00665  0.24235  1.0000
  H   H1766     1.0  0.64367  0.21167  0.28431  1.0000
  C   C1471     1.0  0.62333  0.17333  0.29053  1.0000
  C   C1472     1.0  0.50142  0.18603  0.27639  1.0000
  H   H1767     1.0  0.72152  0.22993  0.00100  1.0000
  S   S390      1.0  0.70418  0.12343  0.08915  1.0000
  C   C1473     1.0  0.71239  0.25249  0.11161  1.0000
  Fe  Fe196     1.0  0.71280  0.17417  0.08807  1.0000
  S   S391      1.0  0.69009  0.17082  0.07436  1.0000
  Fe  Fe197     1.0  0.68365  0.14838  0.10143  1.0000
  S   S392      1.0  0.65385  0.14553  0.11878  1.0000
  Fe  Fe198     1.0  0.71262  0.14656  0.06315  1.0000
  C   C1474     1.0  0.72523  0.10817  0.20281  1.0000
  S   S393      1.0  0.70443  0.15397  0.11614  1.0000
  H   H1768     1.0  0.63892  0.39841  0.23746  1.0000
  Fe  Fe199     1.0  0.59864  0.23119  0.22802  1.0000
  S   S394      1.0  0.59689  0.25986  0.20683  1.0000
  S   S395      1.0  0.58588  0.22676  0.26016  1.0000
  Fe  Fe200     1.0  0.62046  0.20774  0.19728  1.0000
  S   S396      1.0  0.62094  0.23410  0.17326  1.0000
  S   S397      1.0  0.62969  0.17579  0.19717  1.0000
  Fe  Fe201     1.0  0.62803  0.24810  0.19416  1.0000
  S   S398      1.0  0.65400  0.26242  0.18672  1.0000
  Fe  Fe202     1.0  0.58985  0.24379  0.18771  1.0000
  S   S399      1.0  0.56717  0.25465  0.16918  1.0000
  S   S400      1.0  0.63027  0.22069  0.21682  1.0000
  S   S401      1.0  0.58899  0.21631  0.21010  1.0000
  C   C1475     1.0  0.72683  0.08146  0.12830  1.0000
  S   S402      1.0  0.70169  0.30747  0.25080  1.0000
  H   H1769     1.0  0.72882  0.10332  0.21708  1.0000
  Fe  Fe203     1.0  0.71255  0.35750  0.22119  1.0000
  S   S403      1.0  0.68670  0.35479  0.24554  1.0000
  C   C1476     1.0  0.49569  0.16828  0.28367  1.0000
  Fe  Fe204     1.0  0.70758  0.33157  0.26095  1.0000
  H   H1770     1.0  0.72226  0.99241  0.17701  1.0000
  Fe  Fe205     1.0  0.68350  0.33103  0.23263  1.0000
  S   S404      1.0  0.65443  0.32827  0.22934  1.0000
  C   C1477     1.0  0.70185  0.25463  0.15183  1.0000
  S   S405      1.0  0.70761  0.33579  0.20676  1.0000
  C   C1478     1.0  0.53138  0.17276  0.28896  1.0000
  C   C1479     1.0  0.71982  0.20067  0.03272  1.0000
  C   C1480     1.0  0.70214  0.40377  0.23543  1.0000
  C   C1481     1.0  0.69576  0.41978  0.24448  1.0000
  H   H1771     1.0  0.69721  0.39048  0.24250  1.0000
  H   H1772     1.0  0.68572  0.41872  0.25834  1.0000
  H   H1773     1.0  0.61403  0.19536  0.24598  1.0000
  C   C1482     1.0  0.65300  0.21212  0.27011  1.0000
  Fe  Fe206     1.0  0.72601  0.31368  0.22576  1.0000
  H   H1774     1.0  0.73109  0.05311  0.26075  1.0000
  H   H1775     1.0  0.66445  0.18141  0.27780  1.0000
  H   H1776     1.0  0.65678  0.45026  0.23543  1.0000
  C   C1483     1.0  0.54417  0.24889  0.17953  1.0000
  C   C1484     1.0  0.53899  0.24152  0.19942  1.0000
  C   C1485     1.0  0.52070  0.23683  0.20739  1.0000
  C   C1486     1.0  0.50749  0.23933  0.19555  1.0000
  H   H1777     1.0  0.54899  0.23962  0.20872  1.0000
  H   H1778     1.0  0.51682  0.23111  0.22281  1.0000
  C   C1487     1.0  0.65380  0.28114  0.19819  1.0000
  C   C1488     1.0  0.63647  0.29205  0.20682  1.0000
  C   C1489     1.0  0.63682  0.30650  0.21628  1.0000
  C   C1490     1.0  0.65448  0.31015  0.21721  1.0000
  C   C1491     1.0  0.67181  0.29929  0.20853  1.0000
  C   C1492     1.0  0.67145  0.28493  0.19895  1.0000
  H   H1779     1.0  0.62278  0.28943  0.20609  1.0000
  H   H1780     1.0  0.62336  0.31491  0.22287  1.0000
  H   H1781     1.0  0.68551  0.30194  0.20919  1.0000
  H   H1782     1.0  0.68493  0.27658  0.19236  1.0000
  C   C1493     1.0  0.64702  0.15488  0.14002  1.0000
  C   C1494     1.0  0.65387  0.17067  0.14140  1.0000
  C   C1495     1.0  0.64812  0.17773  0.15873  1.0000
  C   C1496     1.0  0.63594  0.16866  0.17475  1.0000
  C   C1497     1.0  0.62915  0.15292  0.17330  1.0000
  C   C1498     1.0  0.63443  0.14625  0.15591  1.0000
  H   H1783     1.0  0.66347  0.17751  0.12908  1.0000
  H   H1784     1.0  0.65351  0.18984  0.15984  1.0000
  H   H1785     1.0  0.61975  0.14586  0.18564  1.0000
  H   H1786     1.0  0.62907  0.13410  0.15485  1.0000
  S   S406      1.0  0.69208  0.45750  0.24666  1.0000
  C   C1499     1.0  0.65291  0.26308  0.25474  1.0000
  H   H1787     1.0  0.56546  0.14587  0.29349  1.0000
  S   S407      1.0  0.73355  0.33558  0.23735  1.0000
  H   H1788     1.0  0.70999  0.42510  0.27612  1.0000
  N   N99       1.0  0.54983  0.17564  0.29157  1.0000
  H   H1789     1.0  0.70106  0.24518  0.12056  1.0000
  H   H1790     1.0  0.73543  0.24480  0.16369  1.0000
  H   H1791     1.0  0.57535  0.16044  0.30326  1.0000
  H   H1792     1.0  0.72176  0.36345  0.26236  1.0000
  H   H1793     1.0  0.50248  0.24875  0.16639  1.0000
  S   S408      1.0  0.72017  0.20314  0.08408  1.0000
  S   S409      1.0  0.72300  0.05312  0.21665  1.0000
  C   C1500     1.0  0.66574  0.22784  0.23734  1.0000
  C   C1501     1.0  0.54570  0.19058  0.30341  1.0000
  H   H1794     1.0  0.50298  0.13891  0.29904  1.0000
  C   C1502     1.0  0.71163  0.13800  0.01734  1.0000
  C   C1503     1.0  0.71419  0.14467  0.99716  1.0000
  H   H1795     1.0  0.71677  0.27944  0.15998  1.0000
  C   C1504     1.0  0.69863  0.12002  0.99449  1.0000
  C   C1505     1.0  0.69576  0.11352  0.01473  1.0000
  C   C1506     1.0  0.70214  0.12257  0.02617  1.0000
  C   C1507     1.0  0.65659  0.43904  0.22818  1.0000
  H   H1796     1.0  0.73531  0.43923  0.26399  1.0000
  H   H1797     1.0  0.68875  0.10137  0.02157  1.0000
  H   H1798     1.0  0.70013  0.11731  0.04172  1.0000
  H   H1799     1.0  0.69937  0.25525  0.16742  1.0000
  H   H1800     1.0  0.63641  0.16822  0.26173  1.0000
  C   C1508     1.0  0.53085  0.25166  0.16768  1.0000
  H   H1801     1.0  0.61872  0.23793  0.28234  1.0000
  H   H1802     1.0  0.64333  0.11345  0.24241  1.0000
  C   C1509     1.0  0.64251  0.06833  0.30775  1.0000
  H   H1803     1.0  0.70789  0.24576  0.08616  1.0000
  C   C1510     1.0  0.71436  0.40526  0.21709  1.0000
  H   H1804     1.0  0.66410  0.10188  0.27309  1.0000
  C   C1511     1.0  0.65317  0.22945  0.25559  1.0000
  N   N100      1.0  0.72041  0.26015  0.14050  1.0000
  H   H1805     1.0  0.68587  0.02275  0.29939  1.0000
  C   C1512     1.0  0.72072  0.42269  0.20819  1.0000
  C   C1513     1.0  0.73691  0.34239  0.30475  1.0000
  C   C1514     1.0  0.72337  0.26099  0.11941  1.0000
  N   N101      1.0  0.73001  0.43922  0.29470  1.0000
  S   S410      1.0  0.71171  0.32996  0.29084  1.0000
  H   H1806     1.0  0.72142  0.18499  0.03953  1.0000
  H   H1807     1.0  0.66400  0.25829  0.26391  1.0000
  H   H1808     1.0  0.63462  0.25620  0.22994  1.0000
  S   S411      1.0  0.72131  0.38585  0.20471  1.0000
  H   H1809     1.0  0.54412  0.10967  0.28416  1.0000
  C   C1515     1.0  0.71183  0.41624  0.29016  1.0000
  H   H1810     1.0  0.71926  0.45214  0.21032  1.0000
  H   H1811     1.0  0.70672  0.20477  0.02627  1.0000
  H   H1812     1.0  0.61775  0.26949  0.24684  1.0000
  H   H1813     1.0  0.57212  0.09007  0.29837  1.0000
  C   C1516     1.0  0.64755  0.05324  0.29759  1.0000
  C   C1517     1.0  0.72705  0.34541  0.28973  1.0000
  H   H1814     1.0  0.68039  0.98823  0.22383  1.0000
  H   H1815     1.0  0.69743  0.39525  0.28687  1.0000
  H   H1816     1.0  0.72898  0.23509  0.02027  1.0000
  H   H1817     1.0  0.73637  0.23079  0.14631  1.0000
  H   H1818     1.0  0.72157  0.08831  0.11510  1.0000
  C   C1518     1.0  0.52515  0.15480  0.29606  1.0000
  H   H1819     1.0  0.66065  0.26591  0.23935  1.0000
  C   C1519     1.0  0.72044  0.27930  0.14418  1.0000
  N   N102      1.0  0.73727  0.20488  0.01803  1.0000
  N   N103      1.0  0.65780  0.39366  0.19934  1.0000
  C   C1520     1.0  0.67806  0.38340  0.19361  1.0000
  C   C1521     1.0  0.64651  0.37880  0.21125  1.0000
  C   C1522     1.0  0.64977  0.40258  0.18159  1.0000
  C   C1523     1.0  0.65732  0.40898  0.20957  1.0000
  C   C1524     1.0  0.66758  0.42410  0.20013  1.0000
  C   C1525     1.0  0.64682  0.40946  0.22891  1.0000
  H   H1820     1.0  0.68923  0.26456  0.14619  1.0000
  C   C1526     1.0  0.64654  0.42432  0.23797  1.0000
  H   H1821     1.0  0.72145  0.15664  0.99023  1.0000
  H   H1822     1.0  0.68480  0.37744  0.20649  1.0000
  H   H1823     1.0  0.67902  0.37108  0.18674  1.0000
  H   H1824     1.0  0.68735  0.39300  0.18312  1.0000
  H   H1825     1.0  0.63090  0.38527  0.21557  1.0000
  H   H1826     1.0  0.65221  0.37097  0.22457  1.0000
  H   H1827     1.0  0.64733  0.36736  0.20326  1.0000
  H   H1828     1.0  0.65858  0.41258  0.17099  1.0000
  H   H1829     1.0  0.64932  0.39139  0.17387  1.0000
  H   H1830     1.0  0.63477  0.41107  0.18524  1.0000
  H   H1831     1.0  0.67632  0.42445  0.18566  1.0000
  H   H1832     1.0  0.64281  0.03972  0.30439  1.0000
  H   H1833     1.0  0.73018  0.42398  0.19400  1.0000
  C   C1527     1.0  0.66716  0.43887  0.20934  1.0000
  H   H1834     1.0  0.53350  0.14217  0.30389  1.0000
  N   N104      1.0  0.58493  0.20170  0.14773  1.0000
  C   C1528     1.0  0.59573  0.18481  0.13883  1.0000
  C   C1529     1.0  0.58565  0.21975  0.13263  1.0000
  C   C1530     1.0  0.59527  0.20253  0.16246  1.0000
  C   C1531     1.0  0.56450  0.19995  0.15582  1.0000
  C   C1532     1.0  0.55566  0.19948  0.17575  1.0000
  C   C1533     1.0  0.55264  0.19902  0.14353  1.0000
  C   C1534     1.0  0.53623  0.19816  0.18275  1.0000
  C   C1535     1.0  0.53316  0.19794  0.15067  1.0000
  C   C1536     1.0  0.52496  0.19758  0.17024  1.0000
  H   H1835     1.0  0.59011  0.18404  0.12632  1.0000
  H   H1836     1.0  0.61135  0.18532  0.13320  1.0000
  H   H1837     1.0  0.59500  0.17092  0.14962  1.0000
  H   H1838     1.0  0.60071  0.22218  0.12693  1.0000
  H   H1839     1.0  0.57688  0.23268  0.13864  1.0000
  H   H1840     1.0  0.57999  0.21955  0.11994  1.0000
  H   H1841     1.0  0.58844  0.21547  0.16907  1.0000
  H   H1842     1.0  0.59569  0.18924  0.17417  1.0000
  H   H1843     1.0  0.61059  0.20374  0.15598  1.0000
  H   H1844     1.0  0.56327  0.20059  0.18617  1.0000
  H   H1845     1.0  0.55831  0.19939  0.12823  1.0000
  C   C1537     1.0  0.73324  0.12322  0.16899  1.0000
  H   H1846     1.0  0.52427  0.19760  0.14097  1.0000
  H   H1847     1.0  0.50975  0.19715  0.17571  1.0000
  C   C1538     1.0  0.59981  0.20598  0.27210  1.0000
  H   H1848     1.0  0.62013  0.26239  0.28070  1.0000
  H   H1849     1.0  0.62928  0.09703  0.25876  1.0000
  C   C1539     1.0  0.69316  0.01269  0.31036  1.0000
  H   H1850     1.0  0.55923  0.19286  0.30604  1.0000
  C   C1540     1.0  0.61317  0.19322  0.26132  1.0000
  H   H1851     1.0  0.63877  0.42428  0.25283  1.0000
  H   H1852     1.0  0.71946  0.18517  0.12456  1.0000
  C   C1541     1.0  0.66395  0.07350  0.26949  1.0000
  H   H1853     1.0  0.62401  0.11678  0.28359  1.0000
  H   H1854     1.0  0.61746  0.24459  0.24821  1.0000
  C   C1542     1.0  0.62908  0.24785  0.27880  1.0000
  H   H1855     1.0  0.73484  0.28336  0.13884  1.0000
  H   H1856     1.0  0.53479  0.25735  0.15226  1.0000
  Fe  Fe207     1.0  0.72548  0.13068  0.10219  1.0000
  S   S412      1.0  0.71993  0.03429  0.17128  1.0000
  N   N105      1.0  0.68504  0.10720  0.17883  1.0000
  C   C1543     1.0  0.68480  0.08618  0.18530  1.0000
  C   C1544     1.0  0.66823  0.11816  0.19072  1.0000
  C   C1545     1.0  0.68249  0.11314  0.15837  1.0000
  C   C1546     1.0  0.70315  0.11084  0.18144  1.0000
  C   C1547     1.0  0.70812  0.10516  0.19998  1.0000
  C   C1548     1.0  0.71620  0.12016  0.16601  1.0000
  C   C1549     1.0  0.64883  0.08569  0.29899  1.0000
  C   C1550     1.0  0.72166  0.42155  0.30182  1.0000
  H   H1857     1.0  0.70369  0.45730  0.30670  1.0000
  H   H1858     1.0  0.68415  0.08094  0.20115  1.0000
  H   H1859     1.0  0.67210  0.08261  0.18226  1.0000
  H   H1860     1.0  0.69801  0.07736  0.17775  1.0000
  H   H1861     1.0  0.66828  0.11339  0.20650  1.0000
  H   H1862     1.0  0.65430  0.11619  0.18876  1.0000
  H   H1863     1.0  0.66819  0.13401  0.18662  1.0000
  H   H1864     1.0  0.69456  0.10520  0.14864  1.0000
  H   H1865     1.0  0.66890  0.11005  0.15674  1.0000
  H   H1866     1.0  0.68153  0.12902  0.15279  1.0000
  H   H1867     1.0  0.69887  0.09813  0.21245  1.0000
  H   H1868     1.0  0.71386  0.12484  0.15135  1.0000
  Fe  Fe208     1.0  0.73510  0.02706  0.23739  1.0000
  C   C1551     1.0  0.50757  0.15270  0.29338  1.0000
  C   C1552     1.0  0.62709  0.25501  0.24536  1.0000
  C   C1553     1.0  0.70180  0.43731  0.23548  1.0000
  C   C1554     1.0  0.65946  0.08831  0.27987  1.0000
  H   H1869     1.0  0.53826  0.20497  0.29629  1.0000
  H   H1870     1.0  0.55597  0.19752  0.26551  1.0000
  H   H1871     1.0  0.52276  0.20238  0.27314  1.0000
  H   H1872     1.0  0.68590  0.17961  0.24570  1.0000
  H   H1873     1.0  0.66170  0.04433  0.27043  1.0000
  C   C1555     1.0  0.51254  0.24685  0.17565  1.0000
  H   H1874     1.0  0.49209  0.19809  0.26881  1.0000
  C   C1556     1.0  0.67738  0.21006  0.23386  1.0000
  H   H1875     1.0  0.71691  0.20864  0.04465  1.0000
  H   H1876     1.0  0.71146  0.05812  0.13523  1.0000
  C   C1557     1.0  0.51899  0.18830  0.27896  1.0000
  C   C1558     1.0  0.59752  0.20188  0.29234  1.0000
  C   C1559     1.0  0.72788  0.05529  0.15685  1.0000
  N   N106      1.0  0.61500  0.12729  0.25601  1.0000
  C   C1560     1.0  0.62232  0.13003  0.27211  1.0000
  C   C1561     1.0  0.62830  0.11089  0.24783  1.0000
  C   C1562     1.0  0.61572  0.14516  0.24061  1.0000
  C   C1563     1.0  0.59544  0.12281  0.26343  1.0000
  C   C1564     1.0  0.57919  0.13352  0.25522  1.0000
  C   C1565     1.0  0.59229  0.10694  0.27915  1.0000
  C   C1566     1.0  0.56089  0.12884  0.26274  1.0000
  C   C1567     1.0  0.57401  0.10237  0.28645  1.0000
  C   C1568     1.0  0.55829  0.11334  0.27837  1.0000
  C   C1569     1.0  0.62537  0.17737  0.27039  1.0000
  H   H1877     1.0  0.63690  0.13377  0.26710  1.0000
  H   H1878     1.0  0.61237  0.14175  0.27919  1.0000
  H   H1879     1.0  0.62342  0.10840  0.23557  1.0000
  H   H1880     1.0  0.60613  0.15818  0.24578  1.0000
  H   H1881     1.0  0.63058  0.14832  0.23580  1.0000
  H   H1882     1.0  0.61179  0.14382  0.22731  1.0000
  H   H1883     1.0  0.58027  0.14547  0.24290  1.0000
  H   H1884     1.0  0.60402  0.09774  0.28585  1.0000
  H   H1885     1.0  0.54862  0.13714  0.25634  1.0000
  C   C1570     1.0  0.73104  0.26114  0.07909  1.0000
  S   S413      1.0  0.73580  0.15149  0.07535  1.0000
  H   H1886     1.0  0.63847  0.24312  0.28970  1.0000
  H   H1887     1.0  0.71279  0.03069  0.30763  1.0000
  H   H1888     1.0  0.68658  0.20919  0.21969  1.0000
  C   C1571     1.0  0.73486  0.20262  0.09982  1.0000
  C   C1572     1.0  0.60906  0.18529  0.30163  1.0000
  C   C1573     1.0  0.71615  0.25275  0.09172  1.0000
  H   H1889     1.0  0.72671  0.07265  0.28541  1.0000
  H   H1890     1.0  0.70978  0.29103  0.13713  1.0000
  C   C1574     1.0  0.73642  0.24553  0.14802  1.0000
  S   S414      1.0  0.73126  0.00563  0.22224  1.0000
  H   H1891     1.0  0.57675  0.18213  0.27342  1.0000
  S   S415      1.0  0.69157  0.10788  0.98018  1.0000
  C   C1575     1.0  0.56183  0.18231  0.27233  1.0000
  H   H1892     1.0  0.52963  0.19821  0.19790  1.0000
  S   S416      1.0  0.63922  0.15360  0.30123  1.0000
  C   C1576     1.0  0.72120  0.06430  0.13966  1.0000
  C   C1577     1.0  0.72987  0.36051  0.27363  1.0000
  C   C1578     1.0  0.73144  0.19258  0.11913  1.0000
  C   C1579     1.0  0.73345  0.22593  0.00913  1.0000
  H   H1893     1.0  0.70154  0.23944  0.15180  1.0000
  C   C1580     1.0  0.70434  0.39933  0.29628  1.0000
  H   H1894     1.0  0.56296  0.17291  0.26209  1.0000
  C   C1581     1.0  0.71418  0.45656  0.29267  1.0000
  H   H1895     1.0  0.71982  0.47023  0.28787  1.0000
  H   H1896     1.0  0.73420  0.26082  0.06378  1.0000
  Fe  Fe209     1.0  0.70681  0.48313  0.23635  1.0000
  C   C1582     1.0  0.56156  0.15782  0.30155  1.0000
  H   H1897     1.0  0.70594  0.45659  0.28177  1.0000
  H   H1898     1.0  0.64538  0.09724  0.30687  1.0000
  H   H1899     1.0  0.69496  0.07178  0.30772  1.0000
  C   C1583     1.0  0.73780  0.11717  0.18733  1.0000
  H   H1900     1.0  0.70298  0.05218  0.98239  1.0000
  H   H1901     1.0  0.69251  0.03359  0.97963  1.0000
  S   S417      1.0  0.50628  0.09854  0.32245  1.0000
  S   S418      1.0  0.70442  0.18810  0.60606  1.0000
  H   H1902     1.0  0.72888  0.07184  0.35914  1.0000
  Fe  Fe210     1.0  0.71302  0.15189  0.46678  1.0000
  S   S419      1.0  0.71619  0.17383  0.43868  1.0000
  S   S420      1.0  0.69505  0.15616  0.49622  1.0000
  H   H1903     1.0  0.65885  0.17971  0.62564  1.0000
  C   C1584     1.0  0.52155  0.13376  0.34869  1.0000
  H   H1904     1.0  0.49563  0.13210  0.34075  1.0000
  H   H1905     1.0  0.72749  0.04092  0.32457  1.0000
  H   H1906     1.0  0.65864  0.17209  0.48302  1.0000
  Fe  Fe211     1.0  0.71128  0.15106  0.42558  1.0000
  S   S421      1.0  0.69282  0.16084  0.40280  1.0000
  C   C1585     1.0  0.69568  0.08544  0.38403  1.0000
  S   S422      1.0  0.70549  0.13039  0.45417  1.0000
  Fe  Fe212     1.0  0.62360  0.11585  0.37020  1.0000
  S   S423      1.0  0.64302  0.10878  0.34258  1.0000
  S   S424      1.0  0.63688  0.10989  0.39663  1.0000
  Fe  Fe213     1.0  0.58711  0.12590  0.35333  1.0000
  H   H1907     1.0  0.72826  0.17377  0.48903  1.0000
  S   S425      1.0  0.55464  0.13683  0.35778  1.0000
  Fe  Fe214     1.0  0.62041  0.09373  0.34136  1.0000
  S   S426      1.0  0.62846  0.06547  0.33139  1.0000
  Fe  Fe215     1.0  0.62473  0.13538  0.32798  1.0000
  C   C1586     1.0  0.63187  0.18822  0.46180  1.0000
  S   S427      1.0  0.60214  0.09837  0.37032  1.0000
  S   S428      1.0  0.60695  0.14404  0.35566  1.0000
  H   H1908     1.0  0.69626  0.11657  0.34039  1.0000
  C   C1587     1.0  0.67245  0.05670  0.35411  1.0000
  C   C1588     1.0  0.72198  0.08755  0.35655  1.0000
  C   C1589     1.0  0.67966  0.06691  0.36355  1.0000
  C   C1590     1.0  0.73064  0.17664  0.51705  1.0000
  Fe  Fe216     1.0  0.72859  0.18968  0.61910  1.0000
  H   H1909     1.0  0.55590  0.08868  0.38914  1.0000
  H   H1910     1.0  0.67594  0.11394  0.36009  1.0000
  C   C1591     1.0  0.73606  0.23784  0.53923  1.0000
  H   H1911     1.0  0.71436  0.03265  0.34865  1.0000
  H   H1912     1.0  0.72813  0.09473  0.36466  1.0000
  C   C1592     1.0  0.54132  0.12595  0.34808  1.0000
  C   C1593     1.0  0.55019  0.11002  0.33930  1.0000
  C   C1594     1.0  0.53920  0.10166  0.33171  1.0000
  C   C1595     1.0  0.51942  0.10941  0.33238  1.0000
  H   H1913     1.0  0.56541  0.10384  0.33880  1.0000
  H   H1914     1.0  0.72908  0.23385  0.52979  1.0000
  H   H1915     1.0  0.69663  0.12065  0.36354  1.0000
  H   H1916     1.0  0.51467  0.14627  0.35519  1.0000
  H   H1917     1.0  0.72781  0.12551  0.50658  1.0000
  H   H1918     1.0  0.72715  0.99744  0.36601  1.0000
  H   H1919     1.0  0.63272  0.17645  0.42634  1.0000
  H   H1920     1.0  0.73234  0.44372  0.32221  1.0000
  H   H1921     1.0  0.54594  0.08893  0.32557  1.0000
  C   C1596     1.0  0.72270  0.40935  0.32037  1.0000
  H   H1922     1.0  0.51287  0.07374  0.36929  1.0000
  H   H1923     1.0  0.49654  0.11132  0.41119  1.0000
  C   C1597     1.0  0.67776  0.14623  0.40098  1.0000
  C   C1598     1.0  0.67580  0.12882  0.41424  1.0000
  C   C1599     1.0  0.66329  0.11778  0.41266  1.0000
  C   C1600     1.0  0.65275  0.12398  0.39778  1.0000
  C   C1601     1.0  0.65487  0.14128  0.38438  1.0000
  C   C1602     1.0  0.66730  0.15239  0.38604  1.0000
  H   H1924     1.0  0.68377  0.12394  0.42581  1.0000
  H   H1925     1.0  0.66165  0.10444  0.42313  1.0000
  H   H1926     1.0  0.64679  0.14620  0.37288  1.0000
  H   H1927     1.0  0.66876  0.16586  0.37573  1.0000
  C   C1603     1.0  0.72239  0.17102  0.50448  1.0000
  H   H1928     1.0  0.61561  0.12254  0.43563  1.0000
  H   H1929     1.0  0.67242  0.05039  0.32693  1.0000
  H   H1930     1.0  0.61833  0.18520  0.47221  1.0000
  H   H1931     1.0  0.73459  0.33085  0.31732  1.0000
  N   N107      1.0  0.64630  0.16996  0.45981  1.0000
  H   H1932     1.0  0.66010  0.18267  0.43077  1.0000
  C   C1604     1.0  0.70617  0.16255  0.51184  1.0000
  C   C1605     1.0  0.69864  0.15916  0.53193  1.0000
  C   C1606     1.0  0.70721  0.16434  0.54459  1.0000
  H   H1933     1.0  0.62570  0.19879  0.63564  1.0000
  H   H1934     1.0  0.70142  0.06982  0.38959  1.0000
  H   H1935     1.0  0.68612  0.15254  0.53774  1.0000
  H   H1936     1.0  0.70130  0.16172  0.56005  1.0000
  H   H1937     1.0  0.66408  0.14844  0.47801  1.0000
  H   H1938     1.0  0.66178  0.04805  0.36222  1.0000
  C   C1607     1.0  0.65059  0.17582  0.64018  1.0000
  C   C1608     1.0  0.54072  0.08949  0.38984  1.0000
  H   H1939     1.0  0.70084  0.37396  0.31870  1.0000
  C   C1609     1.0  0.71161  0.98676  0.33886  1.0000
  H   H1940     1.0  0.70802  0.08974  0.32358  1.0000
  H   H1941     1.0  0.72940  0.41245  0.33049  1.0000
  H   H1942     1.0  0.70185  0.09401  0.39070  1.0000
  N   N108      1.0  0.70056  0.09049  0.36247  1.0000
  H   H1943     1.0  0.53084  0.10880  0.40976  1.0000
  C   C1610     1.0  0.70621  0.38733  0.31424  1.0000
  C   C1611     1.0  0.67826  0.05818  0.33413  1.0000
  C   C1612     1.0  0.71778  0.00463  0.33027  1.0000
  H   H1944     1.0  0.67977  0.08881  0.38969  1.0000
  Fe  Fe217     1.0  0.72793  0.17263  0.58509  1.0000
  H   H1945     1.0  0.60746  0.18217  0.31724  1.0000
  C   C1613     1.0  0.66357  0.17465  0.44506  1.0000
  C   C1614     1.0  0.52654  0.10090  0.40137  1.0000
  C   C1615     1.0  0.63602  0.13783  0.46459  1.0000
  H   H1946     1.0  0.54648  0.07087  0.36961  1.0000
  S   S429      1.0  0.73399  0.18081  0.55219  1.0000
  H   H1947     1.0  0.67407  0.06550  0.37898  1.0000
  S   S430      1.0  0.60365  0.11976  0.32439  1.0000
  C   C1616     1.0  0.72309  0.17333  0.53713  1.0000
  C   C1617     1.0  0.51067  0.12563  0.34072  1.0000
  C   C1618     1.0  0.50098  0.09306  0.39023  1.0000
  H   H1948     1.0  0.67103  0.18372  0.44966  1.0000
  C   C1619     1.0  0.62142  0.13210  0.44081  1.0000
  Fe  Fe218     1.0  0.70577  0.15851  0.62567  1.0000
  C   C1620     1.0  0.69840  0.08038  0.33264  1.0000
  C   C1621     1.0  0.65246  0.16173  0.47870  1.0000
  C   C1622     1.0  0.69205  0.11131  0.35634  1.0000
  H   H1949     1.0  0.67420  0.16116  0.44238  1.0000
  H   H1950     1.0  0.61864  0.15498  0.41578  1.0000
  C   C1623     1.0  0.62312  0.15044  0.42963  1.0000
  H   H1951     1.0  0.62687  0.11133  0.46664  1.0000
  C   C1624     1.0  0.53536  0.07950  0.37881  1.0000
  C   C1625     1.0  0.62790  0.12579  0.45821  1.0000
  H   H1952     1.0  0.64012  0.15825  0.49069  1.0000
  H   H1953     1.0  0.63750  0.19826  0.46717  1.0000
  S   S431      1.0  0.72975  0.21645  0.62843  1.0000
  H   H1954     1.0  0.62789  0.19635  0.44776  1.0000
  H   H1955     1.0  0.72581  0.10686  0.49615  1.0000
  C   C1626     1.0  0.69312  0.07893  0.35308  1.0000
  C   C1627     1.0  0.63129  0.16257  0.43580  1.0000
  C   C1628     1.0  0.51584  0.08131  0.37880  1.0000
  H   H1956     1.0  0.71490  0.10723  0.52127  1.0000
  H   H1957     1.0  0.64092  0.13191  0.47809  1.0000
  S   S432      1.0  0.72815  0.16144  0.64026  1.0000
  C   C1629     1.0  0.63788  0.15671  0.45355  1.0000
  C   C1630     1.0  0.70836  0.01725  0.31551  1.0000
  H   H1958     1.0  0.71674  0.38299  0.34028  1.0000
  H   H1959     1.0  0.72698  0.09377  0.34096  1.0000
  S   S433      1.0  0.72748  0.14277  0.60366  1.0000
  C   C1631     1.0  0.71525  0.39240  0.32632  1.0000
  H   H1960     1.0  0.53635  0.18621  0.31785  1.0000
  H   H1961     1.0  0.55373  0.15265  0.31652  1.0000
  C   C1632     1.0  0.63182  0.18655  0.64583  1.0000
  H   H1962     1.0  0.68125  0.21389  0.63942  1.0000
  N   N109      1.0  0.73392  0.00974  0.33539  1.0000
  C   C1633     1.0  0.69104  0.07014  0.32338  1.0000
  C   C1634     1.0  0.72787  0.10977  0.50971  1.0000
  C   C1635     1.0  0.50695  0.10247  0.40184  1.0000
  C   C1636     1.0  0.68742  0.99513  0.31909  1.0000
  C   C1637     1.0  0.73300  0.22954  0.55896  1.0000
  H   H1963     1.0  0.72361  0.21912  0.56479  1.0000
  H   H1964     1.0  0.67585  0.99153  0.31475  1.0000
  C   C1638     1.0  0.72847  0.03007  0.33831  1.0000
  Fe  Fe219     1.0  0.73740  0.11866  0.44791  1.0000
  H   H1965     1.0  0.73359  0.07198  0.52654  1.0000
  Fe  Fe220     1.0  0.72224  0.37562  0.83647  1.0000
  S   S434      1.0  0.69969  0.39281  0.81952  1.0000
  C   C1639     1.0  0.65840  0.15980  0.65325  1.0000
  Fe  Fe221     1.0  0.69252  0.36358  0.87206  1.0000
  S   S435      1.0  0.66711  0.38021  0.85843  1.0000
  S   S436      1.0  0.69108  0.34208  0.90045  1.0000
  Fe  Fe222     1.0  0.68428  0.36796  0.83232  1.0000
  S   S437      1.0  0.67526  0.35287  0.81348  1.0000
  Fe  Fe223     1.0  0.68472  0.40373  0.84693  1.0000
  S   S438      1.0  0.67512  0.43641  0.84233  1.0000
  S   S439      1.0  0.70840  0.34985  0.84680  1.0000
  S   S440      1.0  0.70843  0.38808  0.86300  1.0000
  Fe  Fe224     1.0  0.59876  0.27242  0.79583  1.0000
  S   S441      1.0  0.59614  0.24284  0.81331  1.0000
  S   S442      1.0  0.59936  0.27746  0.76406  1.0000
  Fe  Fe225     1.0  0.60061  0.28743  0.83015  1.0000
  S   S443      1.0  0.59758  0.25908  0.85093  1.0000
  S   S444      1.0  0.60209  0.31336  0.84104  1.0000
  Fe  Fe226     1.0  0.61878  0.24568  0.82731  1.0000
  S   S445      1.0  0.64486  0.22172  0.83026  1.0000
  Fe  Fe227     1.0  0.57494  0.25854  0.83525  1.0000
  S   S446      1.0  0.62362  0.27394  0.80769  1.0000
  S   S447      1.0  0.57583  0.28824  0.81664  1.0000
  S   S448      1.0  0.70070  0.14440  0.89352  1.0000
  Fe  Fe228     1.0  0.58321  0.18447  0.70270  1.0000
  S   S449      1.0  0.58282  0.15288  0.71516  1.0000
  S   S450      1.0  0.59767  0.19530  0.67176  1.0000
  Fe  Fe229     1.0  0.56473  0.19657  0.74138  1.0000
  S   S451      1.0  0.56360  0.16599  0.75672  1.0000
  S   S452      1.0  0.55141  0.21781  0.76118  1.0000
  Fe  Fe230     1.0  0.59337  0.15814  0.73932  1.0000
  S   S453      1.0  0.61990  0.14135  0.75095  1.0000
  Fe  Fe231     1.0  0.55267  0.16395  0.73126  1.0000
  S   S454      1.0  0.52625  0.15007  0.74141  1.0000
  S   S455      1.0  0.59548  0.18901  0.72597  1.0000
  S   S456      1.0  0.55216  0.19524  0.71681  1.0000
  Fe  Fe232     1.0  0.66909  0.03559  0.84540  1.0000
  S   S457      1.0  0.66186  0.06197  0.82280  1.0000
  S   S458      1.0  0.66509  0.04119  0.87543  1.0000
  S   S459      1.0  0.66989  0.03237  0.79284  1.0000
  Fe  Fe233     1.0  0.68707  0.04784  0.80284  1.0000
  Fe  Fe234     1.0  0.64513  0.04470  0.81459  1.0000
  S   S460      1.0  0.61645  0.05943  0.80644  1.0000
  S   S461      1.0  0.65012  0.01903  0.83897  1.0000
  H   H1966     1.0  0.67656  0.22336  0.68904  1.0000
  H   H1967     1.0  0.72724  0.24867  0.88111  1.0000
  H   H1968     1.0  0.49145  0.16772  0.77059  1.0000
  C   C1640     1.0  0.52876  0.25283  0.83859  1.0000
  H   H1969     1.0  0.71068  0.07871  0.95532  1.0000
  Fe  Fe235     1.0  0.70596  0.11305  0.90806  1.0000
  H   H1970     1.0  0.67923  0.08479  0.90864  1.0000
  H   H1971     1.0  0.54131  0.27377  0.81542  1.0000
  H   H1972     1.0  0.51706  0.21581  0.74585  1.0000
  C   C1641     1.0  0.50691  0.15397  0.72944  1.0000
  S   S462      1.0  0.68810  0.15431  0.93731  1.0000
  H   H1973     1.0  0.67109  0.01285  0.93560  1.0000
  C   C1642     1.0  0.68289  0.22011  0.67432  1.0000
  C   C1643     1.0  0.70290  0.04326  0.97205  1.0000
  C   C1644     1.0  0.50715  0.16479  0.71050  1.0000
  H   H1974     1.0  0.51348  0.28344  0.79906  1.0000
  C   C1645     1.0  0.49132  0.16734  0.70171  1.0000
  H   H1975     1.0  0.67816  0.07923  0.96643  1.0000
  H   H1976     1.0  0.51961  0.17096  0.70256  1.0000
  C   C1646     1.0  0.62091  0.18143  0.66461  1.0000
  C   C1647     1.0  0.62888  0.16558  0.67768  1.0000
  C   C1648     1.0  0.64745  0.15472  0.67194  1.0000
  H   H1977     1.0  0.49049  0.13737  0.75404  1.0000
  C   C1649     1.0  0.69693  0.16014  0.70269  1.0000
  H   H1978     1.0  0.73618  0.35325  0.80130  1.0000
  H   H1979     1.0  0.62072  0.16164  0.69224  1.0000
  C   C1650     1.0  0.73399  0.32350  0.77327  1.0000
  H   H1980     1.0  0.51236  0.26778  0.74974  1.0000
  S   S463      1.0  0.71791  0.09089  0.88905  1.0000
  C   C1651     1.0  0.61820  0.11894  0.76665  1.0000
  C   C1652     1.0  0.60124  0.11168  0.77165  1.0000
  C   C1653     1.0  0.60065  0.09341  0.78403  1.0000
  C   C1654     1.0  0.61711  0.08232  0.79108  1.0000
  C   C1655     1.0  0.63405  0.08962  0.78582  1.0000
  C   C1656     1.0  0.63448  0.10802  0.77395  1.0000
  H   H1981     1.0  0.58862  0.12005  0.76597  1.0000
  H   H1982     1.0  0.58753  0.08776  0.78797  1.0000
  H   H1983     1.0  0.64695  0.08101  0.79061  1.0000
  H   H1984     1.0  0.64760  0.11365  0.77014  1.0000
  C   C1657     1.0  0.70858  0.06891  0.86891  1.0000
  C   C1658     1.0  0.69692  0.05799  0.86557  1.0000
  C   C1659     1.0  0.67913  0.05626  0.87813  1.0000
  C   C1660     1.0  0.67271  0.06613  0.89355  1.0000
  H   H1985     1.0  0.72263  0.06967  0.85954  1.0000
  H   H1986     1.0  0.70200  0.05033  0.85371  1.0000
  C   C1661     1.0  0.58546  0.26204  0.76182  1.0000
  C   C1662     1.0  0.59166  0.25134  0.74707  1.0000
  C   C1663     1.0  0.58124  0.23775  0.74657  1.0000
  C   C1664     1.0  0.56438  0.23527  0.76053  1.0000
  C   C1665     1.0  0.55778  0.24659  0.77473  1.0000
  C   C1666     1.0  0.56850  0.25964  0.77559  1.0000
  H   H1987     1.0  0.60482  0.25311  0.73642  1.0000
  H   H1988     1.0  0.58630  0.22920  0.73544  1.0000
  H   H1989     1.0  0.54459  0.24496  0.78539  1.0000
  H   H1990     1.0  0.56363  0.26795  0.78688  1.0000
  C   C1667     1.0  0.64408  0.17991  0.88879  1.0000
  C   C1668     1.0  0.65956  0.18997  0.85520  1.0000
  C   C1669     1.0  0.64385  0.20540  0.85262  1.0000
  C   C1670     1.0  0.62793  0.20774  0.86795  1.0000
  C   C1671     1.0  0.62807  0.19501  0.88605  1.0000
  H   H1991     1.0  0.64162  0.10423  0.73240  1.0000
  H   H1992     1.0  0.61564  0.21946  0.86599  1.0000
  H   H1993     1.0  0.61592  0.19708  0.89804  1.0000
  C   C1672     1.0  0.72820  0.33441  0.78770  1.0000
  H   H1994     1.0  0.49172  0.17551  0.68698  1.0000
  H   H1995     1.0  0.72189  0.03161  0.75746  1.0000
  C   C1673     1.0  0.65325  0.21516  0.66985  1.0000
  Fe  Fe236     1.0  0.69486  0.12214  0.94842  1.0000
  C   C1674     1.0  0.68211  0.44927  0.85600  1.0000
  C   C1675     1.0  0.68514  0.44089  0.87481  1.0000
  C   C1676     1.0  0.68979  0.45187  0.88567  1.0000
  C   C1677     1.0  0.50226  0.21777  0.74445  1.0000
  H   H1996     1.0  0.72691  0.06073  0.94315  1.0000
  C   C1678     1.0  0.68428  0.46848  0.84795  1.0000
  H   H1997     1.0  0.68334  0.42616  0.88122  1.0000
  H   H1998     1.0  0.69163  0.44545  0.90039  1.0000
  H   H1999     1.0  0.73563  0.09842  0.72020  1.0000
  H   H2000     1.0  0.71754  0.03383  0.96916  1.0000
  C   C1679     1.0  0.65532  0.34131  0.82213  1.0000
  C   C1680     1.0  0.63987  0.34723  0.83672  1.0000
  C   C1681     1.0  0.62376  0.33834  0.84256  1.0000
  C   C1682     1.0  0.62307  0.32337  0.83404  1.0000
  C   C1683     1.0  0.63881  0.31706  0.81989  1.0000
  C   C1684     1.0  0.65477  0.32616  0.81382  1.0000
  H   H2001     1.0  0.64011  0.35901  0.84310  1.0000
  H   H2002     1.0  0.61163  0.34330  0.85352  1.0000
  H   H2003     1.0  0.63870  0.30531  0.81348  1.0000
  H   H2004     1.0  0.66671  0.32147  0.80258  1.0000
  H   H2005     1.0  0.72328  0.05003  0.91824  1.0000
  H   H2006     1.0  0.64490  0.18760  0.69786  1.0000
  H   H2007     1.0  0.70604  0.08761  0.73786  1.0000
  H   H2008     1.0  0.70882  0.07823  0.93140  1.0000
  H   H2009     1.0  0.68281  0.14036  0.72597  1.0000
  H   H2010     1.0  0.70625  0.22991  0.87616  1.0000
  H   H2011     1.0  0.70586  0.30653  0.92532  1.0000
  H   H2012     1.0  0.65345  0.14247  0.68210  1.0000
  C   C1685     1.0  0.72556  0.18140  0.93740  1.0000
  H   H2013     1.0  0.71823  0.42843  0.83425  1.0000
  C   C1686     1.0  0.66688  0.22536  0.88630  1.0000
  C   C1687     1.0  0.65971  0.18063  0.69869  1.0000
  H   H2014     1.0  0.69879  0.21492  0.67317  1.0000
  H   H2015     1.0  0.72422  0.44539  0.85561  1.0000
  C   C1688     1.0  0.70624  0.09569  0.72316  1.0000
  C   C1689     1.0  0.71333  0.24894  0.91087  1.0000
  H   H2016     1.0  0.67820  0.18923  0.64886  1.0000
  H   H2017     1.0  0.66813  0.20036  0.93232  1.0000
  C   C1690     1.0  0.68933  0.19654  0.89765  1.0000
  C   C1691     1.0  0.50977  0.17854  0.78165  1.0000
  C   C1692     1.0  0.68259  0.02083  0.93229  1.0000
  C   C1693     1.0  0.73694  0.30335  0.91847  1.0000
  H   H2018     1.0  0.67669  0.22678  0.93660  1.0000
  H   H2019     1.0  0.73842  0.11698  0.68637  1.0000
  H   H2020     1.0  0.68075  0.18653  0.89630  1.0000
  H   H2021     1.0  0.71136  0.15209  0.70418  1.0000
  H   H2022     1.0  0.72132  0.03050  0.89686  1.0000
  C   C1694     1.0  0.71474  0.33037  0.90316  1.0000
  H   H2023     1.0  0.72857  0.46460  0.83528  1.0000
  H   H2024     1.0  0.65155  0.22267  0.92441  1.0000
  H   H2025     1.0  0.71701  0.19192  0.96404  1.0000
  H   H2026     1.0  0.65261  0.20083  0.91697  1.0000
  C   C1695     1.0  0.49935  0.23814  0.77690  1.0000
  N   N110      1.0  0.67371  0.20576  0.67074  1.0000
  C   C1696     1.0  0.68417  0.07744  0.89661  1.0000
  C   C1697     1.0  0.49659  0.18915  0.81198  1.0000
  H   H2027     1.0  0.65686  0.21710  0.88438  1.0000
  C   C1698     1.0  0.68086  0.15348  0.71494  1.0000
  C   C1699     1.0  0.69451  0.17705  0.68841  1.0000
  H   H2028     1.0  0.52562  0.19003  0.79554  1.0000
  H   H2029     1.0  0.69792  0.24550  0.94049  1.0000
  C   C1700     1.0  0.68345  0.03188  0.94504  1.0000
  C   C1701     1.0  0.67581  0.18785  0.68597  1.0000
  C   C1702     1.0  0.69229  0.11050  0.69471  1.0000
  H   H2030     1.0  0.58575  0.18715  0.85153  1.0000
  C   C1703     1.0  0.66165  0.20958  0.91987  1.0000
  S   S464      1.0  0.67797  0.11562  0.92989  1.0000
  C   C1704     1.0  0.70944  0.11680  0.68498  1.0000
  C   C1705     1.0  0.70232  0.07852  0.88452  1.0000
  S   S465      1.0  0.54819  0.24629  0.85072  1.0000
  C   C1706     1.0  0.49068  0.14598  0.73951  1.0000
  S   S466      1.0  0.64478  0.16534  0.91198  1.0000
  H   H2031     1.0  0.70987  0.14096  0.97026  1.0000
  H   H2032     1.0  0.64565  0.20527  0.66669  1.0000
  C   C1707     1.0  0.73645  0.18364  0.91843  1.0000
  Fe  Fe237     1.0  0.67390  0.14742  0.91677  1.0000
  C   C1708     1.0  0.68885  0.22689  0.90561  1.0000
  N   N111      1.0  0.67214  0.09239  0.72376  1.0000
  C   C1709     1.0  0.65543  0.10901  0.72471  1.0000
  C   C1710     1.0  0.66902  0.07960  0.71246  1.0000
  C   C1711     1.0  0.67230  0.08110  0.74391  1.0000
  H   H2033     1.0  0.68172  0.06742  0.71057  1.0000
  H   H2034     1.0  0.64977  0.15846  0.72236  1.0000
  C   C1712     1.0  0.71183  0.04193  0.92304  1.0000
  H   H2035     1.0  0.73554  0.39400  0.79561  1.0000
  C   C1713     1.0  0.66231  0.16369  0.71292  1.0000
  H   H2036     1.0  0.71383  0.33518  0.79682  1.0000
  H   H2037     1.0  0.65308  0.11733  0.71015  1.0000
  H   H2038     1.0  0.65742  0.11933  0.73259  1.0000
  H   H2039     1.0  0.66671  0.08752  0.69772  1.0000
  H   H2040     1.0  0.65597  0.07326  0.71973  1.0000
  H   H2041     1.0  0.72821  0.35172  0.88122  1.0000
  H   H2042     1.0  0.67415  0.08996  0.75343  1.0000
  H   H2043     1.0  0.65847  0.07606  0.75087  1.0000
  H   H2044     1.0  0.68407  0.06789  0.74432  1.0000
  N   N112      1.0  0.69773  0.05568  0.95379  1.0000
  C   C1714     1.0  0.69210  0.47104  0.87757  1.0000
  H   H2045     1.0  0.72121  0.02249  0.73719  1.0000
  C   C1715     1.0  0.70357  0.23357  0.89021  1.0000
  H   H2046     1.0  0.72400  0.31583  0.77123  1.0000
  N   N113      1.0  0.59794  0.34087  0.78056  1.0000
  C   C1716     1.0  0.57884  0.34093  0.79411  1.0000
  C   C1717     1.0  0.59436  0.34781  0.76053  1.0000
  C   C1718     1.0  0.60873  0.32048  0.78263  1.0000
  C   C1719     1.0  0.60951  0.35300  0.78428  1.0000
  C   C1720     1.0  0.62804  0.35457  0.77239  1.0000
  C   C1721     1.0  0.60313  0.36319  0.79978  1.0000
  C   C1722     1.0  0.63941  0.36562  0.77580  1.0000
  C   C1723     1.0  0.61455  0.37438  0.80290  1.0000
  C   C1724     1.0  0.63266  0.37554  0.79099  1.0000
  H   H2047     1.0  0.56972  0.35581  0.79316  1.0000
  H   H2048     1.0  0.57051  0.33171  0.79089  1.0000
  H   H2049     1.0  0.58053  0.33487  0.80944  1.0000
  H   H2050     1.0  0.58695  0.36337  0.75812  1.0000
  H   H2051     1.0  0.58517  0.33930  0.75752  1.0000
  H   H2052     1.0  0.60795  0.34630  0.74934  1.0000
  H   H2053     1.0  0.61175  0.31498  0.79748  1.0000
  H   H2054     1.0  0.60045  0.31077  0.78015  1.0000
  H   H2055     1.0  0.62280  0.31869  0.77217  1.0000
  H   H2056     1.0  0.63404  0.34695  0.76058  1.0000
  H   H2057     1.0  0.58960  0.36241  0.81003  1.0000
  H   H2058     1.0  0.65375  0.36619  0.76693  1.0000
  H   H2059     1.0  0.60965  0.38166  0.81507  1.0000
  H   H2060     1.0  0.64177  0.38363  0.79393  1.0000
  N   N114      1.0  0.66107  0.11549  0.83957  1.0000
  C   C1725     1.0  0.64697  0.10262  0.84856  1.0000
  C   C1726     1.0  0.67802  0.10503  0.82729  1.0000
  C   C1727     1.0  0.66806  0.11910  0.85550  1.0000
  C   C1728     1.0  0.65187  0.13344  0.82747  1.0000
  C   C1729     1.0  0.64497  0.13240  0.81129  1.0000
  C   C1730     1.0  0.64951  0.15227  0.83118  1.0000
  C   C1731     1.0  0.63664  0.14914  0.79937  1.0000
  C   C1732     1.0  0.64106  0.16891  0.81920  1.0000
  C   C1733     1.0  0.63467  0.16734  0.80332  1.0000
  H   H2061     1.0  0.64183  0.09818  0.83759  1.0000
  H   H2062     1.0  0.65340  0.08889  0.85776  1.0000
  H   H2063     1.0  0.63401  0.10991  0.85792  1.0000
  H   H2064     1.0  0.68557  0.09165  0.83601  1.0000
  H   H2065     1.0  0.68877  0.11437  0.81986  1.0000
  H   H2066     1.0  0.67397  0.10018  0.81588  1.0000
  H   H2067     1.0  0.67504  0.10534  0.86411  1.0000
  H   H2068     1.0  0.67919  0.12825  0.84980  1.0000
  H   H2069     1.0  0.65601  0.12612  0.86596  1.0000
  H   H2070     1.0  0.64606  0.11862  0.80765  1.0000
  H   H2071     1.0  0.65420  0.15462  0.84314  1.0000
  H   H2072     1.0  0.63170  0.14797  0.78694  1.0000
  H   H2073     1.0  0.63971  0.18316  0.82211  1.0000
  H   H2074     1.0  0.62829  0.18028  0.79398  1.0000
  C   C1734     1.0  0.51196  0.18628  0.79635  1.0000
  S   S467      1.0  0.70499  0.06643  0.77939  1.0000
  H   H2075     1.0  0.50502  0.27757  0.86863  1.0000
  N   N115      1.0  0.56991  0.19412  0.82835  1.0000
  C   C1735     1.0  0.58364  0.19804  0.83804  1.0000
  C   C1736     1.0  0.56673  0.21067  0.81183  1.0000
  C   C1737     1.0  0.55104  0.19380  0.84215  1.0000
  C   C1738     1.0  0.57757  0.17511  0.82248  1.0000
  C   C1739     1.0  0.58111  0.17296  0.80292  1.0000
  C   C1740     1.0  0.58151  0.15790  0.83665  1.0000
  C   C1741     1.0  0.58810  0.15469  0.79806  1.0000
  C   C1742     1.0  0.58847  0.13972  0.83158  1.0000
  C   C1743     1.0  0.59170  0.13812  0.81232  1.0000
  H   H2076     1.0  0.59810  0.19820  0.82822  1.0000
  H   H2077     1.0  0.57834  0.21233  0.84251  1.0000
  H   H2078     1.0  0.58041  0.21226  0.80100  1.0000
  H   H2079     1.0  0.56100  0.22476  0.81671  1.0000
  H   H2080     1.0  0.55594  0.20912  0.80427  1.0000
  H   H2081     1.0  0.55234  0.18300  0.85587  1.0000
  H   H2082     1.0  0.54458  0.20812  0.84640  1.0000
  H   H2083     1.0  0.54047  0.19034  0.83561  1.0000
  H   H2084     1.0  0.57854  0.18511  0.79104  1.0000
  H   H2085     1.0  0.57910  0.15837  0.85181  1.0000
  H   H2086     1.0  0.59077  0.15333  0.78309  1.0000
  H   H2087     1.0  0.59123  0.12675  0.84264  1.0000
  H   H2088     1.0  0.59702  0.12400  0.80840  1.0000
  C   C1744     1.0  0.52905  0.26687  0.82141  1.0000
  H   H2089     1.0  0.68105  0.23400  0.66346  1.0000
  C   C1745     1.0  0.71798  0.31281  0.91652  1.0000
  H   H2090     1.0  0.52170  0.17618  0.76950  1.0000
  H   H2091     1.0  0.68080  0.11411  0.68675  1.0000
  C   C1746     1.0  0.69906  0.24262  0.92629  1.0000
  H   H2092     1.0  0.52247  0.24540  0.74226  1.0000
  C   C1747     1.0  0.69620  0.02036  0.91498  1.0000
  H   H2093     1.0  0.70743  0.18157  0.67918  1.0000
  C   C1748     1.0  0.69777  0.04325  0.94054  1.0000
  H   H2094     1.0  0.51193  0.22600  0.77494  1.0000
  H   H2095     1.0  0.67260  0.03171  0.95830  1.0000
  C   C1749     1.0  0.73067  0.43276  0.82280  1.0000
  C   C1750     1.0  0.68699  0.23171  0.92384  1.0000
  C   C1751     1.0  0.51321  0.27239  0.81224  1.0000
  H   H2096     1.0  0.67267  0.07567  0.94506  1.0000
  N   N116      1.0  0.67679  0.21486  0.90256  1.0000
  C   C1752     1.0  0.69019  0.09957  0.71407  1.0000
  C   C1753     1.0  0.71165  0.06886  0.94549  1.0000
  N   N117      1.0  0.67718  0.30260  0.87569  1.0000
  C   C1754     1.0  0.66857  0.32323  0.86874  1.0000
  C   C1755     1.0  0.67056  0.29755  0.89707  1.0000
  C   C1756     1.0  0.69850  0.30084  0.87159  1.0000
  C   C1757     1.0  0.67091  0.29013  0.86631  1.0000
  C   C1758     1.0  0.65093  0.29026  0.86888  1.0000
  C   C1759     1.0  0.68411  0.27781  0.85427  1.0000
  C   C1760     1.0  0.64457  0.27894  0.85989  1.0000
  C   C1761     1.0  0.67756  0.26659  0.84530  1.0000
  C   C1762     1.0  0.65785  0.26718  0.84807  1.0000
  H   H2097     1.0  0.67352  0.32767  0.85279  1.0000
  H   H2098     1.0  0.65251  0.32629  0.87201  1.0000
  H   H2099     1.0  0.67277  0.33310  0.87558  1.0000
  H   H2100     1.0  0.65453  0.30053  0.90157  1.0000
  H   H2101     1.0  0.67567  0.30627  0.90457  1.0000
  H   H2102     1.0  0.67612  0.28194  0.90283  1.0000
  H   H2103     1.0  0.70602  0.28585  0.87706  1.0000
  H   H2104     1.0  0.70440  0.30531  0.85578  1.0000
  H   H2105     1.0  0.70262  0.31050  0.87881  1.0000
  H   H2106     1.0  0.63996  0.29951  0.87749  1.0000
  H   H2107     1.0  0.69954  0.27685  0.85127  1.0000
  H   H2108     1.0  0.62918  0.27975  0.86166  1.0000
  H   H2109     1.0  0.68779  0.25759  0.83585  1.0000
  H   H2110     1.0  0.65281  0.25867  0.84086  1.0000
  S   S468      1.0  0.69617  0.02264  0.82610  1.0000
  H   H2111     1.0  0.69777  0.18880  0.90907  1.0000
  H   H2112     1.0  0.51222  0.23335  0.85979  1.0000
  H   H2113     1.0  0.67180  0.18797  0.84327  1.0000
  H   H2114     1.0  0.67165  0.16522  0.87492  1.0000
  C   C1763     1.0  0.73745  0.04662  0.79384  1.0000
  C   C1764     1.0  0.67817  0.06800  0.95850  1.0000
  H   H2115     1.0  0.67715  0.22762  0.87213  1.0000
  Fe  Fe238     1.0  0.67662  0.00802  0.81778  1.0000
  Fe  Fe239     1.0  0.71543  0.14873  0.91499  1.0000
  H   H2116     1.0  0.65897  0.06477  0.90332  1.0000
  C   C1765     1.0  0.72337  0.10199  0.71322  1.0000
  C   C1766     1.0  0.65960  0.17717  0.87319  1.0000
  H   H2117     1.0  0.71764  0.16985  0.94308  1.0000
  C   C1767     1.0  0.51260  0.24413  0.84641  1.0000
  H   H2118     1.0  0.65820  0.23979  0.88886  1.0000
  S   S469      1.0  0.72337  0.11697  0.92759  1.0000
  H   H2119     1.0  0.69999  0.19888  0.88373  1.0000
  C   C1768     1.0  0.72535  0.19382  0.94931  1.0000
  C   C1769     1.0  0.73625  0.20833  0.94236  1.0000
  C   C1770     1.0  0.49692  0.26398  0.82022  1.0000
  C   C1771     1.0  0.71095  0.03064  0.91052  1.0000
  H   H2120     1.0  0.64510  0.21971  0.68367  1.0000
  H   H2121     1.0  0.69509  0.01234  0.90478  1.0000
  H   H2122     1.0  0.50486  0.26280  0.73008  1.0000
  H   H2123     1.0  0.71077  0.12486  0.67009  1.0000
  C   C1772     1.0  0.50875  0.25631  0.74451  1.0000
  C   C1773     1.0  0.49670  0.24967  0.83724  1.0000
  C   C1774     1.0  0.73050  0.33830  0.89169  1.0000
  C   C1775     1.0  0.71563  0.24437  0.89287  1.0000
  H   H2124     1.0  0.50934  0.19249  0.73185  1.0000
  H   H2125     1.0  0.70920  0.00566  0.77961  1.0000
  C   C1776     1.0  0.68956  0.47923  0.85856  1.0000
  C   C1777     1.0  0.72498  0.11247  0.69417  1.0000
  H   H2126     1.0  0.68191  0.47506  0.83342  1.0000
  S   S470      1.0  0.68158  0.14550  0.64682  1.0000
  C   C1778     1.0  0.49224  0.17378  0.78239  1.0000
  H   H2127     1.0  0.49827  0.19516  0.82346  1.0000
  H   H2128     1.0  0.65210  0.22841  0.65812  1.0000
  H   H2129     1.0  0.50396  0.30208  0.83823  1.0000
  C   C1779     1.0  0.49056  0.29877  0.84762  1.0000
  H   H2130     1.0  0.72307  0.25678  0.91314  1.0000
  H   H2131     1.0  0.50392  0.24834  0.78304  1.0000
  H   H2132     1.0  0.72474  0.44599  0.81274  1.0000
  H   H2133     1.0  0.69939  0.19630  0.65010  1.0000
  N   N118      1.0  0.49282  0.24785  0.75849  1.0000
  H   H2134     1.0  0.66735  0.05958  0.96803  1.0000
  C   C1780     1.0  0.73576  0.45078  0.84368  1.0000
  S   S471      1.0  0.73705  0.16816  0.90334  1.0000
  C   C1781     1.0  0.49119  0.28490  0.86475  1.0000
  C   C1782     1.0  0.49797  0.20424  0.73649  1.0000
  C   C1783     1.0  0.68351  0.20112  0.65148  1.0000
  H   H2135     1.0  0.70839  0.99440  0.76068  1.0000
  H   H2136     1.0  0.73642  0.42082  0.81464  1.0000
  C   C1784     1.0  0.72987  0.05719  0.77754  1.0000
  H   H2137     1.0  0.72809  0.04505  0.80807  1.0000
  C   C1785     1.0  0.71780  0.99534  0.77007  1.0000
  C   C1786     1.0  0.73039  0.02166  0.74751  1.0000
  S   S472      1.0  0.73622  0.22327  0.95774  1.0000
  N   N119      1.0  0.73588  0.00149  0.75837  1.0000
  H   H2138     1.0  0.73634  0.06743  0.74655  1.0000
  C   C1787     1.0  0.67925  0.96099  0.21799  1.0000
  C   C1788     1.0  0.73802  0.94829  0.29191  1.0000
  C   C1789     1.0  0.50277  0.67472  0.28834  1.0000
  S   S473      1.0  0.67747  0.72688  0.01016  1.0000
  C   C1790     1.0  0.68027  0.84186  0.10543  1.0000
  H   H2139     1.0  0.55364  0.74320  0.29939  1.0000
  H   H2140     1.0  0.73170  0.93814  0.26874  1.0000
  C   C1791     1.0  0.49606  0.69810  0.30993  1.0000
  Fe  Fe240     1.0  0.68391  0.85612  0.24699  1.0000
  S   S474      1.0  0.70433  0.83780  0.22688  1.0000
  S   S475      1.0  0.67321  0.84072  0.27738  1.0000
  Fe  Fe241     1.0  0.68746  0.89393  0.21748  1.0000
  S   S476      1.0  0.70787  0.87852  0.19470  1.0000
  S   S477      1.0  0.67910  0.92664  0.20950  1.0000
  Fe  Fe242     1.0  0.68820  0.85706  0.20424  1.0000
  S   S478      1.0  0.67426  0.84559  0.18624  1.0000
  C   C1792     1.0  0.61857  0.65192  0.26858  1.0000
  C   C1793     1.0  0.62018  0.83821  0.27210  1.0000
  S   S479      1.0  0.66646  0.87407  0.22502  1.0000
  S   S480      1.0  0.70279  0.87751  0.24160  1.0000
  Fe  Fe243     1.0  0.70251  0.52707  0.23005  1.0000
  S   S481      1.0  0.70421  0.50741  0.21018  1.0000
  S   S482      1.0  0.68763  0.55868  0.22580  1.0000
  C   C1794     1.0  0.65085  0.63995  0.27477  1.0000
  N   N120      1.0  0.63815  0.64085  0.26149  1.0000
  H   H2141     1.0  0.71028  0.83754  0.28732  1.0000
  H   H2142     1.0  0.66292  0.64451  0.19453  1.0000
  Fe  Fe244     1.0  0.57516  0.66118  0.23321  1.0000
  S   S483      1.0  0.57015  0.67521  0.20317  1.0000
  S   S484      1.0  0.56755  0.67634  0.25825  1.0000
  Fe  Fe245     1.0  0.58773  0.62061  0.22477  1.0000
  S   S485      1.0  0.58327  0.63116  0.19427  1.0000
  S   S486      1.0  0.59688  0.58854  0.23639  1.0000
  Fe  Fe246     1.0  0.59786  0.65485  0.19352  1.0000
  S   S487      1.0  0.62142  0.66025  0.16723  1.0000
  Fe  Fe247     1.0  0.55595  0.65024  0.20662  1.0000
  S   S488      1.0  0.52864  0.65583  0.19524  1.0000
  S   S489      1.0  0.60423  0.64311  0.22335  1.0000
  S   S490      1.0  0.55898  0.63758  0.23735  1.0000
  Fe  Fe248     1.0  0.67772  0.74040  0.13733  1.0000
  S   S491      1.0  0.67385  0.77230  0.12468  1.0000
  S   S492      1.0  0.65655  0.73154  0.16465  1.0000
  Fe  Fe249     1.0  0.71401  0.73055  0.10753  1.0000
  S   S493      1.0  0.71363  0.76165  0.09290  1.0000
  Fe  Fe250     1.0  0.70568  0.76757  0.12306  1.0000
  H   H2143     1.0  0.70667  0.63016  0.98317  1.0000
  Fe  Fe251     1.0  0.68203  0.76348  0.09578  1.0000
  S   S494      1.0  0.66750  0.77955  0.07068  1.0000
  S   S495      1.0  0.70920  0.73606  0.13752  1.0000
  S   S496      1.0  0.68279  0.73192  0.10864  1.0000
  C   C1795     1.0  0.64879  0.67012  0.23815  1.0000
  C   C1796     1.0  0.63083  0.81004  0.29587  1.0000
  H   H2144     1.0  0.72101  0.57923  0.19862  1.0000
  C   C1797     1.0  0.51029  0.64273  0.20698  1.0000
  H   H2145     1.0  0.51733  0.64334  0.25687  1.0000
  H   H2146     1.0  0.53339  0.68759  0.30884  1.0000
  H   H2147     1.0  0.56710  0.69713  0.28670  1.0000
  C   C1798     1.0  0.72126  0.92175  0.29625  1.0000
  C   C1799     1.0  0.51169  0.62870  0.22402  1.0000
  C   C1800     1.0  0.73054  0.93641  0.28415  1.0000
  C   C1801     1.0  0.53865  0.74411  0.30662  1.0000
  C   C1802     1.0  0.50796  0.65109  0.26779  1.0000
  H   H2148     1.0  0.52425  0.62579  0.23033  1.0000
  C   C1803     1.0  0.63151  0.67967  0.16694  1.0000
  C   C1804     1.0  0.64734  0.68404  0.15225  1.0000
  C   C1805     1.0  0.65525  0.69987  0.15155  1.0000
  C   C1806     1.0  0.64727  0.71138  0.16550  1.0000
  C   C1807     1.0  0.63160  0.70682  0.18034  1.0000
  C   C1808     1.0  0.62373  0.69095  0.18108  1.0000
  H   H2149     1.0  0.65342  0.67525  0.14136  1.0000
  H   H2150     1.0  0.66752  0.70314  0.14026  1.0000
  H   H2151     1.0  0.62549  0.71562  0.19123  1.0000
  H   H2152     1.0  0.61157  0.68755  0.19251  1.0000
  C   C1809     1.0  0.66239  0.56615  0.22847  1.0000
  C   C1810     1.0  0.65474  0.58586  0.22230  1.0000
  C   C1811     1.0  0.63472  0.59263  0.22414  1.0000
  C   C1812     1.0  0.62212  0.57988  0.23287  1.0000
  C   C1813     1.0  0.62974  0.56008  0.23900  1.0000
  C   C1814     1.0  0.64990  0.55317  0.23664  1.0000
  H   H2153     1.0  0.66441  0.59587  0.21581  1.0000
  H   H2154     1.0  0.62909  0.60772  0.21879  1.0000
  H   H2155     1.0  0.62007  0.55011  0.24572  1.0000
  H   H2156     1.0  0.72544  0.94614  0.21481  1.0000
  C   C1815     1.0  0.68743  0.82819  0.17226  1.0000
  C   C1816     1.0  0.67734  0.81958  0.16394  1.0000
  C   C1817     1.0  0.68737  0.80640  0.15185  1.0000
  C   C1818     1.0  0.70759  0.80199  0.14777  1.0000
  H   H2157     1.0  0.62472  0.56644  0.19312  1.0000
  C   C1819     1.0  0.70764  0.82331  0.16870  1.0000
  H   H2158     1.0  0.66170  0.82329  0.16669  1.0000
  H   H2159     1.0  0.67945  0.79999  0.14543  1.0000
  C   C1820     1.0  0.51464  0.66435  0.27398  1.0000
  H   H2160     1.0  0.53951  0.67123  0.29281  1.0000
  N   N121      1.0  0.73680  0.96272  0.18692  1.0000
  C   C1821     1.0  0.60958  0.70774  0.24370  1.0000
  C   C1822     1.0  0.59746  0.69600  0.24269  1.0000
  C   C1823     1.0  0.58219  0.69205  0.25826  1.0000
  N   N122      1.0  0.72252  0.57644  0.16959  1.0000
  C   C1824     1.0  0.68946  0.96409  0.24601  1.0000
  H   H2161     1.0  0.62137  0.71082  0.23166  1.0000
  H   H2162     1.0  0.60005  0.68991  0.22996  1.0000
  C   C1825     1.0  0.50516  0.74666  0.30506  1.0000
  C   C1826     1.0  0.65164  0.83316  0.27999  1.0000
  C   C1827     1.0  0.63764  0.84419  0.26937  1.0000
  C   C1828     1.0  0.72646  0.68151  0.12660  1.0000
  H   H2163     1.0  0.73532  0.85003  0.26541  1.0000
  C   C1829     1.0  0.68290  0.97263  0.22876  1.0000
  C   C1830     1.0  0.64820  0.81611  0.29325  1.0000
  H   H2164     1.0  0.64009  0.85753  0.25933  1.0000
  H   H2165     1.0  0.50379  0.71223  0.27149  1.0000
  H   H2166     1.0  0.70692  0.97544  0.18511  1.0000
  H   H2167     1.0  0.65797  0.69466  0.21719  1.0000
  C   C1831     1.0  0.69850  0.83955  0.11028  1.0000
  C   C1832     1.0  0.61683  0.82107  0.28526  1.0000
  C   C1833     1.0  0.52743  0.67777  0.30351  1.0000
  C   C1834     1.0  0.65170  0.64169  0.22536  1.0000
  C   C1835     1.0  0.57890  0.70009  0.27464  1.0000
  H   H2168     1.0  0.67398  0.96767  0.20473  1.0000
  H   H2169     1.0  0.66749  0.67799  0.18960  1.0000
  N   N123      1.0  0.51034  0.68836  0.29497  1.0000
  C   C1836     1.0  0.70084  0.85032  0.12257  1.0000
  C   C1837     1.0  0.72957  0.66326  0.13905  1.0000
  C   C1838     1.0  0.61688  0.58737  0.16812  1.0000
  C   C1839     1.0  0.59105  0.71172  0.27567  1.0000
  C   C1840     1.0  0.68250  0.94075  0.22420  1.0000
  C   C1841     1.0  0.68894  0.93224  0.24155  1.0000
  C   C1842     1.0  0.69220  0.94392  0.25253  1.0000
  H   H2170     1.0  0.69122  0.91672  0.24660  1.0000
  H   H2171     1.0  0.69693  0.93730  0.26603  1.0000
  H   H2172     1.0  0.72032  0.66070  0.15328  1.0000
  C   C1843     1.0  0.64619  0.65075  0.24164  1.0000
  H   H2173     1.0  0.71284  0.55204  0.19051  1.0000
  C   C1844     1.0  0.67560  0.74267  0.02562  1.0000
  C   C1845     1.0  0.68455  0.73544  0.04162  1.0000
  C   C1846     1.0  0.68297  0.74712  0.05478  1.0000
  C   C1847     1.0  0.67160  0.76586  0.05266  1.0000
  C   C1848     1.0  0.66264  0.77320  0.03661  1.0000
  C   C1849     1.0  0.66480  0.76170  0.02298  1.0000
  H   H2174     1.0  0.69280  0.72070  0.04385  1.0000
  H   H2175     1.0  0.69035  0.74144  0.06676  1.0000
  H   H2176     1.0  0.65385  0.78772  0.03480  1.0000
  H   H2177     1.0  0.65775  0.76739  0.01072  1.0000
  Fe  Fe252     1.0  0.73419  0.49920  0.24956  1.0000
  C   C1850     1.0  0.52464  0.74598  0.29587  1.0000
  H   H2178     1.0  0.68697  0.87122  0.14063  1.0000
  Fe  Fe253     1.0  0.72194  0.86085  0.21947  1.0000
  N   N124      1.0  0.55779  0.58651  0.19862  1.0000
  C   C1851     1.0  0.54307  0.60153  0.18923  1.0000
  C   C1852     1.0  0.55364  0.56725  0.20011  1.0000
  C   C1853     1.0  0.55521  0.58974  0.21854  1.0000
  C   C1854     1.0  0.57794  0.58689  0.18785  1.0000
  C   C1855     1.0  0.59379  0.57483  0.19589  1.0000
  C   C1856     1.0  0.58250  0.59875  0.16910  1.0000
  C   C1857     1.0  0.61293  0.57529  0.18626  1.0000
  C   C1858     1.0  0.60171  0.59898  0.15953  1.0000
  C   C1859     1.0  0.71769  0.81036  0.15634  1.0000
  H   H2179     1.0  0.54293  0.59924  0.17476  1.0000
  H   H2180     1.0  0.52812  0.60145  0.19798  1.0000
  H   H2181     1.0  0.54562  0.61640  0.18750  1.0000
  H   H2182     1.0  0.55580  0.56408  0.18545  1.0000
  H   H2183     1.0  0.53847  0.56645  0.20777  1.0000
  H   H2184     1.0  0.56328  0.55537  0.20830  1.0000
  H   H2185     1.0  0.55937  0.60351  0.21812  1.0000
  H   H2186     1.0  0.53995  0.59057  0.22663  1.0000
  H   H2187     1.0  0.56407  0.57797  0.22761  1.0000
  H   H2188     1.0  0.59159  0.56526  0.20997  1.0000
  H   H2189     1.0  0.57152  0.60843  0.16173  1.0000
  H   H2190     1.0  0.73488  0.98342  0.29989  1.0000
  H   H2191     1.0  0.63038  0.61360  0.27778  1.0000
  H   H2192     1.0  0.65145  0.65462  0.27619  1.0000
  H   H2193     1.0  0.69688  0.80415  0.10260  1.0000
  H   H2194     1.0  0.73409  0.53305  0.26287  1.0000
  H   H2195     1.0  0.63403  0.75972  0.12199  1.0000
  N   N125      1.0  0.67703  0.83028  0.09298  1.0000
  H   H2196     1.0  0.58855  0.71764  0.28848  1.0000
  S   S497      1.0  0.58387  0.76325  0.29205  1.0000
  C   C1860     1.0  0.60653  0.71541  0.26029  1.0000
  H   H2197     1.0  0.52207  0.71421  0.28275  1.0000
  H   H2198     1.0  0.52928  0.66632  0.26754  1.0000
  H   H2199     1.0  0.71542  0.61602  0.15603  1.0000
  C   C1861     1.0  0.65644  0.67974  0.21959  1.0000
  C   C1862     1.0  0.66492  0.85614  0.11299  1.0000
  C   C1863     1.0  0.73282  0.71669  0.02279  1.0000
  H   H2200     1.0  0.68668  0.84970  0.06655  1.0000
  H   H2201     1.0  0.65910  0.80742  0.30129  1.0000
  C   C1864     1.0  0.49399  0.64638  0.19882  1.0000
  H   H2202     1.0  0.71474  0.55135  0.16541  1.0000
  S   S498      1.0  0.70191  0.50330  0.25678  1.0000
  H   H2203     1.0  0.60486  0.60855  0.14551  1.0000
  C   C1865     1.0  0.68526  0.86358  0.13040  1.0000
  C   C1866     1.0  0.54406  0.80829  0.28438  1.0000
  H   H2204     1.0  0.69275  0.81400  0.30923  1.0000
  H   H2205     1.0  0.65530  0.87693  0.13172  1.0000
  H   H2206     1.0  0.71466  0.84779  0.12669  1.0000
  H   H2207     1.0  0.60881  0.65378  0.25848  1.0000
  Fe  Fe254     1.0  0.59988  0.78118  0.30025  1.0000
  S   S499      1.0  0.62862  0.76136  0.29402  1.0000
  C   C1867     1.0  0.51626  0.70375  0.27825  1.0000
  H   H2208     1.0  0.62639  0.62025  0.25364  1.0000
  H   H2209     1.0  0.65811  0.81105  0.09472  1.0000
  Fe  Fe255     1.0  0.61208  0.74195  0.28876  1.0000
  H   H2210     1.0  0.69036  0.80495  0.08028  1.0000
  H   H2211     1.0  0.71879  0.86745  0.27904  1.0000
  H   H2212     1.0  0.64470  0.67811  0.24971  1.0000
  H   H2213     1.0  0.49295  0.65710  0.18552  1.0000
  C   C1868     1.0  0.73416  0.85995  0.27524  1.0000
  H   H2214     1.0  0.71474  0.69297  0.13120  1.0000
  C   C1869     1.0  0.67391  0.84304  0.07413  1.0000
  H   H2215     1.0  0.71774  0.94227  0.19498  1.0000
  H   H2216     1.0  0.73628  0.89397  0.22142  1.0000
  S   S500      1.0  0.59549  0.81309  0.28776  1.0000
  H   H2217     1.0  0.73503  0.96916  0.25451  1.0000
  H   H2218     1.0  0.66111  0.85508  0.07595  1.0000
  C   C1870     1.0  0.71973  0.97903  0.18793  1.0000
  H   H2219     1.0  0.66593  0.63246  0.26948  1.0000
  C   C1871     1.0  0.66176  0.67040  0.20400  1.0000
  H   H2220     1.0  0.66029  0.81424  0.11772  1.0000
  C   C1872     1.0  0.49684  0.61829  0.23279  1.0000
  C   C1873     1.0  0.70355  0.58983  0.16845  1.0000
  C   C1874     1.0  0.68564  0.58356  0.17544  1.0000
  H   H2221     1.0  0.65006  0.62715  0.22644  1.0000
  C   C1875     1.0  0.66798  0.59671  0.17456  1.0000
  C   C1876     1.0  0.68480  0.62304  0.16022  1.0000
  C   C1877     1.0  0.66755  0.61638  0.16695  1.0000
  H   H2222     1.0  0.65573  0.53793  0.24150  1.0000
  H   H2223     1.0  0.52897  0.74693  0.28033  1.0000
  H   H2224     1.0  0.60937  0.84679  0.26387  1.0000
  C   C1878     1.0  0.65925  0.65150  0.20684  1.0000
  H   H2225     1.0  0.68484  0.56865  0.18214  1.0000
  H   H2226     1.0  0.65451  0.59166  0.18040  1.0000
  H   H2227     1.0  0.68445  0.63841  0.15452  1.0000
  H   H2228     1.0  0.65381  0.62654  0.16655  1.0000
  N   N126      1.0  0.65074  0.79300  0.23422  1.0000
  C   C1879     1.0  0.66190  0.78612  0.24988  1.0000
  C   C1880     1.0  0.65151  0.81373  0.22566  1.0000
  C   C1881     1.0  0.63017  0.79212  0.24312  1.0000
  C   C1882     1.0  0.65934  0.78095  0.21933  1.0000
  C   C1883     1.0  0.65043  0.76656  0.21725  1.0000
  C   C1884     1.0  0.67758  0.78274  0.20692  1.0000
  C   C1885     1.0  0.65887  0.75549  0.20298  1.0000
  C   C1886     1.0  0.68595  0.77147  0.19280  1.0000
  C   C1887     1.0  0.67649  0.75805  0.19068  1.0000
  H   H2229     1.0  0.66174  0.77059  0.25670  1.0000
  H   H2230     1.0  0.67730  0.78741  0.24436  1.0000
  H   H2231     1.0  0.65584  0.79468  0.26153  1.0000
  H   H2232     1.0  0.66645  0.81645  0.22181  1.0000
  H   H2233     1.0  0.64330  0.82342  0.23594  1.0000
  H   H2234     1.0  0.64549  0.81890  0.21223  1.0000
  H   H2235     1.0  0.62853  0.77739  0.25175  1.0000
  H   H2236     1.0  0.62371  0.80207  0.25348  1.0000
  H   H2237     1.0  0.62121  0.79635  0.23188  1.0000
  H   H2238     1.0  0.63695  0.76346  0.22647  1.0000
  H   H2239     1.0  0.68555  0.79293  0.20794  1.0000
  H   H2240     1.0  0.65168  0.74482  0.20142  1.0000
  H   H2241     1.0  0.69976  0.77331  0.18331  1.0000
  H   H2242     1.0  0.68284  0.74953  0.17953  1.0000
  C   C1888     1.0  0.53985  0.82905  0.30651  1.0000
  C   C1889     1.0  0.63639  0.62065  0.26270  1.0000
  C   C1890     1.0  0.72127  0.55562  0.17547  1.0000
  H   H2243     1.0  0.53726  0.81982  0.27338  1.0000
  H   H2244     1.0  0.63171  0.58784  0.16075  1.0000
  H   H2245     1.0  0.64492  0.74776  0.09192  1.0000
  H   H2246     1.0  0.49795  0.60740  0.24595  1.0000
  H   H2247     1.0  0.64566  0.63200  0.28973  1.0000
  S   S501      1.0  0.69442  0.97833  0.25959  1.0000
  H   H2248     1.0  0.73406  0.71434  0.99377  1.0000
  C   C1891     1.0  0.73090  0.58083  0.18406  1.0000
  C   C1892     1.0  0.73571  0.98294  0.28464  1.0000
  H   H2249     1.0  0.64593  0.83283  0.10282  1.0000
  H   H2250     1.0  0.54313  0.79402  0.28221  1.0000
  H   H2251     1.0  0.52795  0.69791  0.26680  1.0000
  C   C1893     1.0  0.71500  0.83070  0.30081  1.0000
  H   H2252     1.0  0.71573  0.91291  0.28992  1.0000
  H   H2253     1.0  0.60245  0.71430  0.14813  1.0000
  H   H2254     1.0  0.61292  0.74321  0.15022  1.0000
  C   C1894     1.0  0.69351  0.81398  0.08889  1.0000
  H   H2255     1.0  0.65069  0.61128  0.25806  1.0000
  H   H2256     1.0  0.61162  0.64455  0.28312  1.0000
  H   H2257     1.0  0.71106  0.82904  0.10537  1.0000
  S   S502      1.0  0.72066  0.78698  0.13121  1.0000
  C   C1895     1.0  0.70252  0.61003  0.16102  1.0000
  C   C1896     1.0  0.65962  0.82179  0.10247  1.0000
  H   H2258     1.0  0.65079  0.85913  0.10954  1.0000
  S   S503      1.0  0.62246  0.72907  0.26198  1.0000
  H   H2259     1.0  0.61878  0.66669  0.27003  1.0000
  H   H2260     1.0  0.67149  0.83479  0.06432  1.0000
  H   H2261     1.0  0.71552  0.82991  0.17504  1.0000
  H   H2262     1.0  0.70682  0.81920  0.08025  1.0000
  C   C1897     1.0  0.66738  0.86662  0.12549  1.0000
  N   N127      1.0  0.63717  0.71593  0.08380  1.0000
  C   C1898     1.0  0.65820  0.70795  0.08219  1.0000
  C   C1899     1.0  0.62796  0.70017  0.08326  1.0000
  C   C1900     1.0  0.63411  0.73154  0.06648  1.0000
  C   C1901     1.0  0.62954  0.72374  0.10180  1.0000
  C   C1902     1.0  0.61743  0.71456  0.11839  1.0000
  C   C1903     1.0  0.63520  0.74035  0.10359  1.0000
  C   C1904     1.0  0.61127  0.72180  0.13548  1.0000
  C   C1905     1.0  0.62907  0.74735  0.12080  1.0000
  C   C1906     1.0  0.61713  0.73811  0.13670  1.0000
  H   H2263     1.0  0.66115  0.69614  0.09490  1.0000
  H   H2264     1.0  0.66475  0.70211  0.06871  1.0000
  H   H2265     1.0  0.66615  0.71919  0.08174  1.0000
  H   H2266     1.0  0.63128  0.68704  0.09469  1.0000
  H   H2267     1.0  0.63333  0.69529  0.06917  1.0000
  H   H2268     1.0  0.61197  0.70511  0.08512  1.0000
  H   H2269     1.0  0.63916  0.72593  0.05275  1.0000
  H   H2270     1.0  0.61856  0.73866  0.06762  1.0000
  H   H2271     1.0  0.64234  0.74303  0.06431  1.0000
  H   H2272     1.0  0.61281  0.70151  0.11879  1.0000
  H   H2273     1.0  0.55980  0.80841  0.28093  1.0000
  H   H2274     1.0  0.71554  0.98286  0.20249  1.0000
  N   N128      1.0  0.53479  0.81133  0.30436  1.0000
  H   H2275     1.0  0.53413  0.84211  0.29615  1.0000
  H   H2276     1.0  0.73166  0.95611  0.16173  1.0000
  C   C1907     1.0  0.73080  0.83510  0.30568  1.0000
  H   H2277     1.0  0.73335  0.80701  0.15322  1.0000
  H   H2278     1.0  0.72724  0.87154  0.30938  1.0000
  H   H2279     1.0  0.73248  0.56077  0.27760  1.0000
  H   H2280     1.0  0.67166  0.87241  0.30251  1.0000
  C   C1908     1.0  0.48934  0.64771  0.27568  1.0000
  Fe  Fe256     1.0  0.67118  0.73729  0.97979  1.0000
  H   H2281     1.0  0.51639  0.78425  0.30110  1.0000
  H   H2282     1.0  0.55583  0.82784  0.30346  1.0000
  H   H2283     1.0  0.72976  0.57697  0.13891  1.0000
  H   H2284     1.0  0.72315  0.73081  0.02142  1.0000
  H   H2285     1.0  0.62825  0.79688  0.30620  1.0000
  C   C1909     1.0  0.73027  0.94493  0.19928  1.0000
  C   C1910     1.0  0.50660  0.79701  0.30540  1.0000
  C   C1911     1.0  0.51368  0.81244  0.30785  1.0000
  C   C1912     1.0  0.73562  0.94451  0.31243  1.0000
  H   H2286     1.0  0.73581  0.54597  0.17553  1.0000
  H   H2287     1.0  0.73391  0.71509  0.05237  1.0000
  S   S504      1.0  0.73464  0.52457  0.22462  1.0000
  H   H2288     1.0  0.73349  0.59590  0.17992  1.0000
  Fe  Fe257     1.0  0.73632  0.50339  0.20661  1.0000
  C   C1913     1.0  0.73609  0.57893  0.15045  1.0000
  S   S505      1.0  0.73717  0.70829  0.09388  1.0000
  Fe  Fe258     1.0  0.69839  0.80127  0.56981  1.0000
  S   S506      1.0  0.69901  0.76952  0.58063  1.0000
  S   S507      1.0  0.68708  0.81737  0.54258  1.0000
  Fe  Fe259     1.0  0.71535  0.80361  0.60341  1.0000
  H   H2289     1.0  0.50952  0.74307  0.35138  1.0000
  H   H2290     1.0  0.65610  0.78669  0.59653  1.0000
  H   H2291     1.0  0.65865  0.77407  0.57750  1.0000
  H   H2292     1.0  0.62520  0.81603  0.37938  1.0000
  H   H2293     1.0  0.67141  0.83281  0.36894  1.0000
  C   C1914     1.0  0.49975  0.74533  0.32515  1.0000
  S   S508      1.0  0.68488  0.80852  0.59924  1.0000
  Fe  Fe260     1.0  0.69159  0.78202  0.44707  1.0000
  S   S509      1.0  0.71737  0.79133  0.42569  1.0000
  S   S510      1.0  0.69401  0.76954  0.47844  1.0000
  Fe  Fe261     1.0  0.67037  0.78455  0.41498  1.0000
  S   S511      1.0  0.69447  0.79382  0.39110  1.0000
  S   S512      1.0  0.64274  0.78181  0.40844  1.0000
  Fe  Fe262     1.0  0.71389  0.77133  0.40877  1.0000
  C   C1915     1.0  0.65488  0.80678  0.34916  1.0000
  Fe  Fe263     1.0  0.69571  0.81311  0.41003  1.0000
  S   S513      1.0  0.69964  0.84349  0.39568  1.0000
  S   S514      1.0  0.68972  0.76013  0.43102  1.0000
  S   S515      1.0  0.66989  0.80573  0.43293  1.0000
  H   H2294     1.0  0.72497  0.92705  0.34000  1.0000
  H   H2295     1.0  0.71113  0.89866  0.62900  1.0000
  N   N129      1.0  0.70795  0.70692  0.39117  1.0000
  C   C1916     1.0  0.70989  0.80726  0.33102  1.0000
  C   C1917     1.0  0.72627  0.92986  0.32441  1.0000
  H   H2296     1.0  0.61938  0.84685  0.34302  1.0000
  C   C1918     1.0  0.64812  0.78027  0.58952  1.0000
  C   C1919     1.0  0.68313  0.85438  0.34688  1.0000
  S   S516      1.0  0.64646  0.73975  0.34097  1.0000
  H   H2297     1.0  0.73064  0.81225  0.38473  1.0000
  C   C1920     1.0  0.53326  0.74330  0.32662  1.0000
  C   C1921     1.0  0.60217  0.83086  0.61482  1.0000
  H   H2298     1.0  0.50227  0.70809  0.31469  1.0000
  H   H2299     1.0  0.71814  0.87458  0.37178  1.0000
  Fe  Fe264     1.0  0.68817  0.77644  0.61033  1.0000
  H   H2300     1.0  0.55901  0.79394  0.31689  1.0000
  C   C1922     1.0  0.72232  0.84341  0.37987  1.0000
  H   H2301     1.0  0.69679  0.70284  0.42204  1.0000
  H   H2302     1.0  0.64527  0.79611  0.35355  1.0000
  H   H2303     1.0  0.53446  0.83153  0.32160  1.0000
  H   H2304     1.0  0.61584  0.77323  0.58468  1.0000
  H   H2305     1.0  0.73390  0.86952  0.64450  1.0000
  C   C1923     1.0  0.70228  0.86396  0.63933  1.0000
  H   H2306     1.0  0.61237  0.77571  0.61644  1.0000
  C   C1924     1.0  0.64403  0.76991  0.38980  1.0000
  C   C1925     1.0  0.66183  0.76133  0.37957  1.0000
  C   C1926     1.0  0.66238  0.75239  0.36441  1.0000
  C   C1927     1.0  0.64520  0.75197  0.35939  1.0000
  C   C1928     1.0  0.62745  0.76078  0.36946  1.0000
  C   C1929     1.0  0.62688  0.76964  0.38467  1.0000
  H   H2307     1.0  0.67510  0.76169  0.38332  1.0000
  H   H2308     1.0  0.67612  0.74580  0.35645  1.0000
  H   H2309     1.0  0.61414  0.76036  0.36584  1.0000
  H   H2310     1.0  0.61308  0.77624  0.39255  1.0000
  C   C1930     1.0  0.73586  0.82462  0.32357  1.0000
  H   H2311     1.0  0.70197  0.79661  0.34070  1.0000
  H   H2312     1.0  0.73742  0.64199  0.38731  1.0000
  H   H2313     1.0  0.60843  0.79621  0.56932  1.0000
  C   C1931     1.0  0.69668  0.98216  0.33323  1.0000
  H   H2314     1.0  0.71195  0.90710  0.32567  1.0000
  C   C1932     1.0  0.59331  0.81849  0.63064  1.0000
  H   H2315     1.0  0.62128  0.83392  0.58746  1.0000
  H   H2316     1.0  0.71487  0.86420  0.62684  1.0000
  C   C1933     1.0  0.68975  0.80426  0.52435  1.0000
  C   C1934     1.0  0.69654  0.78416  0.52754  1.0000
  C   C1935     1.0  0.69760  0.77382  0.51336  1.0000
  C   C1936     1.0  0.69235  0.78348  0.49559  1.0000
  C   C1937     1.0  0.68599  0.80366  0.49209  1.0000
  C   C1938     1.0  0.68451  0.81398  0.50653  1.0000
  H   H2317     1.0  0.70086  0.77649  0.54099  1.0000
  H   H2318     1.0  0.70250  0.75822  0.51623  1.0000
  H   H2319     1.0  0.68191  0.81126  0.47842  1.0000
  H   H2320     1.0  0.67929  0.82955  0.50388  1.0000
  H   H2321     1.0  0.64324  0.76781  0.60049  1.0000
  H   H2322     1.0  0.71122  0.67003  0.38326  1.0000
  H   H2323     1.0  0.54199  0.78062  0.31626  1.0000
  H   H2324     1.0  0.63101  0.82941  0.32768  1.0000
  H   H2325     1.0  0.64966  0.85041  0.31534  1.0000
  Fe  Fe265     1.0  0.62141  0.74716  0.32550  1.0000
  S   S517      1.0  0.60721  0.72566  0.31974  1.0000
  H   H2326     1.0  0.59062  0.78908  0.64356  1.0000
  N   N130      1.0  0.63195  0.79508  0.58247  1.0000
  S   S518      1.0  0.66529  0.76207  0.63230  1.0000
  C   C1939     1.0  0.69075  0.70363  0.38612  1.0000
  H   H2327     1.0  0.72599  0.73430  0.43409  1.0000
  Fe  Fe266     1.0  0.72852  0.76825  0.58488  1.0000
  H   H2328     1.0  0.73432  0.77797  0.46239  1.0000
  S   S519      1.0  0.72863  0.79988  0.57277  1.0000
  C   C1940     1.0  0.64429  0.79626  0.64346  1.0000
  S   S520      1.0  0.59354  0.76853  0.33207  1.0000
  N   N131      1.0  0.64397  0.82624  0.35226  1.0000
  C   C1941     1.0  0.70111  0.71439  0.40945  1.0000
  H   H2329     1.0  0.67899  0.71687  0.38541  1.0000
  H   H2330     1.0  0.65425  0.80356  0.63207  1.0000
  C   C1942     1.0  0.73799  0.65532  0.39100  1.0000
  H   H2331     1.0  0.65051  0.80288  0.55448  1.0000
  H   H2332     1.0  0.61623  0.82212  0.35036  1.0000
  C   C1943     1.0  0.59706  0.79872  0.63089  1.0000
  H   H2333     1.0  0.63047  0.77984  0.56128  1.0000
  C   C1944     1.0  0.62695  0.83151  0.34290  1.0000
  C   C1945     1.0  0.63631  0.82521  0.37343  1.0000
  C   C1946     1.0  0.60963  0.79123  0.61530  1.0000
  C   C1947     1.0  0.61477  0.82354  0.59911  1.0000
  C   C1948     1.0  0.72545  0.81104  0.33610  1.0000
  C   C1949     1.0  0.61883  0.80341  0.59886  1.0000
  C   C1950     1.0  0.64062  0.80964  0.56651  1.0000
  S   S521      1.0  0.55040  0.74259  0.34013  1.0000
  H   H2334     1.0  0.52369  0.66584  0.31592  1.0000
  C   C1951     1.0  0.65832  0.85134  0.32492  1.0000
  C   C1952     1.0  0.62118  0.78568  0.57410  1.0000
  H   H2335     1.0  0.64965  0.81675  0.57160  1.0000
  H   H2336     1.0  0.72819  0.72609  0.37875  1.0000
  H   H2337     1.0  0.70473  0.73577  0.37333  1.0000
  C   C1953     1.0  0.51379  0.74374  0.33588  1.0000
  C   C1954     1.0  0.67111  0.86406  0.31725  1.0000
  H   H2338     1.0  0.73540  0.77341  0.48708  1.0000
  C   C1955     1.0  0.67047  0.84154  0.35465  1.0000
  H   H2339     1.0  0.72952  0.74342  0.46759  1.0000
  H   H2340     1.0  0.64757  0.81824  0.38222  1.0000
  H   H2341     1.0  0.62940  0.82099  0.55990  1.0000
  H   H2342     1.0  0.72108  0.71719  0.36145  1.0000
  C   C1956     1.0  0.72341  0.68925  0.39352  1.0000
  H   H2343     1.0  0.66650  0.80110  0.35770  1.0000
  H   H2344     1.0  0.68441  0.69201  0.39719  1.0000
  Fe  Fe267     1.0  0.57980  0.74847  0.32343  1.0000
  C   C1957     1.0  0.49962  0.82841  0.31401  1.0000
  H   H2345     1.0  0.62969  0.83989  0.37666  1.0000
  S   S522      1.0  0.71803  0.77168  0.61581  1.0000
  H   H2346     1.0  0.72957  0.80333  0.34978  1.0000
  C   C1958     1.0  0.65717  0.84008  0.34413  1.0000
  C   C1959     1.0  0.68329  0.86578  0.32831  1.0000
  C   C1960     1.0  0.69992  0.89653  0.64260  1.0000
  H   H2347     1.0  0.69290  0.85542  0.35538  1.0000
  H   H2348     1.0  0.69223  0.96843  0.33987  1.0000
  H   H2349     1.0  0.66177  0.80708  0.33361  1.0000
  C   C1961     1.0  0.71581  0.72212  0.37549  1.0000
  H   H2350     1.0  0.69298  0.87582  0.32242  1.0000
  S   S523      1.0  0.72053  0.82018  0.62323  1.0000
  H   H2351     1.0  0.69427  0.69983  0.37157  1.0000
  C   C1962     1.0  0.71907  0.91851  0.31633  1.0000
  H   H2352     1.0  0.59946  0.84619  0.61492  1.0000
  H   H2353     1.0  0.68841  0.72674  0.40868  1.0000
  C   C1963     1.0  0.72779  0.86095  0.36960  1.0000
  C   C1964     1.0  0.72296  0.67162  0.38877  1.0000
  H   H2354     1.0  0.53603  0.79570  0.33365  1.0000
  H   H2355     1.0  0.68927  0.86920  0.63273  1.0000
  H   H2356     1.0  0.73065  0.74070  0.49227  1.0000
  H   H2357     1.0  0.49129  0.68748  0.32324  1.0000
  H   H2358     1.0  0.71229  0.72015  0.41278  1.0000
  C   C1965     1.0  0.54329  0.79474  0.31838  1.0000
  H   H2359     1.0  0.58395  0.82411  0.64304  1.0000
  C   C1966     1.0  0.73482  0.82583  0.37707  1.0000
  H   H2360     1.0  0.71813  0.97603  0.34987  1.0000
  H   H2361     1.0  0.68545  0.90167  0.63862  1.0000
  H   H2362     1.0  0.50353  0.84075  0.31647  1.0000
  C   C1967     1.0  0.70473  0.81701  0.31337  1.0000
  H   H2363     1.0  0.63514  0.75124  0.66431  1.0000
  C   C1968     1.0  0.52009  0.71278  0.80885  1.0000
  C   C1969     1.0  0.59761  0.80104  0.83796  1.0000
  Fe  Fe268     1.0  0.57995  0.79532  0.71026  1.0000
  S   S524      1.0  0.56234  0.81129  0.73382  1.0000
  S   S525      1.0  0.59576  0.81191  0.68267  1.0000
  Fe  Fe269     1.0  0.57460  0.75618  0.73545  1.0000
  S   S526      1.0  0.55736  0.76875  0.76111  1.0000
  S   S527      1.0  0.58092  0.72444  0.73539  1.0000
  Fe  Fe270     1.0  0.54196  0.79088  0.73932  1.0000
  S   S528      1.0  0.50920  0.79926  0.74847  1.0000
  Fe  Fe271     1.0  0.57925  0.78773  0.75316  1.0000
  S   S529      1.0  0.59389  0.79117  0.77552  1.0000
  S   S530      1.0  0.55810  0.77713  0.71390  1.0000
  S   S531      1.0  0.59793  0.77294  0.72939  1.0000
  Fe  Fe272     1.0  0.64678  0.89147  0.81011  1.0000
  S   S532      1.0  0.66784  0.86892  0.82597  1.0000
  S   S533      1.0  0.63329  0.92066  0.81824  1.0000
  Fe  Fe273     1.0  0.64663  0.86500  0.78349  1.0000
  S   S534      1.0  0.66797  0.84061  0.79696  1.0000
  S   S535      1.0  0.63464  0.86263  0.75873  1.0000
  Fe  Fe274     1.0  0.65036  0.84799  0.82524  1.0000
  S   S536      1.0  0.63917  0.82450  0.84902  1.0000
  Fe  Fe275     1.0  0.68320  0.86391  0.79630  1.0000
  S   S537      1.0  0.71532  0.86136  0.78764  1.0000
  S   S538      1.0  0.62786  0.87091  0.81182  1.0000
  S   S539      1.0  0.66340  0.88793  0.78034  1.0000
  Fe  Fe276     1.0  0.56134  0.67572  0.86998  1.0000
  S   S540      1.0  0.57947  0.64893  0.85965  1.0000
  S   S541      1.0  0.52864  0.68458  0.87495  1.0000
  Fe  Fe277     1.0  0.59649  0.69211  0.86762  1.0000
  S   S542      1.0  0.61734  0.66720  0.85623  1.0000
  S   S543      1.0  0.60899  0.71637  0.87033  1.0000
  Fe  Fe278     1.0  0.59637  0.66953  0.83777  1.0000
  S   S544      1.0  0.60633  0.66337  0.80782  1.0000
  Fe  Fe279     1.0  0.59893  0.64874  0.87903  1.0000
  S   S545      1.0  0.61408  0.62205  0.89732  1.0000
  S   S546      1.0  0.57715  0.69639  0.84668  1.0000
  S   S547      1.0  0.57916  0.67365  0.89180  1.0000
  S   S548      1.0  0.66511  0.74705  0.92635  1.0000
  H   H2364     1.0  0.51310  0.67221  0.80283  1.0000
  Fe  Fe280     1.0  0.66470  0.76832  0.94394  1.0000
  S   S549      1.0  0.66423  0.79986  0.93012  1.0000
  C   C1970     1.0  0.72382  0.92785  0.73333  1.0000
  Fe  Fe281     1.0  0.70935  0.55198  0.85904  1.0000
  S   S550      1.0  0.70767  0.53604  0.89008  1.0000
  S   S551      1.0  0.68932  0.57900  0.84707  1.0000
  Fe  Fe282     1.0  0.69029  0.72935  0.93924  1.0000
  C   C1971     1.0  0.56391  0.74720  0.85032  1.0000
  H   H2365     1.0  0.67039  0.54520  0.86551  1.0000
  S   S552      1.0  0.71224  0.52568  0.84695  1.0000
  H   H2366     1.0  0.54873  0.78378  0.83177  1.0000
  C   C1972     1.0  0.60058  0.79545  0.85689  1.0000
  C   C1973     1.0  0.58887  0.79002  0.83097  1.0000
  H   H2367     1.0  0.72030  0.63961  0.92924  1.0000
  H   H2368     1.0  0.60246  0.81382  0.82851  1.0000
  C   C1974     1.0  0.65584  0.86599  0.68852  1.0000
  H   H2369     1.0  0.59790  0.77403  0.88343  1.0000
  C   C1975     1.0  0.51583  0.67028  0.86892  1.0000
  C   C1976     1.0  0.52463  0.65158  0.86583  1.0000
  C   C1977     1.0  0.51404  0.64025  0.86150  1.0000
  H   H2370     1.0  0.69439  0.94699  0.77223  1.0000
  H   H2371     1.0  0.67965  0.71054  0.89405  1.0000
  H   H2372     1.0  0.55190  0.76488  0.81869  1.0000
  H   H2373     1.0  0.53946  0.64563  0.86722  1.0000
  H   H2374     1.0  0.52086  0.62567  0.85940  1.0000
  C   C1978     1.0  0.63466  0.60939  0.88356  1.0000
  C   C1979     1.0  0.64772  0.59445  0.89285  1.0000
  C   C1980     1.0  0.66465  0.58495  0.88186  1.0000
  C   C1981     1.0  0.66844  0.59031  0.86159  1.0000
  C   C1982     1.0  0.65535  0.60517  0.85239  1.0000
  C   C1983     1.0  0.63848  0.61461  0.86331  1.0000
  H   H2375     1.0  0.64483  0.59038  0.90852  1.0000
  H   H2376     1.0  0.67489  0.57373  0.88903  1.0000
  H   H2377     1.0  0.65818  0.60934  0.83671  1.0000
  H   H2378     1.0  0.62838  0.62584  0.85597  1.0000
  C   C1984     1.0  0.61248  0.71711  0.89317  1.0000
  C   C1985     1.0  0.60475  0.70511  0.91019  1.0000
  C   C1986     1.0  0.60792  0.70593  0.92817  1.0000
  C   C1987     1.0  0.61895  0.71864  0.92926  1.0000
  C   C1988     1.0  0.62337  0.72994  0.89426  1.0000
  H   H2379     1.0  0.59617  0.69532  0.90957  1.0000
  H   H2380     1.0  0.60171  0.69676  0.94131  1.0000
  C   C1989     1.0  0.64670  0.81785  0.87126  1.0000
  C   C1990     1.0  0.64092  0.80183  0.88483  1.0000
  C   C1991     1.0  0.64601  0.79646  0.90303  1.0000
  C   C1992     1.0  0.65690  0.80710  0.90776  1.0000
  C   C1993     1.0  0.66263  0.82320  0.89423  1.0000
  C   C1994     1.0  0.65772  0.82846  0.87590  1.0000
  H   H2381     1.0  0.63247  0.79351  0.88132  1.0000
  H   H2382     1.0  0.64124  0.78425  0.91350  1.0000
  H   H2383     1.0  0.67113  0.83143  0.89783  1.0000
  H   H2384     1.0  0.66254  0.84061  0.86539  1.0000
  C   C1995     1.0  0.58927  0.70858  0.75550  1.0000
  C   C1996     1.0  0.58675  0.71439  0.77306  1.0000
  C   C1997     1.0  0.59235  0.70077  0.78927  1.0000
  C   C1998     1.0  0.60067  0.68146  0.78777  1.0000
  C   C1999     1.0  0.60370  0.67593  0.77004  1.0000
  C   C2000     1.0  0.59778  0.68936  0.75406  1.0000
  H   H2385     1.0  0.58018  0.72924  0.77423  1.0000
  H   H2386     1.0  0.59018  0.70517  0.80288  1.0000
  H   H2387     1.0  0.61019  0.66105  0.76879  1.0000
  H   H2388     1.0  0.59980  0.68482  0.74052  1.0000
  H   H2389     1.0  0.59789  0.89209  0.91070  1.0000
  C   C2001     1.0  0.62667  0.73064  0.91222  1.0000
  H   H2390     1.0  0.70382  0.82705  0.81689  1.0000
  C   C2002     1.0  0.49953  0.78271  0.72283  1.0000
  S   S553      1.0  0.62281  0.71906  0.95210  1.0000
  H   H2391     1.0  0.51480  0.77673  0.71874  1.0000
  H   H2392     1.0  0.50464  0.62819  0.90696  1.0000
  C   C2003     1.0  0.60486  0.81130  0.77068  1.0000
  C   C2004     1.0  0.60238  0.82655  0.75473  1.0000
  C   C2005     1.0  0.61150  0.84231  0.75119  1.0000
  C   C2006     1.0  0.62297  0.84299  0.76367  1.0000
  C   C2007     1.0  0.62541  0.82775  0.77962  1.0000
  C   C2008     1.0  0.61652  0.81189  0.78299  1.0000
  H   H2393     1.0  0.59336  0.82626  0.74518  1.0000
  H   H2394     1.0  0.60947  0.85412  0.73890  1.0000
  H   H2395     1.0  0.63430  0.82805  0.78927  1.0000
  H   H2396     1.0  0.61888  0.79998  0.79511  1.0000
  H   H2397     1.0  0.51631  0.75583  0.77615  1.0000
  C   C2009     1.0  0.72282  0.85949  0.76325  1.0000
  C   C2010     1.0  0.70915  0.85995  0.75271  1.0000
  C   C2011     1.0  0.71487  0.85975  0.73289  1.0000
  C   C2012     1.0  0.70115  0.76704  0.89428  1.0000
  H   H2398     1.0  0.69414  0.86053  0.75977  1.0000
  H   H2399     1.0  0.70424  0.86033  0.72475  1.0000
  S   S554      1.0  0.68865  0.97736  0.81245  1.0000
  H   H2400     1.0  0.68303  0.92138  0.76774  1.0000
  C   C2013     1.0  0.61555  0.79787  0.66942  1.0000
  C   C2014     1.0  0.61805  0.77767  0.67303  1.0000
  C   C2015     1.0  0.72203  0.81705  0.83789  1.0000
  H   H2401     1.0  0.50276  0.65995  0.91434  1.0000
  C   C2016     1.0  0.63346  0.76684  0.66165  1.0000
  H   H2402     1.0  0.60786  0.77041  0.68430  1.0000
  C   C2017     1.0  0.67298  0.96176  0.81443  1.0000
  C   C2018     1.0  0.68095  0.94262  0.81194  1.0000
  C   C2019     1.0  0.66894  0.92996  0.81285  1.0000
  C   C2020     1.0  0.64882  0.93630  0.81656  1.0000
  C   C2021     1.0  0.64085  0.95538  0.81922  1.0000
  H   H2403     1.0  0.73205  0.82642  0.82975  1.0000
  H   H2404     1.0  0.69648  0.93755  0.80940  1.0000
  H   H2405     1.0  0.67522  0.91523  0.81098  1.0000
  C   C2022     1.0  0.70608  0.81747  0.83058  1.0000
  C   C2023     1.0  0.73425  0.85905  0.72355  1.0000
  C   C2024     1.0  0.72935  0.94489  0.72073  1.0000
  N   N132      1.0  0.70999  0.65047  0.95567  1.0000
  C   C2025     1.0  0.72213  0.86999  0.65769  1.0000
  C   C2026     1.0  0.52069  0.74041  0.78190  1.0000
  C   C2027     1.0  0.65670  0.64900  0.96156  1.0000
  H   H2406     1.0  0.68638  0.77593  0.89796  1.0000
  H   H2407     1.0  0.67539  0.51923  0.87081  1.0000
  C   C2028     1.0  0.67274  0.88055  0.70348  1.0000
  H   H2408     1.0  0.72555  0.89965  0.76628  1.0000
  S   S555      1.0  0.64408  0.75575  0.97021  1.0000
  C   C2029     1.0  0.51408  0.73257  0.80138  1.0000
  C   C2030     1.0  0.64989  0.66734  0.95113  1.0000
  C   C2031     1.0  0.68723  0.87409  0.67073  1.0000
  H   H2409     1.0  0.53881  0.73468  0.75478  1.0000
  H   H2410     1.0  0.63238  0.78125  0.73586  1.0000
  H   H2411     1.0  0.70096  0.90619  0.65174  1.0000
  C   C2032     1.0  0.49309  0.79433  0.73677  1.0000
  H   H2412     1.0  0.71223  0.91489  0.78277  1.0000
  C   C2033     1.0  0.49641  0.67768  0.86741  1.0000
  H   H2413     1.0  0.60749  0.80398  0.86215  1.0000
  H   H2414     1.0  0.70830  0.81437  0.67753  1.0000
  N   N133      1.0  0.57405  0.76118  0.83496  1.0000
  H   H2415     1.0  0.58749  0.79469  0.81599  1.0000
  Fe  Fe283     1.0  0.71277  0.50945  0.87746  1.0000
  H   H2416     1.0  0.69132  0.68423  0.93530  1.0000
  C   C2034     1.0  0.69359  0.92043  0.75373  1.0000
  H   H2417     1.0  0.57416  0.73556  0.85796  1.0000
  H   H2418     1.0  0.68043  0.80625  0.83530  1.0000
  H   H2419     1.0  0.63479  0.74080  0.91287  1.0000
  H   H2420     1.0  0.60292  0.89762  0.84425  1.0000
  H   H2421     1.0  0.70102  0.80194  0.90111  1.0000
  C   C2035     1.0  0.55966  0.77361  0.82337  1.0000
  H   H2422     1.0  0.59750  0.75982  0.80997  1.0000
  H   H2423     1.0  0.55633  0.73945  0.84423  1.0000
  S   S556      1.0  0.71481  0.71414  0.91909  1.0000
  H   H2424     1.0  0.69957  0.88742  0.68716  1.0000
  H   H2425     1.0  0.72053  0.66485  0.92631  1.0000
  H   H2426     1.0  0.68599  0.92879  0.74179  1.0000
  H   H2427     1.0  0.60081  0.74036  0.83046  1.0000
  S   S557      1.0  0.69161  0.75161  0.95477  1.0000
  C   C2036     1.0  0.68213  0.67394  0.94276  1.0000
  H   H2428     1.0  0.63466  0.67220  0.95062  1.0000
  H   H2429     1.0  0.64342  0.86009  0.68922  1.0000
  C   C2037     1.0  0.70418  0.94744  0.75765  1.0000
  C   C2038     1.0  0.72137  0.91505  0.76790  1.0000
  C   C2039     1.0  0.65287  0.96811  0.81807  1.0000
  H   H2430     1.0  0.71392  0.69352  0.89012  1.0000
  H   H2431     1.0  0.70432  0.75743  0.90817  1.0000
  C   C2040     1.0  0.62878  0.80712  0.65471  1.0000
  H   H2432     1.0  0.60531  0.82364  0.90647  1.0000
  H   H2433     1.0  0.65142  0.50129  0.89014  1.0000
  C   C2041     1.0  0.70284  0.68585  0.89060  1.0000
  N   N134      1.0  0.64759  0.53240  0.88582  1.0000
  C   C2042     1.0  0.65595  0.53118  0.90274  1.0000
  C   C2043     1.0  0.63981  0.51470  0.88890  1.0000
  C   C2044     1.0  0.66371  0.53230  0.86857  1.0000
  C   C2045     1.0  0.63186  0.54982  0.88375  1.0000
  C   C2046     1.0  0.63158  0.56413  0.86627  1.0000
  C   C2047     1.0  0.61606  0.55284  0.89954  1.0000
  C   C2048     1.0  0.61655  0.58048  0.86494  1.0000
  C   C2049     1.0  0.60132  0.56946  0.89814  1.0000
  C   C2050     1.0  0.60162  0.58329  0.88091  1.0000
  H   H2434     1.0  0.66863  0.51886  0.90396  1.0000
  H   H2435     1.0  0.50449  0.74195  0.81080  1.0000
  H   H2436     1.0  0.51484  0.70742  0.82413  1.0000
  H   H2437     1.0  0.62854  0.51291  0.90240  1.0000
  C   C2051     1.0  0.71208  0.79237  0.86643  1.0000
  H   H2438     1.0  0.63322  0.51512  0.87657  1.0000
  H   H2439     1.0  0.72060  0.98103  0.78006  1.0000
  C   C2052     1.0  0.69300  0.80566  0.84093  1.0000
  C   C2053     1.0  0.72503  0.80473  0.85555  1.0000
  H   H2440     1.0  0.64301  0.56336  0.85351  1.0000
  H   H2441     1.0  0.61512  0.54248  0.91317  1.0000
  H   H2442     1.0  0.61687  0.59145  0.85163  1.0000
  H   H2443     1.0  0.58972  0.57181  0.91056  1.0000
  H   H2444     1.0  0.59047  0.59641  0.88000  1.0000
  N   N135      1.0  0.61093  0.88624  0.87219  1.0000
  C   C2054     1.0  0.63166  0.87974  0.86382  1.0000
  C   C2055     1.0  0.59932  0.88689  0.85797  1.0000
  C   C2056     1.0  0.60822  0.90641  0.87482  1.0000
  C   C2057     1.0  0.60544  0.87231  0.89041  1.0000
  C   C2058     1.0  0.60706  0.85255  0.89006  1.0000
  C   C2059     1.0  0.67072  0.86651  0.67197  1.0000
  H   H2445     1.0  0.63696  0.89058  0.85101  1.0000
  H   H2446     1.0  0.64084  0.87739  0.87460  1.0000
  H   H2447     1.0  0.59155  0.86767  0.93995  1.0000
  H   H2448     1.0  0.58356  0.89098  0.86400  1.0000
  H   H2449     1.0  0.61759  0.90729  0.88429  1.0000
  H   H2450     1.0  0.68048  0.62880  0.97138  1.0000
  H   H2451     1.0  0.59284  0.91233  0.88093  1.0000
  H   H2452     1.0  0.61172  0.84747  0.87656  1.0000
  H   H2453     1.0  0.72755  0.89682  0.73517  1.0000
  H   H2454     1.0  0.55296  0.75465  0.86124  1.0000
  C   C2060     1.0  0.65683  0.87303  0.70421  1.0000
  C   C2061     1.0  0.59578  0.86353  0.92594  1.0000
  H   H2455     1.0  0.58421  0.74085  0.81577  1.0000
  C   C2062     1.0  0.68770  0.88120  0.68699  1.0000
  H   H2456     1.0  0.71177  0.67983  0.95523  1.0000
  S   S558      1.0  0.67219  0.71342  0.96491  1.0000
  H   H2457     1.0  0.67345  0.88585  0.71585  1.0000
  N   N136      1.0  0.71562  0.77947  0.88509  1.0000
  H   H2458     1.0  0.62929  0.73937  0.88116  1.0000
  Fe  Fe284     1.0  0.64680  0.73295  0.95318  1.0000
  C   C2063     1.0  0.66263  0.67969  0.94163  1.0000
  H   H2459     1.0  0.70288  0.84849  0.64681  1.0000
  C   C2064     1.0  0.59949  0.87747  0.90893  1.0000
  H   H2460     1.0  0.66892  0.86089  0.66035  1.0000
  H   H2461     1.0  0.68488  0.78487  0.86595  1.0000
  C   C2065     1.0  0.58626  0.76756  0.86202  1.0000
  H   H2462     1.0  0.62687  0.82275  0.65181  1.0000
  C   C2066     1.0  0.58260  0.77309  0.84288  1.0000
  H   H2463     1.0  0.69720  0.90487  0.75272  1.0000
  N   N137      1.0  0.65908  0.65512  0.89189  1.0000
  C   C2067     1.0  0.66262  0.65011  0.87263  1.0000
  C   C2068     1.0  0.66038  0.63692  0.90692  1.0000
  C   C2069     1.0  0.63891  0.66634  0.89598  1.0000
  C   C2070     1.0  0.67380  0.66585  0.89179  1.0000
  C   C2071     1.0  0.66915  0.68572  0.89321  1.0000
  C   C2072     1.0  0.69366  0.65657  0.88953  1.0000
  C   C2073     1.0  0.68353  0.69544  0.89273  1.0000
  C   C2074     1.0  0.70791  0.66646  0.88898  1.0000
  H   H2464     1.0  0.72300  0.65911  0.88711  1.0000
  H   H2465     1.0  0.67686  0.64026  0.86911  1.0000
  H   H2466     1.0  0.65153  0.64250  0.87193  1.0000
  H   H2467     1.0  0.66211  0.66337  0.86085  1.0000
  H   H2468     1.0  0.67403  0.62624  0.90352  1.0000
  H   H2469     1.0  0.64853  0.62930  0.90826  1.0000
  H   H2470     1.0  0.65934  0.63997  0.92140  1.0000
  H   H2471     1.0  0.63630  0.67950  0.88438  1.0000
  H   H2472     1.0  0.62812  0.65769  0.89662  1.0000
  H   H2473     1.0  0.63538  0.67082  0.91019  1.0000
  H   H2474     1.0  0.65451  0.69413  0.89471  1.0000
  H   H2475     1.0  0.69834  0.64165  0.88784  1.0000
  H   H2476     1.0  0.58286  0.75448  0.87190  1.0000
  H   H2477     1.0  0.62530  0.96039  0.82207  1.0000
  H   H2478     1.0  0.48950  0.69211  0.86989  1.0000
  H   H2479     1.0  0.63439  0.86590  0.85882  1.0000
  H   H2480     1.0  0.69568  0.95768  0.74716  1.0000
  H   H2481     1.0  0.60200  0.87275  0.85356  1.0000
  C   C2075     1.0  0.69582  0.79331  0.85862  1.0000
  H   H2482     1.0  0.72451  0.95897  0.72456  1.0000
  H   H2483     1.0  0.70445  0.66580  0.97883  1.0000
  C   C2076     1.0  0.60342  0.83874  0.90714  1.0000
  H   H2484     1.0  0.70096  0.75733  0.88480  1.0000
  H   H2485     1.0  0.59541  0.83335  0.93827  1.0000
  N   N138      1.0  0.53912  0.67931  0.80526  1.0000
  C   C2077     1.0  0.54975  0.67721  0.82073  1.0000
  C   C2078     1.0  0.52194  0.67031  0.81380  1.0000
  C   C2079     1.0  0.55206  0.66804  0.79081  1.0000
  C   C2080     1.0  0.53290  0.70018  0.79694  1.0000
  C   C2081     1.0  0.53937  0.70868  0.77714  1.0000
  C   C2082     1.0  0.59788  0.84420  0.92505  1.0000
  C   C2083     1.0  0.71405  0.66498  0.96434  1.0000
  C   C2084     1.0  0.59505  0.77868  0.86886  1.0000
  C   C2085     1.0  0.53328  0.72847  0.76985  1.0000
  H   H2486     1.0  0.54069  0.68405  0.83293  1.0000
  H   H2487     1.0  0.55504  0.66169  0.82711  1.0000
  H   H2488     1.0  0.56261  0.68402  0.81494  1.0000
  H   H2489     1.0  0.51237  0.67655  0.82618  1.0000
  H   H2490     1.0  0.52612  0.65444  0.81965  1.0000
  H   H2491     1.0  0.65891  0.53192  0.85539  1.0000
  H   H2492     1.0  0.56568  0.67350  0.78439  1.0000
  H   H2493     1.0  0.55657  0.65245  0.79753  1.0000
  H   H2494     1.0  0.54490  0.66858  0.77888  1.0000
  H   H2495     1.0  0.54951  0.70051  0.76697  1.0000
  C   C2086     1.0  0.72277  0.65044  0.93621  1.0000
  H   H2496     1.0  0.66094  0.54473  0.90150  1.0000
  H   H2497     1.0  0.61230  0.91646  0.86070  1.0000
  H   H2498     1.0  0.72937  0.66152  0.96606  1.0000
  C   C2087     1.0  0.58978  0.75006  0.82224  1.0000
  H   H2499     1.0  0.56642  0.78234  0.80960  1.0000
  N   N139      1.0  0.64803  0.80013  0.71247  1.0000
  C   C2088     1.0  0.63079  0.81542  0.70887  1.0000
  C   C2089     1.0  0.65074  0.78605  0.69992  1.0000
  C   C2090     1.0  0.64409  0.78944  0.73296  1.0000
  C   C2091     1.0  0.66490  0.80928  0.70886  1.0000
  C   C2092     1.0  0.66585  0.82070  0.72160  1.0000
  C   C2093     1.0  0.68055  0.80755  0.69262  1.0000
  C   C2094     1.0  0.68192  0.82887  0.71893  1.0000
  C   C2095     1.0  0.69644  0.81607  0.68991  1.0000
  C   C2096     1.0  0.69722  0.82653  0.70315  1.0000
  H   H2500     1.0  0.63254  0.82294  0.69333  1.0000
  H   H2501     1.0  0.61750  0.80929  0.71253  1.0000
  H   H2502     1.0  0.62789  0.82662  0.71768  1.0000
  H   H2503     1.0  0.65201  0.79322  0.68432  1.0000
  H   H2504     1.0  0.63809  0.77895  0.70346  1.0000
  H   H2505     1.0  0.66374  0.77430  0.70163  1.0000
  H   H2506     1.0  0.63902  0.79920  0.74351  1.0000
  H   H2507     1.0  0.64552  0.52876  0.91676  1.0000
  H   H2508     1.0  0.65723  0.77886  0.73675  1.0000
  H   H2509     1.0  0.65416  0.82347  0.73379  1.0000
  H   H2510     1.0  0.68095  0.79959  0.68184  1.0000
  H   H2511     1.0  0.68237  0.83723  0.72912  1.0000
  H   H2512     1.0  0.73486  0.91972  0.76740  1.0000
  H   H2513     1.0  0.64528  0.87254  0.71703  1.0000
  H   H2514     1.0  0.72807  0.72242  0.94963  1.0000
  H   H2515     1.0  0.71658  0.78228  0.91365  1.0000
  H   H2516     1.0  0.49131  0.76997  0.70327  1.0000
  C   C2097     1.0  0.73522  0.70348  0.92935  1.0000
  H   H2517     1.0  0.69127  0.49394  0.85210  1.0000
  C   C2098     1.0  0.68949  0.65565  0.95379  1.0000
  H   H2518     1.0  0.65726  0.69407  0.93373  1.0000
  H   H2519     1.0  0.72513  0.88024  0.66494  1.0000
  C   C2099     1.0  0.71506  0.79137  0.89905  1.0000
  C   C2100     1.0  0.49461  0.64755  0.86012  1.0000
  C   C2101     1.0  0.67622  0.64311  0.96291  1.0000
  H   H2520     1.0  0.73128  0.56823  0.90458  1.0000
  H   H2521     1.0  0.72675  0.79979  0.89419  1.0000
  H   H2522     1.0  0.72407  0.85533  0.66732  1.0000
  H   H2523     1.0  0.70965  0.83293  0.70118  1.0000
  H   H2524     1.0  0.73082  0.62772  0.96916  1.0000
  H   H2525     1.0  0.71646  0.95356  0.75812  1.0000
  C   C2102     1.0  0.73491  0.76633  0.88203  1.0000
  N   N140      1.0  0.71097  0.92788  0.75275  1.0000
  H   H2526     1.0  0.72844  0.59527  0.92083  1.0000
  C   C2103     1.0  0.73125  0.91028  0.72649  1.0000
  N   N141      1.0  0.70260  0.87596  0.65290  1.0000
  H   H2527     1.0  0.71366  0.61926  0.96190  1.0000
  H   H2528     1.0  0.64657  0.98283  0.82001  1.0000
  C   C2104     1.0  0.71533  0.63108  0.96809  1.0000
  C   C2105     1.0  0.64658  0.77609  0.64676  1.0000
  H   H2529     1.0  0.64670  0.63943  0.96897  1.0000
  H   H2530     1.0  0.73755  0.80503  0.86067  1.0000
  H   H2531     1.0  0.73614  0.75784  0.87090  1.0000
  C   C2106     1.0  0.49072  0.63790  0.90986  1.0000
  H   H2532     1.0  0.73754  0.75569  0.89563  1.0000
  C   C2107     1.0  0.73801  0.71006  0.94463  1.0000
  C   C2108     1.0  0.48960  0.65578  0.91409  1.0000
  S   S559      1.0  0.69730  0.48456  0.89187  1.0000
  H   H2533     1.0  0.73809  0.82512  0.65162  1.0000
  H   H2534     1.0  0.73837  0.64658  0.93706  1.0000
  S   S560      1.0  0.77382  0.26149  0.00236  1.0000
  C   C2109     1.0  0.77066  0.31087  0.26446  1.0000
  H   H2535     1.0  0.78736  0.02400  0.27218  1.0000
  H   H2536     1.0  0.90885  0.23404  0.25338  1.0000
  C   C2110     1.0  0.74222  0.26937  0.08628  1.0000
  H   H2537     1.0  0.78559  0.21611  0.04327  1.0000
  C   C2111     1.0  0.83483  0.28009  0.99213  1.0000
  C   C2112     1.0  0.81009  0.30807  0.24819  1.0000
  C   C2113     1.0  0.80905  0.34178  0.27514  1.0000
  C   C2114     1.0  0.91473  0.19734  0.29232  1.0000
  Fe  Fe285     1.0  0.88648  0.27031  0.24575  1.0000
  S   S561      1.0  0.90417  0.25989  0.21884  1.0000
  S   S562      1.0  0.87216  0.25280  0.27335  1.0000
  Fe  Fe286     1.0  0.89021  0.31208  0.22890  1.0000
  S   S563      1.0  0.90872  0.30534  0.20068  1.0000
  S   S564      1.0  0.87726  0.34250  0.23339  1.0000
  Fe  Fe287     1.0  0.88770  0.28683  0.20249  1.0000
  S   S565      1.0  0.87147  0.29190  0.17850  1.0000
  Fe  Fe288     1.0  0.92372  0.27912  0.21949  1.0000
  S   S566      1.0  0.86832  0.29544  0.22947  1.0000
  S   S567      1.0  0.90694  0.28759  0.24759  1.0000
  Fe  Fe289     1.0  0.81916  0.24092  0.09166  1.0000
  S   S568      1.0  0.82519  0.21414  0.11463  1.0000
  S   S569      1.0  0.83103  0.23723  0.06057  1.0000
  Fe  Fe290     1.0  0.79560  0.26494  0.12167  1.0000
  S   S570      1.0  0.79968  0.23988  0.14664  1.0000
  S   S571      1.0  0.77670  0.29367  0.12673  1.0000
  Fe  Fe291     1.0  0.83049  0.23418  0.13074  1.0000
  S   S572      1.0  0.85384  0.22531  0.14838  1.0000
  Fe  Fe292     1.0  0.79389  0.22267  0.12809  1.0000
  H   H2538     1.0  0.78441  0.47164  0.29221  1.0000
  S   S573      1.0  0.82700  0.26044  0.10666  1.0000
  S   S574      1.0  0.78746  0.24824  0.10433  1.0000
  H   H2539     1.0  0.88035  0.32465  0.30249  1.0000
  H   H2540     1.0  0.74052  0.18488  0.14654  1.0000
  C   C2115     1.0  0.76310  0.30962  0.15916  1.0000
  C   C2116     1.0  0.76683  0.29295  0.15148  1.0000
  H   H2541     1.0  0.78285  0.04332  0.29702  1.0000
  C   C2117     1.0  0.96286  0.29755  0.22663  1.0000
  H   H2542     1.0  0.76587  0.32316  0.14965  1.0000
  C   C2118     1.0  0.73988  0.06194  0.28266  1.0000
  H   H2543     1.0  0.74583  0.05640  0.17562  1.0000
  H   H2544     1.0  0.94784  0.30428  0.22648  1.0000
  C   C2119     1.0  0.86806  0.27320  0.16925  1.0000
  C   C2120     1.0  0.87717  0.25384  0.17473  1.0000
  C   C2121     1.0  0.87332  0.23930  0.16761  1.0000
  C   C2122     1.0  0.86017  0.24402  0.15521  1.0000
  C   C2123     1.0  0.85118  0.26339  0.14968  1.0000
  C   C2124     1.0  0.85525  0.27793  0.15655  1.0000
  H   H2545     1.0  0.88714  0.25008  0.18445  1.0000
  H   H2546     1.0  0.88029  0.22431  0.17197  1.0000
  H   H2547     1.0  0.84099  0.26718  0.14020  1.0000
  H   H2548     1.0  0.84823  0.29290  0.15217  1.0000
  H   H2549     1.0  0.93178  0.20389  0.26345  1.0000
  C   C2125     1.0  0.77398  0.98974  0.18958  1.0000
  S   S575      1.0  0.77046  0.38266  0.28414  1.0000
  H   H2550     1.0  0.76649  0.30616  0.98428  1.0000
  H   H2551     1.0  0.78615  0.47451  0.22889  1.0000
  C   C2126     1.0  0.79813  0.30254  0.23926  1.0000
  C   C2127     1.0  0.80264  0.31493  0.26582  1.0000
  H   H2552     1.0  0.87951  0.07615  0.30931  1.0000
  C   C2128     1.0  0.84944  0.36313  0.28176  1.0000
  C   C2129     1.0  0.85563  0.36085  0.26245  1.0000
  C   C2130     1.0  0.87047  0.34531  0.25758  1.0000
  C   C2131     1.0  0.87925  0.33213  0.27206  1.0000
  C   C2132     1.0  0.87334  0.33467  0.29135  1.0000
  H   H2553     1.0  0.83802  0.37518  0.28537  1.0000
  H   H2554     1.0  0.84885  0.37112  0.25128  1.0000
  H   H2555     1.0  0.89085  0.32023  0.26834  1.0000
  H   H2556     1.0  0.96453  0.21804  0.26409  1.0000
  H   H2557     1.0  0.81329  0.23880  0.99960  1.0000
  S   S576      1.0  0.80403  0.39520  0.30911  1.0000
  H   H2558     1.0  0.81379  0.43725  0.30432  1.0000
  H   H2559     1.0  0.82598  0.43300  0.28044  1.0000
  S   S577      1.0  0.73914  0.47748  0.23097  1.0000
  C   C2133     1.0  0.97051  0.27936  0.22175  1.0000
  C   C2134     1.0  0.79930  0.46868  0.25365  1.0000
  H   H2560     1.0  0.77460  0.21867  0.09943  1.0000
  C   C2135     1.0  0.89769  0.20325  0.30533  1.0000
  H   H2561     1.0  0.94239  0.21876  0.29593  1.0000
  H   H2562     1.0  0.91655  0.13023  0.26375  1.0000
  C   C2136     1.0  0.77700  0.17241  0.04373  1.0000
  C   C2137     1.0  0.97514  0.23530  0.28712  1.0000
  S   S578      1.0  0.93160  0.17639  0.29927  1.0000
  H   H2563     1.0  0.74642  0.23017  0.99854  1.0000
  H   H2564     1.0  0.84116  0.30039  0.26719  1.0000
  C   C2138     1.0  0.88842  0.23136  0.28063  1.0000
  C   C2139     1.0  0.90558  0.22550  0.26780  1.0000
  H   H2565     1.0  0.81545  0.29432  0.29778  1.0000
  C   C2140     1.0  0.75442  0.05924  0.29297  1.0000
  C   C2141     1.0  0.78578  0.18591  0.04676  1.0000
  C   C2142     1.0  0.97472  0.30715  0.23160  1.0000
  C   C2143     1.0  0.78979  0.25392  0.01845  1.0000
  C   C2144     1.0  0.78362  0.25933  0.03654  1.0000
  C   C2145     1.0  0.79608  0.25403  0.04965  1.0000
  C   C2146     1.0  0.81481  0.24331  0.04474  1.0000
  C   C2147     1.0  0.82093  0.23773  0.02669  1.0000
  C   C2148     1.0  0.80842  0.24295  0.01357  1.0000
  H   H2566     1.0  0.76923  0.26786  0.04034  1.0000
  H   H2567     1.0  0.79135  0.25868  0.06332  1.0000
  H   H2568     1.0  0.83546  0.22951  0.02278  1.0000
  H   H2569     1.0  0.80420  0.29707  0.22598  1.0000
  C   C2149     1.0  0.94024  0.23489  0.29263  1.0000
  H   H2570     1.0  0.75865  0.22756  0.02689  1.0000
  H   H2571     1.0  0.83430  0.48065  0.28358  1.0000
  H   H2572     1.0  0.95015  0.26952  0.28718  1.0000
  H   H2573     1.0  0.92303  0.11609  0.29667  1.0000
  C   C2150     1.0  0.77156  0.04558  0.28911  1.0000
  C   C2151     1.0  0.83278  0.46523  0.28728  1.0000
  S   S579      1.0  0.74821  0.28842  0.21672  1.0000
  C   C2152     1.0  0.81712  0.28840  0.00246  1.0000
  C   C2153     1.0  0.85837  0.35014  0.29621  1.0000
  C   C2154     1.0  0.88513  0.12327  0.29094  1.0000
  H   H2574     1.0  0.77968  0.13962  0.13903  1.0000
  H   H2575     1.0  0.74477  0.38405  0.25993  1.0000
  C   C2155     1.0  0.75031  0.21224  0.09289  1.0000
  H   H2576     1.0  0.92102  0.13934  0.30150  1.0000
  C   C2156     1.0  0.76226  0.21195  0.10523  1.0000
  C   C2157     1.0  0.77890  0.20565  0.04057  1.0000
  H   H2577     1.0  0.79383  0.34599  0.28275  1.0000
  H   H2578     1.0  0.84613  0.45619  0.28014  1.0000
  H   H2579     1.0  0.75423  0.32131  0.18524  1.0000
  H   H2580     1.0  0.92700  0.24045  0.28632  1.0000
  C   C2158     1.0  0.91861  0.20842  0.27355  1.0000
  C   C2159     1.0  0.80266  0.29996  0.99269  1.0000
  H   H2581     1.0  0.74311  0.12997  0.15683  1.0000
  N   N142      1.0  0.78060  0.36312  0.20804  1.0000
  C   C2160     1.0  0.76970  0.36329  0.22826  1.0000
  C   C2161     1.0  0.77797  0.38333  0.19664  1.0000
  C   C2162     1.0  0.77174  0.35183  0.19961  1.0000
  C   C2163     1.0  0.80145  0.35518  0.20784  1.0000
  C   C2164     1.0  0.81215  0.33929  0.19896  1.0000
  C   C2165     1.0  0.81188  0.36383  0.21610  1.0000
  C   C2166     1.0  0.83201  0.33275  0.19830  1.0000
  C   C2167     1.0  0.83174  0.35710  0.21538  1.0000
  C   C2168     1.0  0.84179  0.34168  0.20637  1.0000
  H   H2582     1.0  0.77415  0.37288  0.23521  1.0000
  H   H2583     1.0  0.75388  0.36884  0.22885  1.0000
  H   H2584     1.0  0.77167  0.34849  0.23755  1.0000
  H   H2585     1.0  0.78268  0.39320  0.20304  1.0000
  H   H2586     1.0  0.76246  0.38961  0.19595  1.0000
  H   H2587     1.0  0.78638  0.38398  0.18146  1.0000
  H   H2588     1.0  0.77300  0.33648  0.20765  1.0000
  H   H2589     1.0  0.75603  0.35794  0.20024  1.0000
  H   H2590     1.0  0.77834  0.35215  0.18397  1.0000
  H   H2591     1.0  0.80567  0.33180  0.19212  1.0000
  H   H2592     1.0  0.80483  0.37614  0.22284  1.0000
  H   H2593     1.0  0.84001  0.32086  0.19114  1.0000
  H   H2594     1.0  0.83957  0.36404  0.22150  1.0000
  H   H2595     1.0  0.85729  0.33679  0.20541  1.0000
  N   N143      1.0  0.79108  0.14620  0.10808  1.0000
  C   C2169     1.0  0.77212  0.15515  0.10256  1.0000
  C   C2170     1.0  0.79488  0.12509  0.10833  1.0000
  C   C2171     1.0  0.76332  0.21204  0.03109  1.0000
  C   C2172     1.0  0.80606  0.15619  0.09435  1.0000
  C   C2173     1.0  0.82072  0.14724  0.08037  1.0000
  C   C2174     1.0  0.80580  0.17580  0.09412  1.0000
  C   C2175     1.0  0.83435  0.15734  0.06734  1.0000
  C   C2176     1.0  0.81934  0.18579  0.08093  1.0000
  C   C2177     1.0  0.83365  0.17657  0.06763  1.0000
  H   H2596     1.0  0.77229  0.15354  0.08775  1.0000
  C   C2178     1.0  0.75641  0.27452  0.18370  1.0000
  H   H2597     1.0  0.94753  0.23874  0.25462  1.0000
  H   H2598     1.0  0.79399  0.12230  0.09429  1.0000
  C   C2179     1.0  0.88518  0.15451  0.29711  1.0000
  H   H2599     1.0  0.80924  0.11755  0.11184  1.0000
  S   S580      1.0  0.95591  0.26662  0.21609  1.0000
  C   C2180     1.0  0.75416  0.19866  0.02751  1.0000
  H   H2600     1.0  0.89698  0.15056  0.25999  1.0000
  H   H2601     1.0  0.82201  0.13246  0.07925  1.0000
  H   H2602     1.0  0.79510  0.18365  0.10414  1.0000
  H   H2603     1.0  0.84555  0.15024  0.05693  1.0000
  H   H2604     1.0  0.81875  0.20081  0.08101  1.0000
  H   H2605     1.0  0.84417  0.18446  0.05755  1.0000
  C   C2181     1.0  0.81533  0.46945  0.26086  1.0000
  H   H2606     1.0  0.76809  0.17092  0.10249  1.0000
  H   H2607     1.0  0.75869  0.13079  0.99292  1.0000
  C   C2182     1.0  0.78972  0.14825  0.12820  1.0000
  H   H2608     1.0  0.75322  0.21971  0.07787  1.0000
  H   H2609     1.0  0.75347  0.26102  0.19310  1.0000
  C   C2183     1.0  0.95225  0.26320  0.27422  1.0000
  H   H2610     1.0  0.78691  0.46345  0.26329  1.0000
  C   C2184     1.0  0.79827  0.47497  0.29270  1.0000
  H   H2611     1.0  0.84465  0.31983  0.27573  1.0000
  S   S581      1.0  0.74682  0.11091  0.11981  1.0000
  H   H2612     1.0  0.97242  0.23969  0.24966  1.0000
  C   C2185     1.0  0.81375  0.44246  0.28852  1.0000
  H   H2613     1.0  0.81440  0.28535  0.01821  1.0000
  H   H2614     1.0  0.91686  0.15323  0.26849  1.0000
  H   H2615     1.0  0.84387  0.12254  0.27694  1.0000
  C   C2186     1.0  0.81408  0.48212  0.22083  1.0000
  C   C2187     1.0  0.88889  0.10343  0.30051  1.0000
  H   H2616     1.0  0.90079  0.09715  0.30792  1.0000
  C   C2188     1.0  0.86046  0.09801  0.29315  1.0000
  H   H2617     1.0  0.86528  0.14440  0.27411  1.0000
  H   H2618     1.0  0.89409  0.16429  0.29834  1.0000
  H   H2619     1.0  0.75643  0.08623  0.15516  1.0000
  C   C2189     1.0  0.88443  0.22018  0.29941  1.0000
  N   N144      1.0  0.80837  0.24779  0.20400  1.0000
  C   C2190     1.0  0.78924  0.24217  0.20951  1.0000
  C   C2191     1.0  0.80713  0.26576  0.18874  1.0000
  C   C2192     1.0  0.82256  0.23188  0.19568  1.0000
  C   C2193     1.0  0.81467  0.25113  0.22044  1.0000
  C   C2194     1.0  0.83332  0.25510  0.21778  1.0000
  C   C2195     1.0  0.80273  0.25065  0.23932  1.0000
  C   C2196     1.0  0.84002  0.25736  0.23320  1.0000
  C   C2197     1.0  0.80952  0.25315  0.25464  1.0000
  C   C2198     1.0  0.82820  0.25628  0.25163  1.0000
  H   H2620     1.0  0.77751  0.25391  0.21482  1.0000
  H   H2621     1.0  0.78525  0.23936  0.19686  1.0000
  H   H2622     1.0  0.78920  0.22866  0.22092  1.0000
  H   H2623     1.0  0.79637  0.27800  0.19435  1.0000
  H   H2624     1.0  0.80268  0.26382  0.17594  1.0000
  H   H2625     1.0  0.82123  0.27039  0.18312  1.0000
  H   H2626     1.0  0.82410  0.21812  0.20671  1.0000
  H   H2627     1.0  0.81842  0.22903  0.18313  1.0000
  H   H2628     1.0  0.83716  0.23521  0.18997  1.0000
  H   H2629     1.0  0.84299  0.25634  0.20372  1.0000
  H   H2630     1.0  0.78811  0.24835  0.24266  1.0000
  H   H2631     1.0  0.85457  0.25976  0.23086  1.0000
  H   H2632     1.0  0.80027  0.25258  0.26897  1.0000
  H   H2633     1.0  0.83357  0.25790  0.26357  1.0000
  H   H2634     1.0  0.77555  0.32239  0.28632  1.0000
  C   C2199     1.0  0.85660  0.11723  0.28331  1.0000
  N   N145      1.0  0.89738  0.13697  0.29004  1.0000
  H   H2635     1.0  0.87547  0.16353  0.28725  1.0000
  C   C2200     1.0  0.75945  0.03711  0.26492  1.0000
  C   C2201     1.0  0.75652  0.30859  0.17923  1.0000
  H   H2636     1.0  0.75083  0.24867  0.14005  1.0000
  C   C2202     1.0  0.91243  0.12858  0.30194  1.0000
  H   H2637     1.0  0.76933  0.29920  0.24066  1.0000
  C   C2203     1.0  0.75317  0.36881  0.28696  1.0000
  H   H2638     1.0  0.74189  0.99554  0.27543  1.0000
  H   H2639     1.0  0.75058  0.45103  0.27025  1.0000
  C   C2204     1.0  0.81225  0.31033  0.29657  1.0000
  H   H2640     1.0  0.96352  0.26963  0.26283  1.0000
  Fe  Fe293     1.0  0.78257  0.37749  0.31084  1.0000
  H   H2641     1.0  0.80415  0.14344  0.13226  1.0000
  H   H2642     1.0  0.78896  0.30549  0.00145  1.0000
  C   C2205     1.0  0.74313  0.43853  0.27545  1.0000
  H   H2643     1.0  0.79783  0.18114  0.05406  1.0000
  C   C2206     1.0  0.74330  0.19250  0.13157  1.0000
  H   H2644     1.0  0.82196  0.31368  0.30426  1.0000
  C   C2207     1.0  0.87672  0.09107  0.30145  1.0000
  H   H2645     1.0  0.83939  0.32477  0.25229  1.0000
  H   H2646     1.0  0.93877  0.26853  0.26836  1.0000
  C   C2208     1.0  0.74235  0.05086  0.26871  1.0000
  H   H2647     1.0  0.75450  0.16763  0.03311  1.0000
  C   C2209     1.0  0.77410  0.03460  0.27504  1.0000
  H   H2648     1.0  0.75228  0.99562  0.17308  1.0000
  H   H2649     1.0  0.82512  0.30678  0.24101  1.0000
  C   C2210     1.0  0.77851  0.30373  0.24749  1.0000
  N   N146      1.0  0.81524  0.46316  0.28190  1.0000
  C   C2211     1.0  0.83586  0.31614  0.26731  1.0000
  H   H2650     1.0  0.77839  0.33500  0.98293  1.0000
  S   S582      1.0  0.76233  0.02243  0.24823  1.0000
  H   H2651     1.0  0.78394  0.16342  0.13023  1.0000
  S   S583      1.0  0.77359  0.20181  0.14032  1.0000
  H   H2652     1.0  0.78215  0.15145  0.98399  1.0000
  C   C2212     1.0  0.78245  0.31659  0.27340  1.0000
  N   N147      1.0  0.81486  0.32061  0.27591  1.0000
  H   H2653     1.0  0.75529  0.31208  0.27075  1.0000
  H   H2654     1.0  0.78386  0.11786  0.11944  1.0000
  H   H2655     1.0  0.76472  0.26302  0.15780  1.0000
  C   C2213     1.0  0.74289  0.37219  0.27226  1.0000
  C   C2214     1.0  0.76290  0.27560  0.16373  1.0000
  C   C2215     1.0  0.83077  0.47689  0.24708  1.0000
  C   C2216     1.0  0.76132  0.17864  0.03441  1.0000
  H   H2656     1.0  0.75345  0.19651  0.99121  1.0000
  H   H2657     1.0  0.76022  0.14845  0.11275  1.0000
  C   C2217     1.0  0.75868  0.20230  0.12465  1.0000
  H   H2658     1.0  0.79734  0.31462  0.30494  1.0000
  C   C2218     1.0  0.74047  0.06335  0.16248  1.0000
  H   H2659     1.0  0.81811  0.34683  0.28220  1.0000
  H   H2660     1.0  0.78211  0.15705  0.04887  1.0000
  C   C2219     1.0  0.75001  0.35406  0.30335  1.0000
  C   C2220     1.0  0.75369  0.29086  0.19151  1.0000
  N   N148      1.0  0.95733  0.24167  0.27908  1.0000
  H   H2661     1.0  0.81036  0.35013  0.25991  1.0000
  C   C2221     1.0  0.75906  0.98503  0.18407  1.0000
  H   H2662     1.0  0.85064  0.08854  0.29467  1.0000
  H   H2663     1.0  0.77809  0.00365  0.18307  1.0000
  C   C2222     1.0  0.96065  0.23417  0.26115  1.0000
  C   C2223     1.0  0.90736  0.14301  0.26967  1.0000
  C   C2224     1.0  0.74654  0.08020  0.15083  1.0000
  H   H2664     1.0  0.96877  0.32134  0.23516  1.0000
  C   C2225     1.0  0.86884  0.12966  0.28199  1.0000
  H   H2665     1.0  0.80007  0.43986  0.28662  1.0000
  H   H2666     1.0  0.74800  0.45475  0.30181  1.0000
  H   H2667     1.0  0.74778  0.01694  0.30527  1.0000
  H   H2668     1.0  0.84580  0.27075  0.99987  1.0000
  C   C2226     1.0  0.79870  0.47501  0.23396  1.0000
  H   H2669     1.0  0.75357  0.42897  0.31000  1.0000
  C   C2227     1.0  0.74019  0.19414  0.00237  1.0000
  H   H2670     1.0  0.83212  0.46037  0.30324  1.0000
  H   H2671     1.0  0.75441  0.42490  0.27610  1.0000
  H   H2672     1.0  0.84354  0.47809  0.25113  1.0000
  H   H2673     1.0  0.79869  0.47223  0.30830  1.0000
  H   H2674     1.0  0.98040  0.18269  0.28714  1.0000
  H   H2675     1.0  0.75411  0.27550  0.07652  1.0000
  S   S584      1.0  0.75057  0.07226  0.31134  1.0000
  C   C2228     1.0  0.97603  0.22281  0.30560  1.0000
  H   H2676     1.0  0.75114  0.11932  0.18953  1.0000
  H   H2677     1.0  0.74809  0.27531  0.11095  1.0000
  C   C2229     1.0  0.74145  0.44167  0.30777  1.0000
  H   H2678     1.0  0.74125  0.17831  0.00779  1.0000
  C   C2230     1.0  0.73956  0.08941  0.13383  1.0000
  H   H2679     1.0  0.93684  0.24008  0.30645  1.0000
  H   H2680     1.0  0.87120  0.22471  0.30942  1.0000
  H   H2681     1.0  0.87593  0.15041  0.31166  1.0000
  C   C2231     1.0  0.83004  0.48312  0.22737  1.0000
  C   C2232     1.0  0.73854  0.26929  0.10611  1.0000
  C   C2233     1.0  0.79251  0.19184  0.43567  1.0000
  C   C2234     1.0  0.98360  0.18162  0.41533  1.0000
  C   C2235     1.0  0.85438  0.12958  0.39566  1.0000
  S   S585      1.0  0.84083  0.28529  0.62781  1.0000
  Fe  Fe294     1.0  0.82421  0.27310  0.61344  1.0000
  C   C2236     1.0  0.97804  0.16665  0.36926  1.0000
  S   S586      1.0  0.81847  0.28702  0.58337  1.0000
  H   H2682     1.0  0.74803  0.20578  0.47566  1.0000
  H   H2683     1.0  0.92720  0.23048  0.62896  1.0000
  H   H2684     1.0  0.77189  0.21270  0.51650  1.0000
  N   N149      1.0  0.79204  0.18747  0.52767  1.0000
  C   C2237     1.0  0.74873  0.26082  0.59299  1.0000
  S   S587      1.0  0.84111  0.24275  0.62018  1.0000
  C   C2238     1.0  0.76519  0.19752  0.63749  1.0000
  H   H2685     1.0  0.74829  0.23864  0.40378  1.0000
  Fe  Fe295     1.0  0.78646  0.40062  0.33807  1.0000
  N   N150      1.0  0.76384  0.25291  0.57740  1.0000
  Fe  Fe296     1.0  0.82727  0.24568  0.49422  1.0000
  S   S588      1.0  0.79708  0.25998  0.49056  1.0000
  S   S589      1.0  0.83257  0.23193  0.52443  1.0000
  Fe  Fe297     1.0  0.84216  0.24780  0.45070  1.0000
  S   S590      1.0  0.81289  0.26112  0.44378  1.0000
  S   S591      1.0  0.86769  0.24459  0.42584  1.0000
  Fe  Fe298     1.0  0.81078  0.27978  0.46459  1.0000
  S   S592      1.0  0.80102  0.31202  0.45558  1.0000
  Fe  Fe299     1.0  0.80195  0.24001  0.47019  1.0000
  S   S593      1.0  0.77669  0.22568  0.47575  1.0000
  S   S594      1.0  0.84079  0.26759  0.47025  1.0000
  S   S595      1.0  0.83156  0.22454  0.47507  1.0000
  Fe  Fe300     1.0  0.89615  0.16276  0.36921  1.0000
  S   S596      1.0  0.91041  0.13286  0.38240  1.0000
  S   S597      1.0  0.86852  0.17651  0.38695  1.0000
  S   S598      1.0  0.77877  0.03191  0.34410  1.0000
  S   S599      1.0  0.93887  0.13145  0.34006  1.0000
  Fe  Fe301     1.0  0.90952  0.12496  0.35489  1.0000
  S   S600      1.0  0.90154  0.09697  0.35457  1.0000
  Fe  Fe302     1.0  0.93827  0.14231  0.36643  1.0000
  S   S601      1.0  0.89343  0.15428  0.34277  1.0000
  S   S602      1.0  0.92400  0.17308  0.35538  1.0000
  Fe  Fe303     1.0  0.80868  0.07027  0.33952  1.0000
  H   H2686     1.0  0.80415  0.09840  0.64181  1.0000
  S   S603      1.0  0.75189  0.17702  0.59659  1.0000
  H   H2687     1.0  0.77662  0.09477  0.50486  1.0000
  Fe  Fe304     1.0  0.78324  0.04403  0.36738  1.0000
  S   S604      1.0  0.76887  0.03249  0.39777  1.0000
  S   S605      1.0  0.77657  0.07478  0.35162  1.0000
  Fe  Fe305     1.0  0.78331  0.35800  0.35333  1.0000
  S   S606      1.0  0.80416  0.37502  0.35522  1.0000
  S   S607      1.0  0.77317  0.33308  0.37605  1.0000
  C   C2239     1.0  0.76345  0.04826  0.41388  1.0000
  C   C2240     1.0  0.77395  0.10719  0.64051  1.0000
  S   S608      1.0  0.76412  0.38403  0.33892  1.0000
  H   H2688     1.0  0.90583  0.12361  0.31746  1.0000
  C   C2241     1.0  0.75773  0.25580  0.54370  1.0000
  H   H2689     1.0  0.83500  0.20604  0.37515  1.0000
  H   H2690     1.0  0.90929  0.16899  0.40306  1.0000
  C   C2242     1.0  0.75105  0.00792  0.31931  1.0000
  C   C2243     1.0  0.78547  0.44784  0.34396  1.0000
  C   C2244     1.0  0.80496  0.44218  0.34525  1.0000
  C   C2245     1.0  0.81471  0.45580  0.34696  1.0000
  C   C2246     1.0  0.80510  0.47515  0.34708  1.0000
  H   H2691     1.0  0.78050  0.11386  0.38372  1.0000
  C   C2247     1.0  0.77581  0.46711  0.34436  1.0000
  H   H2692     1.0  0.81246  0.42732  0.34507  1.0000
  H   H2693     1.0  0.82974  0.45135  0.34814  1.0000
  H   H2694     1.0  0.86689  0.13528  0.39498  1.0000
  Fe  Fe306     1.0  0.77519  0.06227  0.32711  1.0000
  H   H2695     1.0  0.80577  0.14358  0.40190  1.0000
  C   C2248     1.0  0.84065  0.10326  0.39405  1.0000
  C   C2249     1.0  0.74219  0.23432  0.57117  1.0000
  S   S609      1.0  0.77282  0.43163  0.34091  1.0000
  C   C2250     1.0  0.88301  0.20646  0.58837  1.0000
  H   H2696     1.0  0.75128  0.00181  0.35730  1.0000
  C   C2251     1.0  0.92334  0.17256  0.40275  1.0000
  H   H2697     1.0  0.81653  0.29402  0.39224  1.0000
  C   C2252     1.0  0.80842  0.08695  0.39588  1.0000
  C   C2253     1.0  0.77389  0.25759  0.42426  1.0000
  H   H2698     1.0  0.81497  0.20374  0.51751  1.0000
  S   S610      1.0  0.74454  0.13849  0.46266  1.0000
  C   C2254     1.0  0.78564  0.48079  0.34573  1.0000
  H   H2699     1.0  0.78040  0.18358  0.50479  1.0000
  C   C2255     1.0  0.80427  0.20950  0.38590  1.0000
  C   C2256     1.0  0.87868  0.09700  0.35054  1.0000
  C   C2257     1.0  0.87346  0.07927  0.35226  1.0000
  C   C2258     1.0  0.85553  0.07888  0.34867  1.0000
  C   C2259     1.0  0.84283  0.09628  0.34311  1.0000
  S   S611      1.0  0.77390  0.17133  0.42218  1.0000
  Fe  Fe307     1.0  0.81035  0.03020  0.33223  1.0000
  H   H2700     1.0  0.83653  0.23716  0.38172  1.0000
  H   H2701     1.0  0.85171  0.06517  0.34985  1.0000
  H   H2702     1.0  0.76265  0.18473  0.63441  1.0000
  S   S612      1.0  0.88744  0.24872  0.63456  1.0000
  C   C2260     1.0  0.77712  0.20925  0.46173  1.0000
  C   C2261     1.0  0.76052  0.20182  0.46458  1.0000
  C   C2262     1.0  0.89592  0.23298  0.59082  1.0000
  C   C2263     1.0  0.79325  0.20409  0.44742  1.0000
  N   N151      1.0  0.92806  0.16725  0.42224  1.0000
  C   C2264     1.0  0.75204  0.08842  0.56807  1.0000
  H   H2703     1.0  0.80616  0.20972  0.44523  1.0000
  C   C2265     1.0  0.79183  0.31871  0.43424  1.0000
  C   C2266     1.0  0.79474  0.33602  0.42109  1.0000
  C   C2267     1.0  0.78878  0.34077  0.40329  1.0000
  C   C2268     1.0  0.77970  0.32833  0.39869  1.0000
  C   C2269     1.0  0.77615  0.31141  0.41216  1.0000
  C   C2270     1.0  0.78232  0.30651  0.42983  1.0000
  H   H2704     1.0  0.80187  0.34562  0.42456  1.0000
  H   H2705     1.0  0.79110  0.35411  0.39326  1.0000
  H   H2706     1.0  0.76853  0.30215  0.40892  1.0000
  H   H2707     1.0  0.77942  0.29352  0.44025  1.0000
  C   C2271     1.0  0.86799  0.22579  0.41489  1.0000
  C   C2272     1.0  0.85314  0.21539  0.42147  1.0000
  C   C2273     1.0  0.85349  0.20025  0.41276  1.0000
  C   C2274     1.0  0.86866  0.19551  0.39743  1.0000
  C   C2275     1.0  0.88336  0.20613  0.39056  1.0000
  C   C2276     1.0  0.88306  0.22125  0.39936  1.0000
  H   H2708     1.0  0.84135  0.21899  0.43329  1.0000
  H   H2709     1.0  0.84197  0.19219  0.41793  1.0000
  H   H2710     1.0  0.89480  0.20281  0.37838  1.0000
  H   H2711     1.0  0.89443  0.22948  0.39412  1.0000
  H   H2712     1.0  0.93478  0.16459  0.39258  1.0000
  H   H2713     1.0  0.76455  0.20200  0.54161  1.0000
  S   S613      1.0  0.79961  0.34978  0.32507  1.0000
  C   C2277     1.0  0.78409  0.17556  0.51906  1.0000
  H   H2714     1.0  0.90472  0.23745  0.59801  1.0000
  C   C2278     1.0  0.98188  0.16228  0.42068  1.0000
  C   C2279     1.0  0.82271  0.23287  0.38506  1.0000
  H   H2715     1.0  0.74618  0.13745  0.55656  1.0000
  H   H2716     1.0  0.81737  0.08556  0.38120  1.0000
  H   H2717     1.0  0.87131  0.24469  0.35950  1.0000
  C   C2280     1.0  0.82228  0.27158  0.56712  1.0000
  C   C2281     1.0  0.82460  0.25147  0.57361  1.0000
  C   C2282     1.0  0.82773  0.23945  0.56036  1.0000
  C   C2283     1.0  0.82849  0.24746  0.54057  1.0000
  C   C2284     1.0  0.82589  0.26757  0.53407  1.0000
  C   C2285     1.0  0.82280  0.27961  0.54735  1.0000
  H   H2718     1.0  0.82374  0.24517  0.58886  1.0000
  H   H2719     1.0  0.82947  0.22390  0.56548  1.0000
  H   H2720     1.0  0.82635  0.27386  0.51882  1.0000
  H   H2721     1.0  0.82085  0.29518  0.54226  1.0000
  H   H2722     1.0  0.83424  0.15601  0.40029  1.0000
  C   C2286     1.0  0.77561  0.18497  0.43809  1.0000
  Fe  Fe308     1.0  0.81948  0.36803  0.32612  1.0000
  H   H2723     1.0  0.79466  0.16199  0.51651  1.0000
  H   H2724     1.0  0.74356  0.13218  0.52568  1.0000
  C   C2287     1.0  0.79157  0.10791  0.41814  1.0000
  C   C2288     1.0  0.76275  0.10321  0.50071  1.0000
  C   C2289     1.0  0.80940  0.19279  0.51351  1.0000
  S   S614      1.0  0.96404  0.13265  0.38103  1.0000
  C   C2290     1.0  0.75976  0.18972  0.45277  1.0000
  H   H2725     1.0  0.78684  0.15068  0.55039  1.0000
  H   H2726     1.0  0.80495  0.18789  0.42455  1.0000
  H   H2727     1.0  0.75684  0.22822  0.42620  1.0000
  C   C2291     1.0  0.75725  0.06832  0.40792  1.0000
  C   C2292     1.0  0.91895  0.21955  0.63714  1.0000
  H   H2728     1.0  0.76721  0.26589  0.53675  1.0000
  H   H2729     1.0  0.85555  0.29584  0.31728  1.0000
  S   S615      1.0  0.77725  0.12790  0.62235  1.0000
  C   C2293     1.0  0.80591  0.24466  0.39341  1.0000
  C   C2294     1.0  0.77726  0.20538  0.53008  1.0000
  C   C2295     1.0  0.78776  0.23894  0.39875  1.0000
  H   H2730     1.0  0.78293  0.21624  0.53412  1.0000
  C   C2296     1.0  0.80534  0.18694  0.55644  1.0000
  H   H2731     1.0  0.80730  0.25823  0.39576  1.0000
  C   C2297     1.0  0.80939  0.17826  0.57484  1.0000
  C   C2298     1.0  0.92762  0.14634  0.42988  1.0000
  C   C2299     1.0  0.80553  0.15995  0.58397  1.0000
  C   C2300     1.0  0.84793  0.11397  0.34168  1.0000
  H   H2732     1.0  0.89470  0.19483  0.31993  1.0000
  C   C2301     1.0  0.82160  0.11473  0.39719  1.0000
  H   H2733     1.0  0.96396  0.14205  0.42651  1.0000
  C   C2302     1.0  0.76476  0.26915  0.39308  1.0000
  H   H2734     1.0  0.79941  0.09920  0.42981  1.0000
  H   H2735     1.0  0.80850  0.20121  0.54996  1.0000
  H   H2736     1.0  0.81543  0.18579  0.58214  1.0000
  C   C2303     1.0  0.79710  0.17754  0.54669  1.0000
  H   H2737     1.0  0.80833  0.15329  0.59839  1.0000
  H   H2738     1.0  0.78005  0.24480  0.43460  1.0000
  C   C2304     1.0  0.77582  0.26774  0.56779  1.0000
  C   C2305     1.0  0.78233  0.19663  0.64340  1.0000
  C   C2306     1.0  0.77655  0.23529  0.58637  1.0000
  H   H2739     1.0  0.91001  0.19434  0.42928  1.0000
  H   H2740     1.0  0.76712  0.28158  0.56104  1.0000
  C   C2307     1.0  0.74717  0.10061  0.53454  1.0000
  H   H2741     1.0  0.78808  0.26249  0.55645  1.0000
  H   H2742     1.0  0.86770  0.24712  0.55678  1.0000
  C   C2308     1.0  0.75448  0.07257  0.44064  1.0000
  H   H2743     1.0  0.78797  0.22878  0.57510  1.0000
  H   H2744     1.0  0.78391  0.23860  0.59642  1.0000
  S   S616      1.0  0.82056  0.09677  0.33757  1.0000
  H   H2745     1.0  0.76276  0.10057  0.48629  1.0000
  H   H2746     1.0  0.76837  0.22392  0.59515  1.0000
  N   N152      1.0  0.88762  0.26673  0.56991  1.0000
  C   C2309     1.0  0.89884  0.27287  0.58080  1.0000
  C   C2310     1.0  0.89704  0.27058  0.54906  1.0000
  C   C2311     1.0  0.86791  0.27908  0.57249  1.0000
  C   C2312     1.0  0.88634  0.24599  0.57636  1.0000
  H   H2747     1.0  0.77438  0.21536  0.39792  1.0000
  H   H2748     1.0  0.88159  0.19143  0.59311  1.0000
  H   H2749     1.0  0.91299  0.14340  0.43152  1.0000
  H   H2750     1.0  0.83810  0.12747  0.33753  1.0000
  H   H2751     1.0  0.75190  0.10976  0.58379  1.0000
  H   H2752     1.0  0.88337  0.06578  0.35628  1.0000
  H   H2753     1.0  0.89936  0.28854  0.57578  1.0000
  H   H2754     1.0  0.89211  0.27082  0.59656  1.0000
  H   H2755     1.0  0.91170  0.26113  0.54646  1.0000
  H   H2756     1.0  0.89861  0.28598  0.54375  1.0000
  H   H2757     1.0  0.88855  0.26785  0.53973  1.0000
  H   H2758     1.0  0.85930  0.27754  0.56268  1.0000
  H   H2759     1.0  0.85969  0.27531  0.58764  1.0000
  H   H2760     1.0  0.86813  0.29481  0.56944  1.0000
  H   H2761     1.0  0.76181  0.26529  0.38045  1.0000
  Fe  Fe309     1.0  0.74736  0.15831  0.43349  1.0000
  H   H2762     1.0  0.76333  0.01263  0.32194  1.0000
  H   H2763     1.0  0.82137  0.17988  0.51227  1.0000
  C   C2313     1.0  0.85672  0.11064  0.39346  1.0000
  H   H2764     1.0  0.79497  0.08183  0.39703  1.0000
  H   H2765     1.0  0.75110  0.25701  0.51613  1.0000
  H   H2766     1.0  0.77850  0.10197  0.42009  1.0000
  H   H2767     1.0  0.87116  0.10170  0.39092  1.0000
  C   C2314     1.0  0.86514  0.26008  0.35595  1.0000
  H   H2768     1.0  0.91410  0.26470  0.57904  1.0000
  C   C2315     1.0  0.79327  0.11958  0.38366  1.0000
  N   N153      1.0  0.80413  0.10727  0.39864  1.0000
  N   N154      1.0  0.77017  0.25156  0.40779  1.0000
  H   H2769     1.0  0.78763  0.13473  0.38585  1.0000
  H   H2770     1.0  0.81598  0.07666  0.40708  1.0000
  H   H2771     1.0  0.76283  0.11887  0.49857  1.0000
  C   C2316     1.0  0.86385  0.26902  0.33683  1.0000
  H   H2772     1.0  0.80371  0.19563  0.38336  1.0000
  Fe  Fe310     1.0  0.92266  0.16153  0.33016  1.0000
  H   H2773     1.0  0.83514  0.27854  0.40467  1.0000
  N   N155      1.0  0.84420  0.30231  0.38212  1.0000
  C   C2317     1.0  0.86099  0.30152  0.39042  1.0000
  C   C2318     1.0  0.83554  0.32311  0.37555  1.0000
  C   C2319     1.0  0.85060  0.29112  0.36643  1.0000
  C   C2320     1.0  0.84951  0.29978  0.34675  1.0000
  C   C2321     1.0  0.85870  0.27093  0.37054  1.0000
  C   C2322     1.0  0.85615  0.28883  0.33224  1.0000
  S   S617      1.0  0.85067  0.35303  0.32037  1.0000
  C   C2323     1.0  0.81977  0.13399  0.39941  1.0000
  H   H2774     1.0  0.86713  0.28649  0.39748  1.0000
  H   H2775     1.0  0.85686  0.31032  0.40186  1.0000
  H   H2776     1.0  0.87277  0.30716  0.37897  1.0000
  H   H2777     1.0  0.83070  0.33104  0.38772  1.0000
  H   H2778     1.0  0.84610  0.33087  0.36433  1.0000
  H   H2779     1.0  0.84381  0.31506  0.34210  1.0000
  H   H2780     1.0  0.86034  0.26341  0.38510  1.0000
  C   C2324     1.0  0.78739  0.22109  0.39440  1.0000
  C   C2325     1.0  0.87533  0.23818  0.56794  1.0000
  H   H2781     1.0  0.76955  0.02491  0.43789  1.0000
  S   S618      1.0  0.81551  0.03995  0.35718  1.0000
  H   H2782     1.0  0.78233  0.27142  0.57830  1.0000
  H   H2783     1.0  0.96429  0.17377  0.36527  1.0000
  H   H2784     1.0  0.86935  0.12804  0.34445  1.0000
  H   H2785     1.0  0.80265  0.12016  0.36885  1.0000
  C   C2326     1.0  0.89409  0.21358  0.59679  1.0000
  H   H2786     1.0  0.76048  0.26541  0.43265  1.0000
  H   H2787     1.0  0.92229  0.18830  0.39641  1.0000
  H   H2788     1.0  0.78630  0.12293  0.42081  1.0000
  S   S619      1.0  0.82626  0.00377  0.31944  1.0000
  C   C2327     1.0  0.83596  0.14125  0.39860  1.0000
  H   H2789     1.0  0.76071  0.47156  0.34339  1.0000
  H   H2790     1.0  0.84362  0.08862  0.39175  1.0000
  H   H2791     1.0  0.82439  0.30189  0.40981  1.0000
  C   C2328     1.0  0.82945  0.29375  0.39780  1.0000
  C   C2329     1.0  0.79772  0.15023  0.57468  1.0000
  H   H2792     1.0  0.75574  0.07439  0.39307  1.0000
  H   H2793     1.0  0.82247  0.32481  0.36957  1.0000
  C   C2330     1.0  0.82190  0.21531  0.38135  1.0000
  C   C2331     1.0  0.75465  0.24780  0.56400  1.0000
  Fe  Fe311     1.0  0.74961  0.14840  0.61672  1.0000
  H   H2794     1.0  0.96889  0.21123  0.40808  1.0000
  C   C2332     1.0  0.87376  0.21870  0.57387  1.0000
  H   H2795     1.0  0.75444  0.07639  0.58016  1.0000
  C   C2333     1.0  0.74586  0.11960  0.53719  1.0000
  H   H2796     1.0  0.74728  0.09586  0.41687  1.0000
  C   C2334     1.0  0.74748  0.12280  0.55478  1.0000
  C   C2335     1.0  0.75244  0.08046  0.42140  1.0000
  C   C2336     1.0  0.75061  0.10724  0.57017  1.0000
  H   H2797     1.0  0.86520  0.21313  0.56725  1.0000
  S   S620      1.0  0.80022  0.26973  0.63965  1.0000
  H   H2798     1.0  0.74324  0.11200  0.64237  1.0000
  C   C2337     1.0  0.75329  0.24195  0.41552  1.0000
  C   C2338     1.0  0.86572  0.11434  0.34545  1.0000
  C   C2339     1.0  0.76071  0.05256  0.44648  1.0000
  H   H2799     1.0  0.93162  0.14120  0.44436  1.0000
  H   H2800     1.0  0.90123  0.20406  0.60817  1.0000
  H   H2801     1.0  0.79459  0.13605  0.58197  1.0000
  H   H2802     1.0  0.80613  0.19933  0.49882  1.0000
  C   C2340     1.0  0.94938  0.19150  0.41512  1.0000
  S   S621      1.0  0.75000  0.08726  0.45766  1.0000
  H   H2803     1.0  0.75641  0.99264  0.31738  1.0000
  C   C2341     1.0  0.74849  0.25084  0.53159  1.0000
  C   C2342     1.0  0.79339  0.15885  0.55640  1.0000
  H   H2804     1.0  0.77643  0.27765  0.38735  1.0000
  H   H2805     1.0  0.77044  0.17177  0.52849  1.0000
  C   C2343     1.0  0.76490  0.04042  0.43322  1.0000
  H   H2806     1.0  0.79525  0.99142  0.35053  1.0000
  H   H2807     1.0  0.86900  0.26062  0.32549  1.0000
  C   C2344     1.0  0.96738  0.19621  0.41257  1.0000
  C   C2345     1.0  0.77213  0.23051  0.64536  1.0000
  C   C2346     1.0  0.89877  0.22453  0.64192  1.0000
  H   H2808     1.0  0.93757  0.13714  0.41977  1.0000
  H   H2809     1.0  0.78406  0.26766  0.41948  1.0000
  C   C2347     1.0  0.91264  0.17845  0.43527  1.0000
  H   H2810     1.0  0.93736  0.20332  0.41232  1.0000
  Fe  Fe312     1.0  0.85536  0.25438  0.63714  1.0000
  H   H2811     1.0  0.74670  0.18445  0.45475  1.0000
  C   C2348     1.0  0.94708  0.17191  0.42060  1.0000
  C   C2349     1.0  0.75037  0.08504  0.55056  1.0000
  H   H2812     1.0  0.76223  0.04637  0.46133  1.0000
  C   C2350     1.0  0.75134  0.21485  0.63585  1.0000
  H   H2813     1.0  0.89840  0.17438  0.43757  1.0000
  H   H2814     1.0  0.91635  0.17597  0.44973  1.0000
  C   C2351     1.0  0.96398  0.15737  0.42317  1.0000
  C   C2352     1.0  0.98168  0.14670  0.37698  1.0000
  S   S622      1.0  0.80662  0.06025  0.31341  1.0000
  H   H2815     1.0  0.75156  0.27915  0.39922  1.0000
  C   C2353     1.0  0.75483  0.23130  0.63986  1.0000
  H   H2816     1.0  0.75167  0.07009  0.54998  1.0000
  H   H2817     1.0  0.73940  0.03379  0.34412  1.0000
  H   H2818     1.0  0.74277  0.18379  0.51111  1.0000
  C   C2354     1.0  0.92856  0.20038  0.64268  1.0000
  H   H2819     1.0  0.94418  0.19655  0.63870  1.0000
  H   H2820     1.0  0.75973  0.06722  0.51843  1.0000
  H   H2821     1.0  0.98477  0.13968  0.33923  1.0000
  C   C2355     1.0  0.81258  0.98589  0.32301  1.0000
  H   H2822     1.0  0.74411  0.24469  0.63884  1.0000
  S   S623      1.0  0.74283  0.13731  0.41817  1.0000
  H   H2823     1.0  0.75516  0.26520  0.60310  1.0000
  N   N156      1.0  0.74592  0.09758  0.51558  1.0000
  H   H2824     1.0  0.79288  0.18313  0.64485  1.0000
  H   H2825     1.0  0.74059  0.25130  0.42320  1.0000
  C   C2356     1.0  0.74593  0.07716  0.51561  1.0000
  H   H2826     1.0  0.75772  0.35157  0.31489  1.0000
  H   H2827     1.0  0.96581  0.15980  0.31494  1.0000
  H   H2828     1.0  0.74449  0.07556  0.50123  1.0000
  H   H2829     1.0  0.96392  0.21668  0.31460  1.0000
  C   C2357     1.0  0.98061  0.16104  0.31336  1.0000
  C   C2358     1.0  0.73962  0.99712  0.35344  1.0000
  H   H2830     1.0  0.73944  0.22734  0.58634  1.0000
  H   H2831     1.0  0.74003  0.25007  0.60212  1.0000
  H   H2832     1.0  0.73853  0.27374  0.58681  1.0000
  Fe  Fe313     1.0  0.85328  0.36625  0.71163  1.0000
  S   S624      1.0  0.83332  0.36053  0.74063  1.0000
  Fe  Fe314     1.0  0.85708  0.40556  0.71742  1.0000
  S   S625      1.0  0.83803  0.40217  0.74701  1.0000
  S   S626      1.0  0.86646  0.43415  0.70307  1.0000
  Fe  Fe315     1.0  0.85386  0.37125  0.75148  1.0000
  S   S627      1.0  0.86239  0.35688  0.78010  1.0000
  Fe  Fe316     1.0  0.81954  0.39199  0.73323  1.0000
  S   S628      1.0  0.78766  0.40388  0.73912  1.0000
  S   S629      1.0  0.87497  0.37520  0.72298  1.0000
  S   S630      1.0  0.83749  0.39702  0.70319  1.0000
  Fe  Fe317     1.0  0.95592  0.24241  0.81513  1.0000
  S   S631      1.0  0.94690  0.21985  0.84131  1.0000
  H   H2833     1.0  0.86539  0.07108  0.77164  1.0000
  Fe  Fe318     1.0  0.91623  0.25278  0.80416  1.0000
  S   S632      1.0  0.90383  0.23133  0.82915  1.0000
  S   S633      1.0  0.90002  0.26873  0.78063  1.0000
  Fe  Fe319     1.0  0.91893  0.24194  0.84627  1.0000
  S   S634      1.0  0.90222  0.25209  0.87380  1.0000
  Fe  Fe320     1.0  0.93241  0.21135  0.82184  1.0000
  S   S635      1.0  0.93526  0.18141  0.81702  1.0000
  S   S636      1.0  0.92926  0.26525  0.82152  1.0000
  S   S637      1.0  0.94356  0.23204  0.79548  1.0000
  Fe  Fe321     1.0  0.76227  0.23655  0.95105  1.0000
  C   C2359     1.0  0.95962  0.19627  0.75853  1.0000
  S   S638      1.0  0.98529  0.24927  0.79989  1.0000
  Fe  Fe322     1.0  0.80572  0.23343  0.93975  1.0000
  S   S639      1.0  0.80417  0.26217  0.94671  1.0000
  S   S640      1.0  0.83239  0.21363  0.92651  1.0000
  H   H2834     1.0  0.76503  0.41987  0.85008  1.0000
  Fe  Fe323     1.0  0.77918  0.27227  0.93151  1.0000
  S   S641      1.0  0.77645  0.30069  0.91022  1.0000
  H   H2835     1.0  0.81137  0.16128  0.91850  1.0000
  S   S642      1.0  0.78223  0.24431  0.92255  1.0000
  Fe  Fe324     1.0  0.90032  0.12554  0.72382  1.0000
  S   S643      1.0  0.87444  0.11111  0.73133  1.0000
  Fe  Fe325     1.0  0.90890  0.16163  0.73138  1.0000
  S   S644      1.0  0.93832  0.15825  0.71217  1.0000
  S   S645      1.0  0.89827  0.18750  0.74557  1.0000
  Fe  Fe326     1.0  0.92415  0.15054  0.69211  1.0000
  S   S646      1.0  0.89429  0.15719  0.70979  1.0000
  S   S647      1.0  0.91246  0.13063  0.74714  1.0000
  H   H2836     1.0  0.81340  0.17126  0.67495  1.0000
  H   H2837     1.0  0.75591  0.31413  0.75027  1.0000
  C   C2360     1.0  0.91834  0.34561  0.75209  1.0000
  H   H2838     1.0  0.98112  0.13948  0.70450  1.0000
  Fe  Fe327     1.0  0.83439  0.03624  0.70196  1.0000
  S   S648      1.0  0.80586  0.05295  0.71528  1.0000
  S   S649      1.0  0.86120  0.04950  0.69054  1.0000
  S   S650      1.0  0.78952  0.01270  0.72362  1.0000
  Fe  Fe328     1.0  0.79310  0.03840  0.69940  1.0000
  S   S651      1.0  0.76608  0.05329  0.68794  1.0000
  Fe  Fe329     1.0  0.80459  0.02589  0.73832  1.0000
  C   C2361     1.0  0.81620  0.11433  0.67337  1.0000
  S   S652      1.0  0.82175  0.02371  0.68374  1.0000
  H   H2839     1.0  0.92088  0.36807  0.72638  1.0000
  C   C2362     1.0  0.89785  0.19119  0.65862  1.0000
  C   C2363     1.0  0.80549  0.17254  0.96229  1.0000
  C   C2364     1.0  0.94772  0.34729  0.72788  1.0000
  H   H2840     1.0  0.85154  0.02836  0.74801  1.0000
  H   H2841     1.0  0.90708  0.04326  0.72937  1.0000
  N   N157      1.0  0.79819  0.16985  0.94611  1.0000
  C   C2365     1.0  0.97393  0.16234  0.76355  1.0000
  C   C2366     1.0  0.83724  0.13461  0.67603  1.0000
  H   H2842     1.0  0.97053  0.16087  0.77960  1.0000
  C   C2367     1.0  0.76286  0.14040  0.94411  1.0000
  C   C2368     1.0  0.78590  0.21315  0.64725  1.0000
  H   H2843     1.0  0.95437  0.27217  0.77697  1.0000
  N   N158      1.0  0.80305  0.46291  0.71799  1.0000
  H   H2844     1.0  0.83275  0.08044  0.77975  1.0000
  C   C2369     1.0  0.76919  0.03933  0.77316  1.0000
  C   C2370     1.0  0.76162  0.05022  0.75699  1.0000
  C   C2371     1.0  0.79806  0.47739  0.73047  1.0000
  H   H2845     1.0  0.77066  0.05127  0.74265  1.0000
  C   C2372     1.0  0.75323  0.41806  0.84403  1.0000
  C   C2373     1.0  0.87088  0.09532  0.71831  1.0000
  C   C2374     1.0  0.88579  0.08684  0.70475  1.0000
  C   C2375     1.0  0.88260  0.07297  0.69614  1.0000
  C   C2376     1.0  0.86454  0.06752  0.70102  1.0000
  C   C2377     1.0  0.84948  0.07665  0.71396  1.0000
  C   C2378     1.0  0.85265  0.09050  0.72252  1.0000
  H   H2846     1.0  0.89989  0.09049  0.70133  1.0000
  H   H2847     1.0  0.89428  0.06614  0.68595  1.0000
  H   H2848     1.0  0.83541  0.07303  0.71735  1.0000
  H   H2849     1.0  0.84100  0.09739  0.73264  1.0000
  C   C2379     1.0  0.92829  0.35492  0.73466  1.0000
  C   C2380     1.0  0.88813  0.21033  0.65249  1.0000
  C   C2381     1.0  0.75841  0.39893  0.77081  1.0000
  C   C2382     1.0  0.92362  0.18261  0.79827  1.0000
  C   C2383     1.0  0.91260  0.20020  0.79024  1.0000
  C   C2384     1.0  0.90449  0.20144  0.77437  1.0000
  C   C2385     1.0  0.90767  0.18520  0.76617  1.0000
  C   C2386     1.0  0.91872  0.16760  0.77416  1.0000
  C   C2387     1.0  0.92649  0.16625  0.79033  1.0000
  H   H2850     1.0  0.91031  0.21293  0.79617  1.0000
  H   H2851     1.0  0.89588  0.21507  0.76838  1.0000
  H   H2852     1.0  0.92131  0.15501  0.76792  1.0000
  H   H2853     1.0  0.93500  0.15261  0.79645  1.0000
  H   H2854     1.0  0.97231  0.32521  0.73235  1.0000
  H   H2855     1.0  0.90320  0.35162  0.75732  1.0000
  H   H2856     1.0  0.80586  0.06137  0.76996  1.0000
  H   H2857     1.0  0.73931  0.28973  0.92860  1.0000
  C   C2388     1.0  0.77839  0.39549  0.76367  1.0000
  H   H2858     1.0  0.91934  0.32189  0.77613  1.0000
  H   H2859     1.0  0.93185  0.28900  0.77682  1.0000
  C   C2389     1.0  0.88260  0.24142  0.88780  1.0000
  C   C2390     1.0  0.88071  0.22338  0.88597  1.0000
  C   C2391     1.0  0.86521  0.21499  0.89784  1.0000
  C   C2392     1.0  0.85132  0.22477  0.91130  1.0000
  C   C2393     1.0  0.85296  0.24303  0.91272  1.0000
  C   C2394     1.0  0.86866  0.25122  0.90116  1.0000
  H   H2860     1.0  0.89146  0.21566  0.87578  1.0000
  H   H2861     1.0  0.86409  0.20083  0.89668  1.0000
  H   H2862     1.0  0.84251  0.25060  0.92316  1.0000
  H   H2863     1.0  0.87010  0.26514  0.90270  1.0000
  H   H2864     1.0  0.80638  0.38202  0.77066  1.0000
  C   C2395     1.0  0.86628  0.45073  0.71713  1.0000
  C   C2396     1.0  0.86845  0.46973  0.70783  1.0000
  C   C2397     1.0  0.89291  0.04464  0.73887  1.0000
  H   H2865     1.0  0.80430  0.43850  0.74197  1.0000
  C   C2398     1.0  0.86250  0.45928  0.74822  1.0000
  C   C2399     1.0  0.86334  0.44555  0.73738  1.0000
  C   C2400     1.0  0.98165  0.18318  0.73226  1.0000
  S   S653      1.0  0.83407  0.01000  0.72636  1.0000
  H   H2866     1.0  0.86033  0.45512  0.76387  1.0000
  H   H2867     1.0  0.86191  0.43091  0.74470  1.0000
  C   C2401     1.0  0.87246  0.33228  0.78067  1.0000
  C   C2402     1.0  0.87196  0.32386  0.76567  1.0000
  C   C2403     1.0  0.88008  0.30421  0.76605  1.0000
  C   C2404     1.0  0.88926  0.29304  0.78109  1.0000
  C   C2405     1.0  0.88986  0.30143  0.79611  1.0000
  C   C2406     1.0  0.88130  0.32105  0.79598  1.0000
  H   H2868     1.0  0.86541  0.33248  0.75368  1.0000
  H   H2869     1.0  0.87928  0.29775  0.75456  1.0000
  H   H2870     1.0  0.89689  0.29285  0.80778  1.0000
  H   H2871     1.0  0.88177  0.32763  0.80755  1.0000
  S   S654      1.0  0.92968  0.11849  0.70466  1.0000
  C   C2407     1.0  0.84785  0.33210  0.68749  1.0000
  C   C2408     1.0  0.77622  0.15252  0.93855  1.0000
  S   S655      1.0  0.75712  0.26552  0.95844  1.0000
  H   H2872     1.0  0.74603  0.45401  0.85077  1.0000
  H   H2873     1.0  0.74174  0.41320  0.85642  1.0000
  H   H2874     1.0  0.98613  0.30712  0.75876  1.0000
  H   H2875     1.0  0.76110  0.31541  0.96056  1.0000
  N   N159      1.0  0.88414  0.23919  0.70104  1.0000
  C   C2409     1.0  0.87603  0.24987  0.68365  1.0000
  C   C2410     1.0  0.90036  0.22343  0.69500  1.0000
  C   C2411     1.0  0.86872  0.23038  0.71547  1.0000
  C   C2412     1.0  0.89101  0.25166  0.70987  1.0000
  C   C2413     1.0  0.88856  0.27213  0.70321  1.0000
  C   C2414     1.0  0.90003  0.24342  0.72604  1.0000
  C   C2415     1.0  0.89503  0.28347  0.71209  1.0000
  C   C2416     1.0  0.90646  0.25487  0.73479  1.0000
  C   C2417     1.0  0.90410  0.27482  0.72774  1.0000
  H   H2876     1.0  0.88689  0.25689  0.67212  1.0000
  H   H2877     1.0  0.87161  0.23999  0.67701  1.0000
  H   H2878     1.0  0.86286  0.26113  0.68722  1.0000
  H   H2879     1.0  0.91247  0.22945  0.68448  1.0000
  H   H2880     1.0  0.89576  0.21405  0.68788  1.0000
  H   H2881     1.0  0.90622  0.21345  0.70744  1.0000
  H   H2882     1.0  0.85636  0.24177  0.72053  1.0000
  H   H2883     1.0  0.86307  0.22097  0.70933  1.0000
  H   H2884     1.0  0.87398  0.22105  0.72852  1.0000
  H   H2885     1.0  0.88157  0.27981  0.69126  1.0000
  H   H2886     1.0  0.90194  0.22805  0.73222  1.0000
  H   H2887     1.0  0.89276  0.29912  0.70691  1.0000
  H   H2888     1.0  0.91297  0.24828  0.74737  1.0000
  H   H2889     1.0  0.90899  0.28363  0.73468  1.0000
  H   H2890     1.0  0.82635  0.17112  0.92754  1.0000
  C   C2418     1.0  0.74936  0.32912  0.89399  1.0000
  C   C2419     1.0  0.75264  0.31165  0.90742  1.0000
  H   H2891     1.0  0.98642  0.15056  0.75981  1.0000
  H   H2892     1.0  0.80495  0.45747  0.77435  1.0000
  C   C2420     1.0  0.84295  0.30709  0.67340  1.0000
  H   H2893     1.0  0.96314  0.29144  0.79674  1.0000
  H   H2894     1.0  0.74033  0.01249  0.78130  1.0000
  H   H2895     1.0  0.81903  0.45947  0.68919  1.0000
  C   C2421     1.0  0.78758  0.07851  0.66233  1.0000
  C   C2422     1.0  0.75332  0.08596  0.66231  1.0000
  H   H2896     1.0  0.77727  0.47228  0.70601  1.0000
  C   C2423     1.0  0.85513  0.04960  0.76249  1.0000
  C   C2424     1.0  0.76574  0.33273  0.76362  1.0000
  H   H2897     1.0  0.98578  0.24260  0.84114  1.0000
  H   H2898     1.0  0.88974  0.18017  0.66687  1.0000
  H   H2899     1.0  0.87086  0.31236  0.67295  1.0000
  C   C2425     1.0  0.81536  0.32852  0.68862  1.0000
  H   H2900     1.0  0.75914  0.40579  0.83632  1.0000
  H   H2901     1.0  0.82483  0.17913  0.68940  1.0000
  H   H2902     1.0  0.82219  0.14697  0.93851  1.0000
  H   H2903     1.0  0.76188  0.00609  0.76364  1.0000
  H   H2904     1.0  0.80541  0.14167  0.68120  1.0000
  H   H2905     1.0  0.94724  0.28452  0.75431  1.0000
  C   C2426     1.0  0.83163  0.03293  0.78634  1.0000
  C   C2427     1.0  0.82287  0.31284  0.67909  1.0000
  C   C2428     1.0  0.82206  0.16589  0.68651  1.0000
  H   H2906     1.0  0.77341  0.34559  0.95935  1.0000
  H   H2907     1.0  0.84377  0.13749  0.70936  1.0000
  Fe  Fe330     1.0  0.78215  0.25291  0.97326  1.0000
  C   C2429     1.0  0.75720  0.03790  0.79168  1.0000
  C   C2430     1.0  0.77266  0.43019  0.80275  1.0000
  H   H2908     1.0  0.75140  0.98770  0.78169  1.0000
  C   C2431     1.0  0.78812  0.43548  0.78810  1.0000
  C   C2432     1.0  0.76145  0.44268  0.81546  1.0000
  H   H2909     1.0  0.76823  0.35242  0.78047  1.0000
  C   C2433     1.0  0.94720  0.28631  0.76904  1.0000
  H   H2910     1.0  0.96115  0.21133  0.75105  1.0000
  H   H2911     1.0  0.87082  0.47383  0.69216  1.0000
  H   H2912     1.0  0.83031  0.47028  0.70108  1.0000
  S   S656      1.0  0.96810  0.11169  0.73907  1.0000
  C   C2434     1.0  0.85536  0.31673  0.67755  1.0000
  C   C2435     1.0  0.81522  0.16192  0.93209  1.0000
  C   C2436     1.0  0.74670  0.98757  0.74573  1.0000
  H   H2913     1.0  0.76962  0.41610  0.80418  1.0000
  H   H2914     1.0  0.95537  0.35462  0.71427  1.0000
  H   H2915     1.0  0.79659  0.42545  0.77883  1.0000
  S   S657      1.0  0.75457  0.37097  0.82699  1.0000
  N   N160      1.0  0.84762  0.27718  0.84436  1.0000
  C   C2437     1.0  0.86462  0.28287  0.84719  1.0000
  C   C2438     1.0  0.84306  0.26074  0.86054  1.0000
  C   C2439     1.0  0.85303  0.26987  0.82603  1.0000
  C   C2440     1.0  0.83143  0.29428  0.84323  1.0000
  C   C2441     1.0  0.83308  0.31060  0.82769  1.0000
  C   C2442     1.0  0.81383  0.29548  0.85736  1.0000
  C   C2443     1.0  0.81805  0.32693  0.82621  1.0000
  C   C2444     1.0  0.79883  0.31184  0.85567  1.0000
  C   C2445     1.0  0.80089  0.32751  0.84014  1.0000
  H   H2916     1.0  0.86158  0.28739  0.86135  1.0000
  H   H2917     1.0  0.87743  0.27063  0.84709  1.0000
  H   H2918     1.0  0.86908  0.29512  0.83567  1.0000
  H   H2919     1.0  0.84013  0.26470  0.87497  1.0000
  H   H2920     1.0  0.85544  0.24804  0.86071  1.0000
  H   H2921     1.0  0.83042  0.25561  0.85935  1.0000
  H   H2922     1.0  0.84032  0.26661  0.82270  1.0000
  H   H2923     1.0  0.85910  0.28035  0.81334  1.0000
  H   H2924     1.0  0.86445  0.25636  0.82675  1.0000
  H   H2925     1.0  0.84612  0.31097  0.81658  1.0000
  H   H2926     1.0  0.81126  0.28406  0.86997  1.0000
  H   H2927     1.0  0.81985  0.33926  0.81427  1.0000
  H   H2928     1.0  0.78554  0.31243  0.86663  1.0000
  H   H2929     1.0  0.78921  0.34019  0.83900  1.0000
  S   S658      1.0  0.79317  0.02630  0.77000  1.0000
  H   H2930     1.0  0.96144  0.15934  0.75947  1.0000
  H   H2931     1.0  0.78007  0.15867  0.92324  1.0000
  H   H2932     1.0  0.87250  0.21412  0.65608  1.0000
  H   H2933     1.0  0.84891  0.29525  0.66580  1.0000
  H   H2934     1.0  0.78461  0.18877  0.92305  1.0000
  C   C2446     1.0  0.78993  0.09502  0.64764  1.0000
  H   H2935     1.0  0.79995  0.06921  0.66784  1.0000
  H   H2936     1.0  0.74638  0.12308  0.96786  1.0000
  N   N161      1.0  0.97768  0.18190  0.75354  1.0000
  C   C2447     1.0  0.78192  0.46625  0.79754  1.0000
  H   H2937     1.0  0.81776  0.43315  0.71893  1.0000
  H   H2938     1.0  0.76300  0.02944  0.80423  1.0000
  C   C2448     1.0  0.76927  0.07394  0.66963  1.0000
  H   H2939     1.0  0.94718  0.19345  0.75423  1.0000
  H   H2940     1.0  0.79912  0.34006  0.77030  1.0000
  N   N162      1.0  0.84034  0.15225  0.68037  1.0000
  H   H2941     1.0  0.79880  0.19963  0.93188  1.0000
  C   C2449     1.0  0.76344  0.38061  0.80264  1.0000
  C   C2450     1.0  0.75094  0.39145  0.79029  1.0000
  H   H2942     1.0  0.81306  0.15851  0.96997  1.0000
  H   H2943     1.0  0.77456  0.35609  0.72899  1.0000
  H   H2944     1.0  0.76139  0.33565  0.88537  1.0000
  H   H2945     1.0  0.75554  0.20011  0.89668  1.0000
  H   H2946     1.0  0.89731  0.06649  0.75130  1.0000
  Fe  Fe331     1.0  0.94140  0.12684  0.72652  1.0000
  Fe  Fe332     1.0  0.81855  0.27905  0.65490  1.0000
  H   H2947     1.0  0.81305  0.15905  0.70008  1.0000
  H   H2948     1.0  0.82196  0.35039  0.69975  1.0000
  C   C2451     1.0  0.85331  0.11996  0.67038  1.0000
  S   S659      1.0  0.78583  0.22311  0.96784  1.0000
  H   H2949     1.0  0.82699  0.44590  0.73117  1.0000
  S   S660      1.0  0.93063  0.16232  0.66007  1.0000
  C   C2452     1.0  0.74789  0.00192  0.77179  1.0000
  H   H2950     1.0  0.86797  0.12127  0.66931  1.0000
  H   H2951     1.0  0.96161  0.31712  0.78776  1.0000
  C   C2453     1.0  0.92774  0.32862  0.76280  1.0000
  C   C2454     1.0  0.75680  0.13241  0.96362  1.0000
  C   C2455     1.0  0.82780  0.33812  0.69278  1.0000
  C   C2456     1.0  0.79091  0.38472  0.77603  1.0000
  C   C2457     1.0  0.94751  0.32041  0.75639  1.0000
  C   C2458     1.0  0.95729  0.33029  0.73850  1.0000
  H   H2952     1.0  0.81643  0.06666  0.79680  1.0000
  S   S661      1.0  0.86396  0.34330  0.69311  1.0000
  N   N163      1.0  0.95696  0.30219  0.76794  1.0000
  C   C2459     1.0  0.80565  0.30385  0.97212  1.0000
  H   H2953     1.0  0.96908  0.18116  0.72752  1.0000
  H   H2954     1.0  0.79359  0.17945  0.97293  1.0000
  S   S662      1.0  0.80734  0.21167  0.65495  1.0000
  C   C2460     1.0  0.98666  0.16126  0.81842  1.0000
  H   H2955     1.0  0.78211  0.36364  0.74684  1.0000
  H   H2956     1.0  0.76645  0.48036  0.73737  1.0000
  H   H2957     1.0  0.79319  0.36914  0.80506  1.0000
  H   H2958     1.0  0.79986  0.33338  0.69257  1.0000
  H   H2959     1.0  0.85374  0.17669  0.66534  1.0000
  H   H2960     1.0  0.77655  0.45204  0.72675  1.0000
  N   N164      1.0  0.78521  0.33263  0.75097  1.0000
  H   H2961     1.0  0.80810  0.32648  0.93469  1.0000
  C   C2461     1.0  0.78345  0.37737  0.79552  1.0000
  C   C2462     1.0  0.79558  0.31916  0.94063  1.0000
  C   C2463     1.0  0.85169  0.16295  0.66283  1.0000
  C   C2464     1.0  0.76390  0.13668  0.97769  1.0000
  C   C2465     1.0  0.98096  0.17197  0.83296  1.0000
  H   H2962     1.0  0.86610  0.13810  0.69213  1.0000
  C   C2466     1.0  0.79282  0.45346  0.78556  1.0000
  C   C2467     1.0  0.87985  0.03410  0.73801  1.0000
  C   C2468     1.0  0.79094  0.31819  0.73828  1.0000
  C   C2469     1.0  0.81585  0.46962  0.69926  1.0000
  H   H2963     1.0  0.84417  0.16697  0.65042  1.0000
  C   C2470     1.0  0.78459  0.33566  0.96720  1.0000
  H   H2964     1.0  0.98015  0.29265  0.74506  1.0000
  C   C2471     1.0  0.86454  0.47831  0.73894  1.0000
  C   C2472     1.0  0.78408  0.15691  0.95245  1.0000
  C   C2473     1.0  0.82397  0.29524  0.96198  1.0000
  C   C2474     1.0  0.97785  0.29594  0.75968  1.0000
  H   H2965     1.0  0.80183  0.11203  0.67450  1.0000
  H   H2966     1.0  0.79039  0.30325  0.74691  1.0000
  H   H2967     1.0  0.81507  0.32589  0.75399  1.0000
  H   H2968     1.0  0.75527  0.22203  0.91782  1.0000
  H   H2969     1.0  0.85201  0.27679  0.96399  1.0000
  C   C2475     1.0  0.85080  0.10313  0.66635  1.0000
  C   C2476     1.0  0.75561  0.10270  0.64790  1.0000
  C   C2477     1.0  0.85123  0.14663  0.69626  1.0000
  H   H2970     1.0  0.81613  0.18230  0.95694  1.0000
  H   H2971     1.0  0.81696  0.03426  0.79594  1.0000
  C   C2478     1.0  0.78545  0.35211  0.73833  1.0000
  C   C2479     1.0  0.78596  0.45886  0.71345  1.0000
  C   C2480     1.0  0.95536  0.30464  0.78795  1.0000
  C   C2481     1.0  0.78890  0.18924  0.93644  1.0000
  H   H2972     1.0  0.86641  0.15436  0.65820  1.0000
  C   C2482     1.0  0.86879  0.06024  0.76293  1.0000
  C   C2483     1.0  0.86127  0.03649  0.74963  1.0000
  H   H2973     1.0  0.79983  0.35292  0.72864  1.0000
  C   C2484     1.0  0.74716  0.19831  0.91139  1.0000
  C   C2485     1.0  0.91810  0.18622  0.65360  1.0000
  H   H2974     1.0  0.78350  0.32828  0.93354  1.0000
  N   N165      1.0  0.83523  0.05201  0.77441  1.0000
  H   H2975     1.0  0.82245  0.05019  0.75142  1.0000
  H   H2976     1.0  0.82294  0.07428  0.75259  1.0000
  H   H2977     1.0  0.84150  0.06037  0.79809  1.0000
  C   C2486     1.0  0.82106  0.05981  0.76154  1.0000
  C   C2487     1.0  0.83141  0.06546  0.78785  1.0000
  H   H2978     1.0  0.83205  0.02256  0.77731  1.0000
  H   H2979     1.0  0.84255  0.02607  0.79557  1.0000
  H   H2980     1.0  0.77668  0.29219  0.96598  1.0000
  H   H2981     1.0  0.83047  0.08686  0.66539  1.0000
  H   H2982     1.0  0.79920  0.30517  0.93571  1.0000
  C   C2488     1.0  0.74079  0.34458  0.79020  1.0000
  H   H2983     1.0  0.75689  0.13749  0.93320  1.0000
  C   C2489     1.0  0.88739  0.05767  0.75130  1.0000
  C   C2490     1.0  0.81346  0.44437  0.72799  1.0000
  C   C2491     1.0  0.80011  0.32811  0.76294  1.0000
  H   H2984     1.0  0.96578  0.17513  0.83995  1.0000
  H   H2985     1.0  0.85297  0.15949  0.70070  1.0000
  H   H2986     1.0  0.94014  0.30715  0.79613  1.0000
  N   N166      1.0  0.79006  0.31623  0.96215  1.0000
  C   C2492     1.0  0.83825  0.28348  0.97195  1.0000
  H   H2987     1.0  0.97999  0.20984  0.77321  1.0000
  H   H2988     1.0  0.77571  0.19548  0.94632  1.0000
  C   C2493     1.0  0.76642  0.46108  0.81225  1.0000
  C   C2494     1.0  0.75246  0.32264  0.76131  1.0000
  Fe  Fe333     1.0  0.81900  0.99877  0.70942  1.0000
  S   S663      1.0  0.83406  0.24856  0.66511  1.0000
  H   H2989     1.0  0.95534  0.19562  0.77446  1.0000
  C   C2495     1.0  0.74707  0.21066  0.92335  1.0000
  H   H2990     1.0  0.98458  0.28241  0.76888  1.0000
  H   H2991     1.0  0.78168  0.32175  0.72734  1.0000
  H   H2992     1.0  0.88387  0.02459  0.72771  1.0000
  H   H2993     1.0  0.79884  0.31468  0.77427  1.0000
  H   H2994     1.0  0.80602  0.31778  0.72968  1.0000
  S   S664      1.0  0.80680  0.30046  0.67505  1.0000
  H   H2995     1.0  0.79034  0.44821  0.70373  1.0000
  H   H2996     1.0  0.97592  0.15613  0.81430  1.0000
  C   C2496     1.0  0.77737  0.14873  0.97230  1.0000
  N   N167      1.0  0.74555  0.43635  0.83123  1.0000
  H   H2997     1.0  0.74859  0.00811  0.71751  1.0000
  H   H2998     1.0  0.74869  0.40715  0.76124  1.0000
  H   H2999     1.0  0.82760  0.29710  0.94637  1.0000
  C   C2497     1.0  0.81852  0.13136  0.67724  1.0000
  H   H3000     1.0  0.74340  0.02776  0.73931  1.0000
  C   C2498     1.0  0.77282  0.30722  0.96852  1.0000
  C   C2499     1.0  0.83230  0.10020  0.66806  1.0000
  H   H3001     1.0  0.98508  0.19748  0.72414  1.0000
  H   H3002     1.0  0.77451  0.24318  0.64873  1.0000
  C   C2500     1.0  0.75200  0.99323  0.72518  1.0000
  C   C2501     1.0  0.74210  0.05942  0.75922  1.0000
  H   H3003     1.0  0.75866  0.47177  0.82093  1.0000
  H   H3004     1.0  0.86325  0.09196  0.66238  1.0000
  Fe  Fe334     1.0  0.81800  0.23977  0.64725  1.0000
  H   H3005     1.0  0.82797  0.47858  0.72898  1.0000
  H   H3006     1.0  0.79740  0.34254  0.96344  1.0000
  H   H3007     1.0  0.78553  0.48029  0.79555  1.0000
  C   C2502     1.0  0.75921  0.34388  0.77829  1.0000
  H   H3008     1.0  0.73917  0.08238  0.66788  1.0000
  C   C2503     1.0  0.86748  0.48352  0.71869  1.0000
  H   H3009     1.0  0.76749  0.98450  0.69826  1.0000
  H   H3010     1.0  0.83115  0.58407  0.23885  1.0000
  S   S665      1.0  0.88964  0.78543  0.29786  1.0000
  H   H3011     1.0  0.80334  0.56241  0.20906  1.0000
  H   H3012     1.0  0.81618  0.52146  0.27202  1.0000
  C   C2504     1.0  0.75150  0.68966  0.04191  1.0000
  H   H3013     1.0  0.78564  0.94866  0.22268  1.0000
  S   S666      1.0  0.79185  0.59026  0.02036  1.0000
  H   H3014     1.0  0.75848  0.68924  0.13617  1.0000
  H   H3015     1.0  0.78649  0.52231  0.26106  1.0000
  H   H3016     1.0  0.82741  0.57623  0.19017  1.0000
  Fe  Fe335     1.0  0.91163  0.66696  0.23659  1.0000
  S   S667      1.0  0.92684  0.64772  0.25980  1.0000
  S   S668      1.0  0.90543  0.69885  0.23630  1.0000
  Fe  Fe336     1.0  0.90837  0.63315  0.22080  1.0000
  S   S669      1.0  0.90319  0.61794  0.19961  1.0000
  Fe  Fe337     1.0  0.90484  0.62985  0.26405  1.0000
  S   S670      1.0  0.88897  0.61832  0.29388  1.0000
  S   S671      1.0  0.88812  0.65016  0.24244  1.0000
  S   S672      1.0  0.93026  0.65223  0.21260  1.0000
  H   H3017     1.0  0.75698  0.62296  0.27190  1.0000
  C   C2505     1.0  0.75403  0.67015  0.10259  1.0000
  H   H3018     1.0  0.76289  0.82823  0.27839  1.0000
  H   H3019     1.0  0.83947  0.54100  0.25231  1.0000
  C   C2506     1.0  0.86277  0.59339  0.98176  1.0000
  Fe  Fe338     1.0  0.78291  0.61522  0.14229  1.0000
  S   S673      1.0  0.80364  0.63406  0.12453  1.0000
  C   C2507     1.0  0.87360  0.57679  0.03901  1.0000
  Fe  Fe339     1.0  0.81503  0.58059  0.15024  1.0000
  S   S674      1.0  0.83854  0.59663  0.13295  1.0000
  S   S675      1.0  0.82039  0.55129  0.16992  1.0000
  Fe  Fe340     1.0  0.82095  0.62095  0.14780  1.0000
  S   S676      1.0  0.82854  0.64086  0.16277  1.0000
  Fe  Fe341     1.0  0.81893  0.60817  0.11117  1.0000
  S   S677      1.0  0.82972  0.61374  0.07835  1.0000
  S   S678      1.0  0.79889  0.60407  0.16646  1.0000
  S   S679      1.0  0.79677  0.59015  0.12755  1.0000
  S   S680      1.0  0.75118  0.49208  0.27305  1.0000
  C   C2508     1.0  0.74704  0.54313  0.30037  1.0000
  N   N168      1.0  0.94085  0.67459  0.31151  1.0000
  H   H3020     1.0  0.75979  0.94011  0.21383  1.0000
  H   H3021     1.0  0.77115  0.84994  0.27653  1.0000
  H   H3022     1.0  0.82986  0.62355  0.26044  1.0000
  Fe  Fe342     1.0  0.78909  0.90005  0.28195  1.0000
  S   S681      1.0  0.97582  0.61968  0.22895  1.0000
  N   N169      1.0  0.77676  0.59857  0.26141  1.0000
  H   H3023     1.0  0.93973  0.59207  0.20881  1.0000
  C   C2509     1.0  0.76063  0.87118  0.22773  1.0000
  C   C2510     1.0  0.77334  0.51851  0.17481  1.0000
  C   C2511     1.0  0.78083  0.51716  0.19106  1.0000
  C   C2512     1.0  0.79564  0.52688  0.18936  1.0000
  C   C2513     1.0  0.80247  0.53853  0.17162  1.0000
  C   C2514     1.0  0.79485  0.53999  0.15543  1.0000
  C   C2515     1.0  0.78048  0.52978  0.15696  1.0000
  H   H3024     1.0  0.77548  0.50831  0.20482  1.0000
  H   H3025     1.0  0.80173  0.52547  0.20179  1.0000
  H   H3026     1.0  0.80044  0.54852  0.14157  1.0000
  H   H3027     1.0  0.77484  0.53070  0.14434  1.0000
  C   C2516     1.0  0.84922  0.63411  0.17315  1.0000
  C   C2517     1.0  0.85173  0.64594  0.18441  1.0000
  C   C2518     1.0  0.86804  0.64102  0.19292  1.0000
  C   C2519     1.0  0.88204  0.62432  0.19001  1.0000
  C   C2520     1.0  0.87949  0.61244  0.17880  1.0000
  C   C2521     1.0  0.86313  0.61730  0.17041  1.0000
  H   H3028     1.0  0.84107  0.65904  0.18650  1.0000
  H   H3029     1.0  0.86994  0.65031  0.20144  1.0000
  H   H3030     1.0  0.89034  0.59956  0.17640  1.0000
  H   H3031     1.0  0.86142  0.60822  0.16157  1.0000
  H   H3032     1.0  0.75003  0.64570  0.02850  1.0000
  C   C2522     1.0  0.76458  0.59701  0.24862  1.0000
  H   H3033     1.0  0.80287  0.71491  0.14698  1.0000
  C   C2523     1.0  0.84295  0.56983  0.98897  1.0000
  H   H3034     1.0  0.83237  0.55972  0.05923  1.0000
  H   H3035     1.0  0.85743  0.57070  0.06834  1.0000
  C   C2524     1.0  0.76304  0.95417  0.20675  1.0000
  N   N170      1.0  0.86058  0.57356  0.99273  1.0000
  C   C2525     1.0  0.87190  0.70786  0.31076  1.0000
  C   C2526     1.0  0.77809  0.95893  0.21199  1.0000
  C   C2527     1.0  0.86187  0.59144  0.27004  1.0000
  C   C2528     1.0  0.87389  0.60240  0.27250  1.0000
  C   C2529     1.0  0.87337  0.60505  0.29099  1.0000
  H   H3036     1.0  0.88655  0.58223  0.00897  1.0000
  C   C2530     1.0  0.85251  0.92338  0.29967  1.0000
  H   H3037     1.0  0.88367  0.60864  0.26003  1.0000
  C   C2531     1.0  0.80498  0.61226  0.26157  1.0000
  H   H3038     1.0  0.83972  0.59225  0.19422  1.0000
  C   C2532     1.0  0.95165  0.71580  0.25686  1.0000
  C   C2533     1.0  0.93338  0.72797  0.25699  1.0000
  C   C2534     1.0  0.91930  0.72286  0.25039  1.0000
  C   C2535     1.0  0.92329  0.70535  0.24409  1.0000
  C   C2536     1.0  0.94153  0.69316  0.24409  1.0000
  C   C2537     1.0  0.95577  0.69853  0.25015  1.0000
  H   H3039     1.0  0.93012  0.74145  0.26198  1.0000
  H   H3040     1.0  0.90528  0.73245  0.25024  1.0000
  H   H3041     1.0  0.94492  0.67987  0.23882  1.0000
  H   H3042     1.0  0.96996  0.68924  0.24969  1.0000
  S   S682      1.0  0.80635  0.87002  0.29005  1.0000
  H   H3043     1.0  0.85268  0.58720  0.22074  1.0000
  H   H3044     1.0  0.81575  0.59123  0.20788  1.0000
  C   C2538     1.0  0.80188  0.59783  0.03617  1.0000
  C   C2539     1.0  0.81609  0.60906  0.02918  1.0000
  C   C2540     1.0  0.82437  0.61398  0.04226  1.0000
  C   C2541     1.0  0.81834  0.60795  0.06243  1.0000
  C   C2542     1.0  0.80380  0.59713  0.06940  1.0000
  C   C2543     1.0  0.79572  0.59200  0.05632  1.0000
  H   H3045     1.0  0.82104  0.61357  0.01373  1.0000
  H   H3046     1.0  0.83569  0.62227  0.03674  1.0000
  H   H3047     1.0  0.79906  0.59233  0.08485  1.0000
  H   H3048     1.0  0.78475  0.58328  0.06186  1.0000
  C   C2544     1.0  0.87930  0.93420  0.30350  1.0000
  H   H3049     1.0  0.85304  0.56605  0.23926  1.0000
  C   C2545     1.0  0.82674  0.54201  0.24686  1.0000
  S   S683      1.0  0.92343  0.61152  0.24309  1.0000
  C   C2546     1.0  0.79678  0.53111  0.25218  1.0000
  C   C2547     1.0  0.84380  0.57636  0.22952  1.0000
  Fe  Fe343     1.0  0.94384  0.63167  0.23634  1.0000
  H   H3050     1.0  0.83302  0.56066  0.02569  1.0000
  H   H3051     1.0  0.85056  0.54674  0.19801  1.0000
  C   C2548     1.0  0.87447  0.57730  0.01948  1.0000
  H   H3052     1.0  0.77475  0.97320  0.27379  1.0000
  H   H3053     1.0  0.82806  0.97612  0.29667  1.0000
  S   S684      1.0  0.85776  0.87539  0.29588  1.0000
  H   H3054     1.0  0.77607  0.94737  0.28012  1.0000
  C   C2549     1.0  0.78421  0.74240  0.14207  1.0000
  H   H3055     1.0  0.76174  0.64965  0.05755  1.0000
  C   C2550     1.0  0.82343  0.55460  0.22903  1.0000
  C   C2551     1.0  0.80949  0.62869  0.22200  1.0000
  H   H3056     1.0  0.79130  0.74868  0.14959  1.0000
  C   C2552     1.0  0.80654  0.55424  0.22292  1.0000
  C   C2553     1.0  0.95952  0.61741  0.18172  1.0000
  H   H3057     1.0  0.86569  0.56256  0.19839  1.0000
  H   H3058     1.0  0.95532  0.59902  0.15640  1.0000
  H   H3059     1.0  0.78058  0.54275  0.22959  1.0000
  C   C2554     1.0  0.82965  0.58224  0.20181  1.0000
  H   H3060     1.0  0.74379  0.91657  0.23737  1.0000
  H   H3061     1.0  0.79734  0.57199  0.25852  1.0000
  C   C2555     1.0  0.77721  0.86594  0.23573  1.0000
  S   S685      1.0  0.77435  0.91333  0.25660  1.0000
  N   N171      1.0  0.78778  0.69378  0.12888  1.0000
  C   C2556     1.0  0.79068  0.69232  0.10831  1.0000
  C   C2557     1.0  0.80618  0.68388  0.13540  1.0000
  H   H3062     1.0  0.76335  0.76886  0.13553  1.0000
  C   C2558     1.0  0.78158  0.71437  0.13069  1.0000
  C   C2559     1.0  0.79073  0.72294  0.14042  1.0000
  C   C2560     1.0  0.76543  0.72636  0.12314  1.0000
  C   C2561     1.0  0.76372  0.60763  0.27741  1.0000
  H   H3063     1.0  0.88422  0.89653  0.30767  1.0000
  C   C2562     1.0  0.76715  0.96155  0.28318  1.0000
  C   C2563     1.0  0.86454  0.81994  0.29010  1.0000
  H   H3064     1.0  0.95343  0.68619  0.19700  1.0000
  H   H3065     1.0  0.78513  0.61803  0.22215  1.0000
  Fe  Fe344     1.0  0.81480  0.55934  0.31064  1.0000
  H   H3066     1.0  0.96193  0.59178  0.21470  1.0000
  H   H3067     1.0  0.75618  0.94783  0.16523  1.0000
  H   H3068     1.0  0.75821  0.95273  0.25366  1.0000
  C   C2564     1.0  0.75282  0.96726  0.19281  1.0000
  C   C2565     1.0  0.98250  0.67332  0.20108  1.0000
  H   H3069     1.0  0.84488  0.93843  0.29451  1.0000
  C   C2566     1.0  0.89230  0.82151  0.30147  1.0000
  H   H3070     1.0  0.80198  0.64991  0.01483  1.0000
  C   C2567     1.0  0.75924  0.74580  0.12465  1.0000
  C   C2568     1.0  0.74323  0.95983  0.16666  1.0000
  H   H3071     1.0  0.75659  0.97828  0.24978  1.0000
  H   H3072     1.0  0.81134  0.63515  0.20659  1.0000
  C   C2569     1.0  0.74525  0.64869  0.13343  1.0000
  C   C2570     1.0  0.84487  0.56502  0.02860  1.0000
  H   H3073     1.0  0.96808  0.64804  0.25307  1.0000
  Fe  Fe345     1.0  0.79567  0.60242  0.98790  1.0000
  H   H3074     1.0  0.76885  0.64056  0.11037  1.0000
  Fe  Fe346     1.0  0.92000  0.77102  0.30191  1.0000
  C   C2571     1.0  0.84430  0.56435  0.04809  1.0000
  C   C2572     1.0  0.78605  0.57856  0.26970  1.0000
  H   H3075     1.0  0.77140  0.60763  0.28874  1.0000
  H   H3076     1.0  0.86256  0.58931  0.25572  1.0000
  C   C2573     1.0  0.84910  0.58327  0.28604  1.0000
  H   H3077     1.0  0.78280  0.66036  0.05248  1.0000
  H   H3078     1.0  0.88455  0.58159  0.04314  1.0000
  C   C2574     1.0  0.79105  0.66376  0.01442  1.0000
  H   H3079     1.0  0.79626  0.67707  0.10632  1.0000
  H   H3080     1.0  0.76970  0.83255  0.29874  1.0000
  N   N172      1.0  0.83752  0.56671  0.21718  1.0000
  C   C2575     1.0  0.79189  0.60999  0.25130  1.0000
  C   C2576     1.0  0.87449  0.67029  0.30621  1.0000
  C   C2577     1.0  0.74000  0.53056  0.27566  1.0000
  C   C2578     1.0  0.85468  0.55408  0.20760  1.0000
  H   H3081     1.0  0.77705  0.69725  0.10278  1.0000
  Fe  Fe347     1.0  0.82529  0.88455  0.29902  1.0000
  C   C2579     1.0  0.79445  0.61873  0.23118  1.0000
  C   C2580     1.0  0.98352  0.64289  0.24928  1.0000
  H   H3082     1.0  0.82971  0.57991  0.99483  1.0000
  H   H3083     1.0  0.79693  0.67428  0.01879  1.0000
  N   N173      1.0  0.77218  0.66088  0.02719  1.0000
  C   C2581     1.0  0.88198  0.81069  0.29611  1.0000
  H   H3084     1.0  0.85669  0.81177  0.28554  1.0000
  C   C2582     1.0  0.81990  0.62227  0.25227  1.0000
  H   H3085     1.0  0.87578  0.65616  0.30330  1.0000
  H   H3086     1.0  0.75729  0.72079  0.11615  1.0000
  C   C2583     1.0  0.75578  0.50865  0.30074  1.0000
  C   C2584     1.0  0.96665  0.68862  0.19923  1.0000
  S   S686      1.0  0.83437  0.56942  0.28261  1.0000
  C   C2585     1.0  0.86042  0.59707  0.30702  1.0000
  H   H3087     1.0  0.98153  0.65891  0.20035  1.0000
  S   S687      1.0  0.92623  0.73854  0.30618  1.0000
  H   H3088     1.0  0.76368  0.67282  0.08863  1.0000
  H   H3089     1.0  0.88890  0.92806  0.29098  1.0000
  H   H3090     1.0  0.95920  0.57126  0.20707  1.0000
  H   H3091     1.0  0.78987  0.66952  0.99895  1.0000
  C   C2586     1.0  0.95130  0.59206  0.17197  1.0000
  C   C2587     1.0  0.81351  0.53060  0.25827  1.0000
  C   C2588     1.0  0.79337  0.54282  0.23451  1.0000
  H   H3092     1.0  0.86181  0.54255  0.21836  1.0000
  C   C2589     1.0  0.85985  0.57192  0.01360  1.0000
  H   H3093     1.0  0.74001  0.59341  0.14590  1.0000
  H   H3094     1.0  0.81360  0.48691  0.20554  1.0000
  H   H3095     1.0  0.78640  0.85170  0.23550  1.0000
  N   N174      1.0  0.96302  0.59605  0.18388  1.0000
  H   H3096     1.0  0.74989  0.87586  0.29380  1.0000
  C   C2590     1.0  0.77254  0.68313  0.14082  1.0000
  C   C2591     1.0  0.98404  0.58823  0.17828  1.0000
  H   H3097     1.0  0.92822  0.64838  0.29920  1.0000
  H   H3098     1.0  0.86165  0.91762  0.28675  1.0000
  H   H3099     1.0  0.75186  0.59966  0.28509  1.0000
  H   H3100     1.0  0.77429  0.63218  0.02248  1.0000
  H   H3101     1.0  0.77642  0.66755  0.13985  1.0000
  H   H3102     1.0  0.98361  0.72408  0.20742  1.0000
  H   H3103     1.0  0.80402  0.60597  0.27688  1.0000
  S   S688      1.0  0.96908  0.72138  0.26606  1.0000
  C   C2592     1.0  0.76851  0.75381  0.13417  1.0000
  H   H3104     1.0  0.95475  0.71850  0.20068  1.0000
  C   C2593     1.0  0.87990  0.68461  0.29015  1.0000
  S   S689      1.0  0.94784  0.77388  0.28027  1.0000
  C   C2594     1.0  0.74936  0.96614  0.25850  1.0000
  H   H3105     1.0  0.95276  0.57620  0.17340  1.0000
  H   H3106     1.0  0.75687  0.68308  0.99586  1.0000
  C   C2595     1.0  0.73897  0.68504  0.10854  1.0000
  H   H3107     1.0  0.79316  0.57807  0.28159  1.0000
  H   H3108     1.0  0.88271  0.71436  0.27981  1.0000
  H   H3109     1.0  0.76997  0.68379  0.15640  1.0000
  H   H3110     1.0  0.84380  0.84667  0.28512  1.0000
  C   C2596     1.0  0.75713  0.65198  0.11501  1.0000
  H   H3111     1.0  0.76713  0.96177  0.29836  1.0000
  H   H3112     1.0  0.92179  0.68160  0.29116  1.0000
  H   H3113     1.0  0.93558  0.59805  0.17664  1.0000
  C   C2597     1.0  0.85844  0.57049  0.05327  1.0000
  C   C2598     1.0  0.75836  0.67982  0.02613  1.0000
  C   C2599     1.0  0.76956  0.89710  0.24520  1.0000
  S   S690      1.0  0.75101  0.62699  0.14993  1.0000
  H   H3114     1.0  0.88502  0.68120  0.27578  1.0000
  H   H3115     1.0  0.74701  0.75467  0.11855  1.0000
  H   H3116     1.0  0.78519  0.63711  0.04766  1.0000
  H   H3117     1.0  0.79434  0.87465  0.25084  1.0000
  C   C2600     1.0  0.74890  0.88968  0.22787  1.0000
  H   H3118     1.0  0.80471  0.68253  0.15127  1.0000
  H   H3119     1.0  0.93016  0.70160  0.29327  1.0000
  C   C2601     1.0  0.87857  0.70335  0.29239  1.0000
  H   H3120     1.0  0.84109  0.55467  0.99545  1.0000
  H   H3121     1.0  0.81818  0.69150  0.12735  1.0000
  C   C2602     1.0  0.86720  0.85056  0.29558  1.0000
  C   C2603     1.0  0.76496  0.64699  0.02044  1.0000
  H   H3122     1.0  0.79753  0.49077  0.28683  1.0000
  C   C2604     1.0  0.77553  0.65171  0.04711  1.0000
  Fe  Fe348     1.0  0.95502  0.74135  0.28699  1.0000
  H   H3123     1.0  0.81098  0.66876  0.13296  1.0000
  S   S691      1.0  0.75381  0.85392  0.21927  1.0000
  C   C2605     1.0  0.78160  0.87883  0.24458  1.0000
  Fe  Fe349     1.0  0.96002  0.77117  0.30652  1.0000
  C   C2606     1.0  0.75332  0.90258  0.23666  1.0000
  S   S692      1.0  0.80967  0.91486  0.28801  1.0000
  H   H3124     1.0  0.83386  0.63807  0.22539  1.0000
  C   C2607     1.0  0.84819  0.58626  0.30452  1.0000
  C   C2608     1.0  0.73911  0.54625  0.28398  1.0000
  H   H3125     1.0  0.80115  0.70119  0.09868  1.0000
  H   H3126     1.0  0.75654  0.61152  0.24238  1.0000
  H   H3127     1.0  0.75345  0.58824  0.25681  1.0000
  C   C2609     1.0  0.85713  0.83974  0.28995  1.0000
  H   H3128     1.0  0.77548  0.56886  0.27594  1.0000
  S   S693      1.0  0.75483  0.50646  0.17671  1.0000
  S   S694      1.0  0.80000  0.53641  0.30986  1.0000
  H   H3129     1.0  0.74508  0.57089  0.18561  1.0000
  C   C2610     1.0  0.82220  0.63040  0.23252  1.0000
  C   C2611     1.0  0.76228  0.83958  0.28638  1.0000
  H   H3130     1.0  0.84142  0.91430  0.30601  1.0000
  C   C2612     1.0  0.75535  0.52432  0.30873  1.0000
  H   H3131     1.0  0.98354  0.57594  0.15385  1.0000
  C   C2613     1.0  0.75189  0.68938  0.00863  1.0000
  C   C2614     1.0  0.74856  0.51176  0.28393  1.0000
  H   H3132     1.0  0.76145  0.49412  0.30785  1.0000
  H   H3133     1.0  0.94376  0.62388  0.18514  1.0000
  H   H3134     1.0  0.75010  0.56827  0.15069  1.0000
  C   C2615     1.0  0.95573  0.58738  0.20446  1.0000
  H   H3135     1.0  0.96470  0.68142  0.28811  1.0000
  H   H3136     1.0  0.75565  0.68376  0.05578  1.0000
  H   H3137     1.0  0.87284  0.94949  0.29743  1.0000
  N   N175      1.0  0.74203  0.84952  0.29282  1.0000
  C   C2616     1.0  0.95803  0.66882  0.29652  1.0000
  C   C2617     1.0  0.88495  0.84146  0.30109  1.0000
  H   H3138     1.0  0.74713  0.97311  0.15636  1.0000
  S   S695      1.0  0.98040  0.79028  0.30494  1.0000
  H   H3139     1.0  0.85168  0.60463  0.98863  1.0000
  H   H3140     1.0  0.79486  0.98054  0.20792  1.0000
  C   C2618     1.0  0.78339  0.97677  0.20360  1.0000
  H   H3141     1.0  0.80995  0.94987  0.30217  1.0000
  S   S696      1.0  0.76951  0.89929  0.31128  1.0000
  H   H3142     1.0  0.95441  0.66277  0.28565  1.0000
  C   C2619     1.0  0.87738  0.55935  0.98486  1.0000
  C   C2620     1.0  0.92554  0.68792  0.30173  1.0000
  S   S697      1.0  0.74735  0.56276  0.30993  1.0000
  H   H3143     1.0  0.77340  0.58962  0.23664  1.0000
  H   H3144     1.0  0.87720  0.59630  0.98084  1.0000
  H   H3145     1.0  0.87633  0.54425  0.99274  1.0000
  H   H3146     1.0  0.89132  0.56191  0.98611  1.0000
  H   H3147     1.0  0.90583  0.81451  0.30601  1.0000
  H   H3148     1.0  0.74177  0.93163  0.19805  1.0000
  S   S698      1.0  0.96943  0.73883  0.31145  1.0000
  H   H3149     1.0  0.76488  0.65121  0.00466  1.0000
  H   H3150     1.0  0.96937  0.65767  0.30317  1.0000
  H   H3151     1.0  0.87094  0.72247  0.31246  1.0000
  H   H3152     1.0  0.84192  0.48877  0.21703  1.0000
  C   C2621     1.0  0.81688  0.97384  0.30955  1.0000
  C   C2622     1.0  0.74217  0.86438  0.30339  1.0000
  H   H3153     1.0  0.89294  0.84976  0.30530  1.0000
  C   C2623     1.0  0.96747  0.70688  0.20118  1.0000
  N   N176      1.0  0.74740  0.96436  0.27965  1.0000
  H   H3154     1.0  0.96548  0.62449  0.16665  1.0000
  H   H3155     1.0  0.96620  0.62164  0.19170  1.0000
  C   C2624     1.0  0.98417  0.70995  0.20491  1.0000
  H   H3156     1.0  0.74223  0.87135  0.26649  1.0000
  C   C2625     1.0  0.73911  0.70741  0.00714  1.0000
  C   C2626     1.0  0.73893  0.70782  0.04016  1.0000
  H   H3157     1.0  0.91211  0.69194  0.31250  1.0000
  S   S699      1.0  0.75307  0.74732  0.57086  1.0000
  S   S700      1.0  0.79488  0.85276  0.61657  1.0000
  H   H3158     1.0  0.77042  0.73967  0.53220  1.0000
  Fe  Fe350     1.0  0.83434  0.68131  0.60577  1.0000
  S   S701      1.0  0.84414  0.70593  0.58289  1.0000
  S   S702      1.0  0.80447  0.68519  0.62449  1.0000
  Fe  Fe351     1.0  0.87308  0.65458  0.59805  1.0000
  S   S703      1.0  0.88603  0.67684  0.57400  1.0000
  S   S704      1.0  0.89132  0.62617  0.60993  1.0000
  Fe  Fe352     1.0  0.87136  0.69712  0.59445  1.0000
  S   S705      1.0  0.88581  0.71956  0.59817  1.0000
  Fe  Fe353     1.0  0.85762  0.68352  0.56436  1.0000
  S   S706      1.0  0.85193  0.69428  0.53365  1.0000
  S   S707      1.0  0.86032  0.67446  0.61903  1.0000
  S   S708      1.0  0.84590  0.65934  0.58678  1.0000
  H   H3159     1.0  0.77785  0.68762  0.56356  1.0000
  C   C2627     1.0  0.81922  0.73374  0.61870  1.0000
  H   H3160     1.0  0.87971  0.69365  0.63596  1.0000
  C   C2628     1.0  0.75115  0.73359  0.41080  1.0000
  H   H3161     1.0  0.94418  0.72210  0.41463  1.0000
  H   H3162     1.0  0.78137  0.80891  0.57734  1.0000
  H   H3163     1.0  0.81234  0.91970  0.36705  1.0000
  H   H3164     1.0  0.84325  0.76503  0.33103  1.0000
  C   C2629     1.0  0.79809  0.98286  0.33963  1.0000
  S   S709      1.0  0.77960  0.93702  0.33421  1.0000
  S   S710      1.0  0.74044  0.75288  0.39443  1.0000
  H   H3165     1.0  0.86374  0.89242  0.32613  1.0000
  C   C2630     1.0  0.75832  0.69885  0.54390  1.0000
  H   H3166     1.0  0.97016  0.77662  0.38443  1.0000
  H   H3167     1.0  0.95846  0.67668  0.33031  1.0000
  C   C2631     1.0  0.80091  0.72869  0.49093  1.0000
  S   S711      1.0  0.80844  0.88338  0.32961  1.0000
  S   S712      1.0  0.77636  0.54039  0.35408  1.0000
  Fe  Fe354     1.0  0.84823  0.65429  0.44477  1.0000
  S   S713      1.0  0.83052  0.68416  0.43683  1.0000
  S   S714      1.0  0.86285  0.64379  0.47065  1.0000
  Fe  Fe355     1.0  0.83832  0.63938  0.41326  1.0000
  S   S715      1.0  0.81916  0.66778  0.40373  1.0000
  S   S716      1.0  0.84684  0.61708  0.39419  1.0000
  Fe  Fe356     1.0  0.84272  0.68107  0.40594  1.0000
  S   S717      1.0  0.84923  0.70566  0.38099  1.0000
  Fe  Fe357     1.0  0.80861  0.66835  0.43540  1.0000
  S   S718      1.0  0.77804  0.67927  0.45004  1.0000
  S   S719      1.0  0.86276  0.65263  0.41373  1.0000
  S   S720      1.0  0.82544  0.63843  0.44507  1.0000
  C   C2632     1.0  0.74705  0.82939  0.63755  1.0000
  H   H3168     1.0  0.82866  0.81860  0.35071  1.0000
  H   H3169     1.0  0.98716  0.75639  0.33589  1.0000
  S   S721      1.0  0.93148  0.77107  0.32764  1.0000
  C   C2633     1.0  0.83868  0.75814  0.60802  1.0000
  N   N177      1.0  0.75442  0.75159  0.47147  1.0000
  H   H3170     1.0  0.84130  0.49488  0.39367  1.0000
  Fe  Fe358     1.0  0.93987  0.73880  0.33019  1.0000
  S   S722      1.0  0.93555  0.71709  0.35824  1.0000
  C   C2634     1.0  0.88726  0.59623  0.64151  1.0000
  C   C2635     1.0  0.73974  0.73928  0.47768  1.0000
  C   C2636     1.0  0.79908  0.52800  0.39502  1.0000
  C   C2637     1.0  0.92602  0.63453  0.35456  1.0000
  H   H3171     1.0  0.87962  0.63434  0.33221  1.0000
  Fe  Fe359     1.0  0.79334  0.56311  0.35163  1.0000
  S   S723      1.0  0.78626  0.57853  0.37674  1.0000
  H   H3172     1.0  0.79405  0.73381  0.46335  1.0000
  S   S724      1.0  0.81774  0.49197  0.34891  1.0000
  C   C2638     1.0  0.84898  0.55894  0.40435  1.0000
  C   C2639     1.0  0.86422  0.64012  0.33832  1.0000
  H   H3173     1.0  0.81731  0.81572  0.33258  1.0000
  C   C2640     1.0  0.86145  0.78489  0.64094  1.0000
  H   H3174     1.0  0.79604  0.68450  0.47979  1.0000
  H   H3175     1.0  0.74052  0.70462  0.45538  1.0000
  H   H3176     1.0  0.74811  0.82674  0.32785  1.0000
  H   H3177     1.0  0.83538  0.83319  0.61137  1.0000
  C   C2641     1.0  0.77512  0.68742  0.54966  1.0000
  H   H3178     1.0  0.77833  0.72910  0.39052  1.0000
  H   H3179     1.0  0.89790  0.76163  0.63219  1.0000
  C   C2642     1.0  0.82930  0.60810  0.38828  1.0000
  C   C2643     1.0  0.81027  0.61015  0.39894  1.0000
  C   C2644     1.0  0.79713  0.60126  0.39502  1.0000
  C   C2645     1.0  0.80283  0.59052  0.38027  1.0000
  C   C2646     1.0  0.82168  0.58902  0.36918  1.0000
  C   C2647     1.0  0.83488  0.59774  0.37323  1.0000
  H   H3180     1.0  0.80587  0.61803  0.41061  1.0000
  H   H3181     1.0  0.78257  0.60244  0.40365  1.0000
  H   H3182     1.0  0.82624  0.58075  0.35782  1.0000
  H   H3183     1.0  0.84961  0.59597  0.36499  1.0000
  C   C2648     1.0  0.87323  0.70869  0.37515  1.0000
  C   C2649     1.0  0.88689  0.69673  0.38577  1.0000
  C   C2650     1.0  0.90606  0.69939  0.38062  1.0000
  C   C2651     1.0  0.91150  0.71411  0.36500  1.0000
  C   C2652     1.0  0.89773  0.72621  0.35461  1.0000
  C   C2653     1.0  0.87871  0.72334  0.35951  1.0000
  H   H3184     1.0  0.88270  0.68552  0.39799  1.0000
  H   H3185     1.0  0.91664  0.69005  0.38877  1.0000
  H   H3186     1.0  0.90164  0.73794  0.34290  1.0000
  H   H3187     1.0  0.86827  0.73250  0.35115  1.0000
  C   C2654     1.0  0.86641  0.69366  0.32692  1.0000
  H   H3188     1.0  0.80253  0.53770  0.38066  1.0000
  C   C2655     1.0  0.77868  0.70789  0.41725  1.0000
  C   C2656     1.0  0.74230  0.82751  0.62079  1.0000
  C   C2657     1.0  0.79365  0.79928  0.58378  1.0000
  H   H3189     1.0  0.94773  0.62445  0.62275  1.0000
  H   H3190     1.0  0.81606  0.81233  0.63705  1.0000
  C   C2658     1.0  0.74892  0.71022  0.44141  1.0000
  C   C2659     1.0  0.93363  0.65712  0.32347  1.0000
  H   H3191     1.0  0.79350  0.70095  0.41264  1.0000
  S   S725      1.0  0.78010  0.84228  0.33664  1.0000
  C   C2660     1.0  0.97803  0.76281  0.39100  1.0000
  H   H3192     1.0  0.84835  0.78700  0.31523  1.0000
  C   C2661     1.0  0.94664  0.68565  0.32285  1.0000
  C   C2662     1.0  0.79245  0.95577  0.32946  1.0000
  C   C2663     1.0  0.78810  0.96786  0.34283  1.0000
  H   H3193     1.0  0.83163  0.66825  0.33999  1.0000
  C   C2664     1.0  0.87790  0.61291  0.63022  1.0000
  C   C2665     1.0  0.78937  0.77150  0.57478  1.0000
  H   H3194     1.0  0.85458  0.52248  0.38144  1.0000
  H   H3195     1.0  0.74174  0.70774  0.52157  1.0000
  C   C2666     1.0  0.85619  0.67997  0.51610  1.0000
  C   C2667     1.0  0.86335  0.65992  0.51998  1.0000
  C   C2668     1.0  0.86582  0.64909  0.50571  1.0000
  C   C2669     1.0  0.86093  0.65814  0.48759  1.0000
  C   C2670     1.0  0.85411  0.67823  0.48362  1.0000
  C   C2671     1.0  0.85179  0.68906  0.49781  1.0000
  H   H3196     1.0  0.86691  0.65278  0.53397  1.0000
  H   H3197     1.0  0.87127  0.63357  0.50884  1.0000
  H   H3198     1.0  0.85068  0.68542  0.46961  1.0000
  H   H3199     1.0  0.84664  0.70461  0.49462  1.0000
  H   H3200     1.0  0.77891  0.84559  0.58734  1.0000
  C   C2672     1.0  0.83029  0.55899  0.41527  1.0000
  H   H3201     1.0  0.86116  0.69790  0.34084  1.0000
  C   C2673     1.0  0.89647  0.71467  0.61843  1.0000
  C   C2674     1.0  0.91044  0.72495  0.61792  1.0000
  H   H3202     1.0  0.81590  0.72226  0.48576  1.0000
  C   C2675     1.0  0.80613  0.76599  0.60084  1.0000
  C   C2676     1.0  0.83070  0.81110  0.33860  1.0000
  H   H3203     1.0  0.85669  0.56966  0.40479  1.0000
  H   H3204     1.0  0.91485  0.73536  0.60494  1.0000
  H   H3205     1.0  0.81900  0.49325  0.38901  1.0000
  C   C2677     1.0  0.81999  0.54564  0.41433  1.0000
  H   H3206     1.0  0.80536  0.54663  0.42272  1.0000
  H   H3207     1.0  0.75981  0.79093  0.59906  1.0000
  C   C2678     1.0  0.76317  0.83705  0.63629  1.0000
  C   C2679     1.0  0.76587  0.72877  0.58621  1.0000
  C   C2680     1.0  0.78338  0.71792  0.57792  1.0000
  C   C2681     1.0  0.79483  0.70401  0.58973  1.0000
  C   C2682     1.0  0.78887  0.70093  0.60991  1.0000
  C   C2683     1.0  0.77103  0.71133  0.61828  1.0000
  C   C2684     1.0  0.75956  0.72539  0.60640  1.0000
  H   H3208     1.0  0.78837  0.72056  0.56232  1.0000
  H   H3209     1.0  0.80837  0.69574  0.58316  1.0000
  H   H3210     1.0  0.84812  0.72898  0.62317  1.0000
  H   H3211     1.0  0.96269  0.74200  0.36276  1.0000
  H   H3212     1.0  0.81762  0.71898  0.62558  1.0000
  H   H3213     1.0  0.93031  0.72876  0.39605  1.0000
  C   C2685     1.0  0.77014  0.84085  0.60139  1.0000
  C   C2686     1.0  0.77476  0.84286  0.61823  1.0000
  C   C2687     1.0  0.82822  0.53166  0.40245  1.0000
  H   H3214     1.0  0.74666  0.72370  0.47817  1.0000
  C   C2688     1.0  0.74575  0.86087  0.35658  1.0000
  C   C2689     1.0  0.76792  0.70059  0.43531  1.0000
  C   C2690     1.0  0.93190  0.63049  0.62471  1.0000
  C   C2691     1.0  0.85256  0.94724  0.33607  1.0000
  C   C2692     1.0  0.83638  0.73937  0.61739  1.0000
  H   H3215     1.0  0.76201  0.81209  0.36157  1.0000
  N   N178      1.0  0.86146  0.65970  0.34250  1.0000
  Fe  Fe360     1.0  0.80471  0.52376  0.34008  1.0000
  C   C2693     1.0  0.75819  0.84322  0.35381  1.0000
  C   C2694     1.0  0.74451  0.77196  0.47253  1.0000
  C   C2695     1.0  0.75391  0.83317  0.60265  1.0000
  H   H3216     1.0  0.83406  0.90768  0.33923  1.0000
  H   H3217     1.0  0.77733  0.78044  0.56756  1.0000
  H   H3218     1.0  0.92522  0.63045  0.37012  1.0000
  H   H3219     1.0  0.80313  0.77093  0.56371  1.0000
  N   N179      1.0  0.81706  0.51750  0.40199  1.0000
  H   H3220     1.0  0.78927  0.64515  0.63970  1.0000
  C   C2696     1.0  0.84259  0.81974  0.61939  1.0000
  C   C2697     1.0  0.85739  0.54565  0.39228  1.0000
  C   C2698     1.0  0.77160  0.78006  0.60531  1.0000
  H   H3221     1.0  0.79171  0.74134  0.61112  1.0000
  H   H3222     1.0  0.80397  0.49456  0.42184  1.0000
  H   H3223     1.0  0.88854  0.65488  0.35112  1.0000
  C   C2699     1.0  0.86751  0.67441  0.32516  1.0000
  C   C2700     1.0  0.90379  0.64876  0.64268  1.0000
  H   H3224     1.0  0.75509  0.78157  0.46896  1.0000
  H   H3225     1.0  0.92890  0.64005  0.61070  1.0000
  H   H3226     1.0  0.86936  0.67103  0.36350  1.0000
  C   C2701     1.0  0.85497  0.78490  0.35047  1.0000
  H   H3227     1.0  0.86979  0.64572  0.36998  1.0000
  H   H3228     1.0  0.76106  0.52180  0.32166  1.0000
  H   H3229     1.0  0.74999  0.83227  0.58961  1.0000
  H   H3230     1.0  0.87110  0.82379  0.60427  1.0000
  H   H3231     1.0  0.74569  0.98184  0.35179  1.0000
  H   H3232     1.0  0.86280  0.95616  0.32770  1.0000
  N   N180      1.0  0.95130  0.74646  0.39195  1.0000
  C   C2702     1.0  0.93441  0.65801  0.63550  1.0000
  C   C2703     1.0  0.94496  0.72758  0.39876  1.0000
  H   H3233     1.0  0.91575  0.60967  0.35360  1.0000
  H   H3234     1.0  0.82665  0.78559  0.59279  1.0000
  H   H3235     1.0  0.85233  0.76225  0.60649  1.0000
  H   H3236     1.0  0.88231  0.90119  0.33134  1.0000
  H   H3237     1.0  0.93866  0.77588  0.39603  1.0000
  C   C2704     1.0  0.84005  0.95376  0.35224  1.0000
  H   H3238     1.0  0.95046  0.65349  0.63237  1.0000
  N   N181      1.0  0.79052  0.77911  0.59136  1.0000
  H   H3239     1.0  0.80676  0.79999  0.57197  1.0000
  H   H3240     1.0  0.78674  0.75651  0.57939  1.0000
  C   C2705     1.0  0.82378  0.77138  0.59996  1.0000
  H   H3241     1.0  0.76978  0.73622  0.44844  1.0000
  H   H3242     1.0  0.83549  0.65478  0.36360  1.0000
  H   H3243     1.0  0.85980  0.62934  0.35167  1.0000
  C   C2706     1.0  0.95183  0.75255  0.37080  1.0000
  C   C2707     1.0  0.75268  0.82575  0.36408  1.0000
  H   H3244     1.0  0.74154  0.70249  0.40360  1.0000
  C   C2708     1.0  0.82392  0.92709  0.35867  1.0000
  C   C2709     1.0  0.87403  0.90243  0.32007  1.0000
  N   N182      1.0  0.86412  0.92281  0.31382  1.0000
  C   C2710     1.0  0.84065  0.66590  0.35091  1.0000
  C   C2711     1.0  0.97054  0.74565  0.39561  1.0000
  C   C2712     1.0  0.91898  0.72164  0.63399  1.0000
  H   H3245     1.0  0.74596  0.73365  0.61286  1.0000
  H   H3246     1.0  0.86601  0.79137  0.33860  1.0000
  C   C2713     1.0  0.85119  0.93019  0.33084  1.0000
  H   H3247     1.0  0.83760  0.67961  0.35626  1.0000
  H   H3248     1.0  0.86919  0.74850  0.63464  1.0000
  H   H3249     1.0  0.80452  0.72473  0.52023  1.0000
  H   H3250     1.0  0.86103  0.76905  0.35344  1.0000
  C   C2714     1.0  0.82776  0.50370  0.38906  1.0000
  H   H3251     1.0  0.93000  0.72939  0.63334  1.0000
  H   H3252     1.0  0.97824  0.71423  0.40701  1.0000
  C   C2715     1.0  0.76846  0.74438  0.48449  1.0000
  C   C2716     1.0  0.80437  0.74673  0.61042  1.0000
  C   C2717     1.0  0.92144  0.62808  0.32537  1.0000
  H   H3253     1.0  0.82491  0.49840  0.42789  1.0000
  C   C2718     1.0  0.92064  0.62281  0.34530  1.0000
  H   H3254     1.0  0.88904  0.82611  0.63726  1.0000
  H   H3255     1.0  0.87177  0.54602  0.38344  1.0000
  H   H3256     1.0  0.83819  0.58016  0.31692  1.0000
  C   C2719     1.0  0.93233  0.65153  0.34391  1.0000
  H   H3257     1.0  0.93757  0.75337  0.36748  1.0000
  H   H3258     1.0  0.82372  0.78392  0.32354  1.0000
  S   S726      1.0  0.82205  0.54530  0.33984  1.0000
  H   H3259     1.0  0.93646  0.75740  0.41779  1.0000
  H   H3260     1.0  0.83140  0.51137  0.37366  1.0000
  H   H3261     1.0  0.93614  0.65998  0.35203  1.0000
  H   H3262     1.0  0.85396  0.79045  0.36365  1.0000
  H   H3263     1.0  0.83763  0.75159  0.36434  1.0000
  C   C2720     1.0  0.82581  0.94368  0.36354  1.0000
  H   H3264     1.0  0.74114  0.95275  0.31939  1.0000
  C   C2721     1.0  0.84726  0.53216  0.39127  1.0000
  H   H3265     1.0  0.78916  0.53739  0.40485  1.0000
  H   H3266     1.0  0.76710  0.67372  0.40794  1.0000
  H   H3267     1.0  0.92462  0.61815  0.62711  1.0000
  C   C2722     1.0  0.84095  0.79070  0.64447  1.0000
  H   H3268     1.0  0.75255  0.75739  0.44128  1.0000
  H   H3269     1.0  0.76661  0.76608  0.60956  1.0000
  C   C2723     1.0  0.76341  0.75128  0.45073  1.0000
  C   C2724     1.0  0.77017  0.72405  0.40483  1.0000
  C   C2725     1.0  0.74066  0.72697  0.42932  1.0000
  H   H3270     1.0  0.77753  0.96512  0.35613  1.0000
  H   H3271     1.0  0.84092  0.96717  0.35556  1.0000
  C   C2726     1.0  0.77536  0.73857  0.51705  1.0000
  H   H3272     1.0  0.85989  0.59916  0.32134  1.0000
  H   H3273     1.0  0.77480  0.76012  0.44521  1.0000
  H   H3274     1.0  0.82357  0.56983  0.42409  1.0000
  N   N183      1.0  0.83586  0.78965  0.34492  1.0000
  H   H3275     1.0  0.85533  0.64022  0.32794  1.0000
  H   H3276     1.0  0.92159  0.76093  0.40044  1.0000
  C   C2727     1.0  0.76242  0.74544  0.50443  1.0000
  C   C2728     1.0  0.82134  0.78158  0.36127  1.0000
  C   C2729     1.0  0.82458  0.76140  0.36957  1.0000
  C   C2730     1.0  0.80348  0.79313  0.36902  1.0000
  C   C2731     1.0  0.81089  0.75331  0.38462  1.0000
  C   C2732     1.0  0.78992  0.78488  0.38415  1.0000
  C   C2733     1.0  0.79356  0.76503  0.39186  1.0000
  C   C2734     1.0  0.87279  0.65777  0.35737  1.0000
  C   C2735     1.0  0.89079  0.70129  0.63527  1.0000
  C   C2736     1.0  0.81177  0.50587  0.42180  1.0000
  H   H3277     1.0  0.77808  0.49562  0.34594  1.0000
  C   C2737     1.0  0.93641  0.76079  0.40199  1.0000
  H   H3278     1.0  0.84222  0.81683  0.32689  1.0000
  H   H3279     1.0  0.77229  0.78423  0.61876  1.0000
  C   C2738     1.0  0.85786  0.61907  0.63537  1.0000
  N   N184      1.0  0.92491  0.64107  0.64089  1.0000
  C   C2739     1.0  0.83784  0.78100  0.32799  1.0000
  H   H3280     1.0  0.79948  0.80856  0.36353  1.0000
  H   H3281     1.0  0.81370  0.73780  0.39054  1.0000
  H   H3282     1.0  0.77634  0.79391  0.38976  1.0000
  H   H3283     1.0  0.78281  0.75872  0.40329  1.0000
  N   N185      1.0  0.79916  0.66307  0.50619  1.0000
  C   C2740     1.0  0.81565  0.65038  0.51470  1.0000
  C   C2741     1.0  0.78927  0.65034  0.50090  1.0000
  C   C2742     1.0  0.80723  0.67593  0.48823  1.0000
  C   C2743     1.0  0.78527  0.67512  0.51939  1.0000
  C   C2744     1.0  0.76810  0.68715  0.51385  1.0000
  C   C2745     1.0  0.78851  0.67578  0.53764  1.0000
  C   C2746     1.0  0.92778  0.64497  0.31461  1.0000
  Fe  Fe361     1.0  0.78857  0.87055  0.32009  1.0000
  H   H3284     1.0  0.91719  0.61899  0.31814  1.0000
  H   H3285     1.0  0.81065  0.64018  0.52827  1.0000
  H   H3286     1.0  0.82580  0.64138  0.50452  1.0000
  H   H3287     1.0  0.82453  0.65905  0.51790  1.0000
  H   H3288     1.0  0.78197  0.64121  0.51409  1.0000
  H   H3289     1.0  0.79966  0.64047  0.49173  1.0000
  H   H3290     1.0  0.77824  0.65866  0.49217  1.0000
  H   H3291     1.0  0.81397  0.68634  0.49168  1.0000
  H   H3292     1.0  0.81858  0.66744  0.47838  1.0000
  H   H3293     1.0  0.93415  0.69130  0.33382  1.0000
  H   H3294     1.0  0.76493  0.68775  0.49997  1.0000
  H   H3295     1.0  0.80132  0.66755  0.54300  1.0000
  C   C2747     1.0  0.75382  0.65606  0.39792  1.0000
  H   H3296     1.0  0.80203  0.51492  0.43204  1.0000
  C   C2748     1.0  0.78813  0.73556  0.47814  1.0000
  H   H3297     1.0  0.85648  0.88523  0.64365  1.0000
  H   H3298     1.0  0.79072  0.51792  0.39338  1.0000
  H   H3299     1.0  0.88772  0.79434  0.62240  1.0000
  C   C2749     1.0  0.75480  0.69871  0.52603  1.0000
  H   H3300     1.0  0.85052  0.63191  0.62676  1.0000
  H   H3301     1.0  0.74760  0.75149  0.51051  1.0000
  H   H3302     1.0  0.95562  0.76705  0.36454  1.0000
  C   C2750     1.0  0.79455  0.73015  0.51034  1.0000
  H   H3303     1.0  0.90273  0.59126  0.63740  1.0000
  H   H3304     1.0  0.76636  0.70892  0.63390  1.0000
  C   C2751     1.0  0.87209  0.79728  0.62597  1.0000
  C   C2752     1.0  0.86270  0.81441  0.61541  1.0000
  H   H3305     1.0  0.95472  0.71639  0.39079  1.0000
  H   H3306     1.0  0.81581  0.94915  0.37570  1.0000
  Fe  Fe362     1.0  0.79564  0.86058  0.64445  1.0000
  C   C2753     1.0  0.83639  0.92039  0.34261  1.0000
  H   H3307     1.0  0.93047  0.66827  0.62216  1.0000
  H   H3308     1.0  0.79502  0.80570  0.59557  1.0000
  H   H3309     1.0  0.74991  0.87442  0.34870  1.0000
  H   H3310     1.0  0.90042  0.65942  0.62935  1.0000
  Fe  Fe363     1.0  0.77327  0.55514  0.32362  1.0000
  S   S727      1.0  0.78775  0.57917  0.32226  1.0000
  C   C2754     1.0  0.75477  0.67314  0.40254  1.0000
  H   H3311     1.0  0.76542  0.64339  0.39964  1.0000
  Fe  Fe364     1.0  0.79110  0.91241  0.31790  1.0000
  C   C2755     1.0  0.83173  0.80790  0.63387  1.0000
  H   H3312     1.0  0.74974  0.85815  0.31566  1.0000
  H   H3313     1.0  0.89562  0.63727  0.64453  1.0000
  H   H3314     1.0  0.86743  0.90532  0.64068  1.0000
  C   C2756     1.0  0.98250  0.72807  0.40332  1.0000
  H   H3315     1.0  0.74815  0.70802  0.55326  1.0000
  C   C2757     1.0  0.73992  0.68952  0.40022  1.0000
  C   C2758     1.0  0.80674  0.95891  0.31269  1.0000
  H   H3316     1.0  0.88874  0.93423  0.31329  1.0000
  H   H3317     1.0  0.95222  0.69854  0.31337  1.0000
  H   H3318     1.0  0.87828  0.56016  0.96914  1.0000
  S   S728      1.0  0.82499  0.96616  0.71112  1.0000
  C   C2759     1.0  0.76354  0.95433  0.74249  1.0000
  Fe  Fe365     1.0  0.79715  0.89259  0.66437  1.0000
  S   S729      1.0  0.79286  0.87345  0.69398  1.0000
  H   H3319     1.0  0.76847  0.93929  0.74910  1.0000
  H   H3320     1.0  0.78843  0.64805  0.69761  1.0000
  S   S730      1.0  0.79203  0.83892  0.67249  1.0000
  Fe  Fe366     1.0  0.77094  0.86356  0.68417  1.0000
  S   S731      1.0  0.92395  0.70355  0.67102  1.0000
  Fe  Fe367     1.0  0.81445  0.85060  0.67934  1.0000
  S   S732      1.0  0.83693  0.83039  0.69534  1.0000
  C   C2760     1.0  0.82463  0.50266  0.82507  1.0000
  Fe  Fe368     1.0  0.93569  0.77054  0.66754  1.0000
  Fe  Fe369     1.0  0.74401  0.52273  0.84365  1.0000
  Fe  Fe370     1.0  0.93880  0.74509  0.70689  1.0000
  S   S733      1.0  0.95766  0.71994  0.69442  1.0000
  S   S734      1.0  0.93070  0.74048  0.73928  1.0000
  Fe  Fe371     1.0  0.97330  0.74217  0.67362  1.0000
  C   C2761     1.0  0.75948  0.55383  0.91035  1.0000
  S   S735      1.0  0.95575  0.76705  0.68758  1.0000
  S   S736      1.0  0.91708  0.75084  0.68831  1.0000
  S   S737      1.0  0.78495  0.67158  0.95996  1.0000
  Fe  Fe372     1.0  0.82145  0.60444  0.94753  1.0000
  S   S738      1.0  0.85089  0.59032  0.93235  1.0000
  C   C2762     1.0  0.85449  0.50895  0.80313  1.0000
  S   S739      1.0  0.79889  0.62599  0.93276  1.0000
  S   S740      1.0  0.83495  0.54574  0.73212  1.0000
  Fe  Fe373     1.0  0.88079  0.56144  0.73484  1.0000
  S   S741      1.0  0.85466  0.58287  0.72687  1.0000
  S   S742      1.0  0.90421  0.57640  0.73480  1.0000
  Fe  Fe374     1.0  0.83763  0.56436  0.75086  1.0000
  S   S743      1.0  0.81110  0.57800  0.76994  1.0000
  Fe  Fe375     1.0  0.85411  0.56285  0.70852  1.0000
  S   S744      1.0  0.84228  0.57776  0.68165  1.0000
  S   S745      1.0  0.88184  0.54240  0.71441  1.0000
  Fe  Fe376     1.0  0.95980  0.62609  0.81349  1.0000
  S   S746      1.0  0.93524  0.65203  0.81460  1.0000
  Fe  Fe377     1.0  0.93237  0.59944  0.81615  1.0000
  S   S747      1.0  0.90623  0.62343  0.81759  1.0000
  S   S748      1.0  0.92569  0.57114  0.81521  1.0000
  Fe  Fe378     1.0  0.92476  0.64091  0.79406  1.0000
  S   S749      1.0  0.91383  0.65649  0.76677  1.0000
  Fe  Fe379     1.0  0.91886  0.63198  0.83825  1.0000
  S   S750      1.0  0.89802  0.64391  0.86332  1.0000
  S   S751      1.0  0.95033  0.61642  0.79116  1.0000
  S   S752      1.0  0.94411  0.60652  0.83878  1.0000
  C   C2763     1.0  0.90927  0.57472  0.75760  1.0000
  C   C2764     1.0  0.90735  0.55842  0.77259  1.0000
  C   C2765     1.0  0.91248  0.55724  0.79028  1.0000
  C   C2766     1.0  0.91902  0.57258  0.79318  1.0000
  C   C2767     1.0  0.92016  0.58911  0.77841  1.0000
  C   C2768     1.0  0.91576  0.58998  0.76057  1.0000
  H   H3321     1.0  0.90259  0.54645  0.77031  1.0000
  H   H3322     1.0  0.91156  0.54440  0.80164  1.0000
  H   H3323     1.0  0.92468  0.60120  0.78056  1.0000
  H   H3324     1.0  0.91743  0.60255  0.74909  1.0000
  C   C2769     1.0  0.86401  0.60535  0.91334  1.0000
  C   C2770     1.0  0.85700  0.62536  0.90874  1.0000
  C   C2771     1.0  0.86770  0.63704  0.89350  1.0000
  C   C2772     1.0  0.88529  0.62878  0.88256  1.0000
  C   C2773     1.0  0.89231  0.60875  0.88715  1.0000
  C   C2774     1.0  0.88174  0.59708  0.90258  1.0000
  H   H3325     1.0  0.84341  0.63190  0.91699  1.0000
  H   H3326     1.0  0.86226  0.65255  0.89007  1.0000
  H   H3327     1.0  0.90602  0.60234  0.87896  1.0000
  H   H3328     1.0  0.88732  0.58162  0.90618  1.0000
  C   C2775     1.0  0.77783  0.53070  0.80419  1.0000
  C   C2776     1.0  0.79652  0.52578  0.79334  1.0000
  C   C2777     1.0  0.80680  0.54029  0.78290  1.0000
  C   C2778     1.0  0.79832  0.55981  0.78309  1.0000
  C   C2779     1.0  0.77949  0.56478  0.79366  1.0000
  C   C2780     1.0  0.76921  0.55023  0.80411  1.0000
  H   H3329     1.0  0.83189  0.78215  0.65571  1.0000
  H   H3330     1.0  0.82142  0.53629  0.77495  1.0000
  H   H3331     1.0  0.77280  0.57987  0.79368  1.0000
  H   H3332     1.0  0.75454  0.55416  0.81193  1.0000
  Fe  Fe380     1.0  0.86246  0.52696  0.74000  1.0000
  Fe  Fe381     1.0  0.93723  0.72725  0.67412  1.0000
  C   C2781     1.0  0.86137  0.64026  0.67843  1.0000
  H   H3333     1.0  0.86601  0.50577  0.79086  1.0000
  C   C2782     1.0  0.83967  0.49862  0.80939  1.0000
  H   H3334     1.0  0.86156  0.63535  0.74716  1.0000
  H   H3335     1.0  0.88227  0.61630  0.74256  1.0000
  C   C2783     1.0  0.85425  0.52356  0.81236  1.0000
  H   H3336     1.0  0.79547  0.58102  0.73352  1.0000
  C   C2784     1.0  0.92261  0.71860  0.74788  1.0000
  C   C2785     1.0  0.91880  0.70957  0.73489  1.0000
  C   C2786     1.0  0.91488  0.69088  0.74112  1.0000
  C   C2787     1.0  0.91488  0.68112  0.76035  1.0000
  C   C2788     1.0  0.91751  0.69058  0.77364  1.0000
  C   C2789     1.0  0.92143  0.70932  0.76739  1.0000
  H   H3337     1.0  0.91941  0.71672  0.71988  1.0000
  H   H3338     1.0  0.91299  0.68365  0.73072  1.0000
  H   H3339     1.0  0.91693  0.68334  0.78863  1.0000
  H   H3340     1.0  0.92412  0.71639  0.77752  1.0000
  H   H3341     1.0  0.86989  0.80511  0.70860  1.0000
  C   C2790     1.0  0.87083  0.62378  0.68955  1.0000
  H   H3342     1.0  0.80474  0.52434  0.88139  1.0000
  C   C2791     1.0  0.85643  0.59154  0.66258  1.0000
  C   C2792     1.0  0.96533  0.67722  0.73441  1.0000
  H   H3343     1.0  0.85440  0.86716  0.69575  1.0000
  H   H3344     1.0  0.88378  0.57265  0.66637  1.0000
  H   H3345     1.0  0.88246  0.86388  0.65715  1.0000
  H   H3346     1.0  0.89419  0.88300  0.65665  1.0000
  H   H3347     1.0  0.90311  0.79284  0.69153  1.0000
  C   C2793     1.0  0.79171  0.61769  0.66001  1.0000
  H   H3348     1.0  0.76307  0.85743  0.72700  1.0000
  C   C2794     1.0  0.86043  0.82232  0.68260  1.0000
  C   C2795     1.0  0.86587  0.82825  0.66245  1.0000
  H   H3349     1.0  0.82464  0.53355  0.86544  1.0000
  C   C2796     1.0  0.89825  0.80852  0.66323  1.0000
  C   C2797     1.0  0.89279  0.80266  0.68335  1.0000
  C   C2798     1.0  0.87399  0.80968  0.69300  1.0000
  C   C2799     1.0  0.77869  0.48483  0.73929  1.0000
  N   N186      1.0  0.88517  0.64495  0.72522  1.0000
  C   C2800     1.0  0.80485  0.93595  0.67391  1.0000
  C   C2801     1.0  0.80449  0.95598  0.66843  1.0000
  C   C2802     1.0  0.81007  0.96557  0.67997  1.0000
  C   C2803     1.0  0.81634  0.95510  0.69698  1.0000
  C   C2804     1.0  0.81645  0.93510  0.70261  1.0000
  C   C2805     1.0  0.81048  0.92561  0.69127  1.0000
  S   S753      1.0  0.80136  0.58449  0.96521  1.0000
  H   H3350     1.0  0.82617  0.50772  0.87250  1.0000
  H   H3351     1.0  0.82127  0.92690  0.71576  1.0000
  H   H3352     1.0  0.81037  0.91031  0.69592  1.0000
  C   C2806     1.0  0.75389  0.70074  0.95335  1.0000
  H   H3353     1.0  0.81340  0.49438  0.82881  1.0000
  H   H3354     1.0  0.88607  0.61218  0.71255  1.0000
  H   H3355     1.0  0.95215  0.67088  0.73894  1.0000
  H   H3356     1.0  0.78462  0.57027  0.93429  1.0000
  H   H3357     1.0  0.88616  0.66507  0.74204  1.0000
  H   H3358     1.0  0.83975  0.48763  0.80172  1.0000
  H   H3359     1.0  0.82397  0.60689  0.70661  1.0000
  H   H3360     1.0  0.82034  0.50244  0.74931  1.0000
  C   C2807     1.0  0.86502  0.76803  0.67357  1.0000
  S   S754      1.0  0.79866  0.92444  0.65834  1.0000
  H   H3361     1.0  0.91010  0.60848  0.65947  1.0000
  H   H3362     1.0  0.94925  0.64179  0.66513  1.0000
  H   H3363     1.0  0.75292  0.85796  0.76219  1.0000
  C   C2808     1.0  0.74294  0.56868  0.91096  1.0000
  H   H3364     1.0  0.78146  0.58415  0.71562  1.0000
  H   H3365     1.0  0.96006  0.69314  0.73347  1.0000
  S   S755      1.0  0.86296  0.49512  0.75323  1.0000
  H   H3366     1.0  0.89777  0.65606  0.65523  1.0000
  C   C2809     1.0  0.94177  0.62986  0.66969  1.0000
  C   C2810     1.0  0.74136  0.58398  0.92018  1.0000
  C   C2811     1.0  0.78913  0.63911  0.68761  1.0000
  C   C2812     1.0  0.76292  0.97977  0.71383  1.0000
  H   H3367     1.0  0.83533  0.88527  0.68645  1.0000
  H   H3368     1.0  0.87210  0.60959  0.68657  1.0000
  C   C2813     1.0  0.92885  0.62759  0.65916  1.0000
  C   C2814     1.0  0.74170  0.94413  0.70256  1.0000
  H   H3369     1.0  0.81066  0.62794  0.71613  1.0000
  H   H3370     1.0  0.85593  0.92882  0.65902  1.0000
  C   C2815     1.0  0.81290  0.48400  0.73467  1.0000
  N   N187      1.0  0.87085  0.76685  0.65275  1.0000
  H   H3371     1.0  0.80321  0.51070  0.79327  1.0000
  H   H3372     1.0  0.88797  0.86594  0.67878  1.0000
  H   H3373     1.0  0.77340  0.66513  0.92744  1.0000
  H   H3374     1.0  0.80757  0.58020  0.70919  1.0000
  C   C2816     1.0  0.77452  0.55456  0.91871  1.0000
  C   C2817     1.0  0.90651  0.63884  0.72043  1.0000
  H   H3375     1.0  0.85546  0.83783  0.65427  1.0000
  H   H3376     1.0  0.78687  0.66411  0.66400  1.0000
  C   C2818     1.0  0.93658  0.60056  0.69352  1.0000
  C   C2819     1.0  0.88485  0.82155  0.65283  1.0000
  H   H3377     1.0  0.78623  0.51552  0.76356  1.0000
  C   C2820     1.0  0.83921  0.52785  0.82797  1.0000
  C   C2821     1.0  0.79140  0.61862  0.69360  1.0000
  H   H3378     1.0  0.84248  0.90585  0.65338  1.0000
  H   H3379     1.0  0.86571  0.53173  0.80720  1.0000
  H   H3380     1.0  0.75879  0.92597  0.68254  1.0000
  H   H3381     1.0  0.89895  0.74949  0.65664  1.0000
  H   H3382     1.0  0.81350  0.60476  0.73216  1.0000
  S   S756      1.0  0.77323  0.88467  0.65571  1.0000
  H   H3383     1.0  0.85857  0.95142  0.67692  1.0000
  H   H3384     1.0  0.95551  0.61834  0.69436  1.0000
  H   H3385     1.0  0.91107  0.62348  0.71878  1.0000
  C   C2822     1.0  0.78952  0.50491  0.75450  1.0000
  C   C2823     1.0  0.87233  0.90966  0.70816  1.0000
  H   H3386     1.0  0.83163  0.61285  0.65494  1.0000
  C   C2824     1.0  0.86102  0.92266  0.67240  1.0000
  H   H3387     1.0  0.80998  0.98094  0.67544  1.0000
  C   C2825     1.0  0.75636  0.58462  0.92866  1.0000
  H   H3388     1.0  0.86611  0.67486  0.69904  1.0000
  H   H3389     1.0  0.74644  0.68271  0.91073  1.0000
  C   C2826     1.0  0.74368  0.90967  0.70841  1.0000
  H   H3390     1.0  0.91281  0.64800  0.70663  1.0000
  H   H3391     1.0  0.95453  0.66858  0.77285  1.0000
  H   H3392     1.0  0.86466  0.67044  0.73273  1.0000
  Fe  Fe382     1.0  0.77848  0.60713  0.95191  1.0000
  H   H3393     1.0  0.84771  0.86546  0.67467  1.0000
  C   C2827     1.0  0.76638  0.68422  0.94754  1.0000
  C   C2828     1.0  0.91335  0.70822  0.65077  1.0000
  C   C2829     1.0  0.92374  0.59803  0.68366  1.0000
  C   C2830     1.0  0.77636  0.61728  0.72778  1.0000
  Fe  Fe383     1.0  0.79286  0.64015  0.95830  1.0000
  H   H3394     1.0  0.74929  0.89600  0.70361  1.0000
  S   S757      1.0  0.77076  0.62309  0.97636  1.0000
  S   S758      1.0  0.74140  0.55056  0.85276  1.0000
  S   S759      1.0  0.86368  0.54464  0.76081  1.0000
  H   H3395     1.0  0.85276  0.67131  0.67317  1.0000
  S   S760      1.0  0.75360  0.60378  0.94056  1.0000
  H   H3396     1.0  0.88737  0.67517  0.71690  1.0000
  N   N188      1.0  0.86382  0.88778  0.66969  1.0000
  H   H3397     1.0  0.80552  0.55313  0.84135  1.0000
  H   H3398     1.0  0.77549  0.63284  0.72722  1.0000
  C   C2831     1.0  0.80866  0.49760  0.74643  1.0000
  C   C2832     1.0  0.86534  0.90231  0.67989  1.0000
  C   C2833     1.0  0.87116  0.89623  0.69804  1.0000
  H   H3399     1.0  0.76257  0.61593  0.72491  1.0000
  N   N189      1.0  0.97844  0.66872  0.74835  1.0000
  C   C2834     1.0  0.91996  0.61125  0.66671  1.0000
  H   H3400     1.0  0.78448  0.54583  0.85772  1.0000
  S   S761      1.0  0.81741  0.62054  0.97129  1.0000
  C   C2835     1.0  0.84974  0.87599  0.68222  1.0000
  C   C2836     1.0  0.96816  0.67416  0.76716  1.0000
  H   H3401     1.0  0.83944  0.53961  0.83433  1.0000
  C   C2837     1.0  0.86794  0.92947  0.70045  1.0000
  H   H3402     1.0  0.78376  0.51179  0.87145  1.0000
  C   C2838     1.0  0.74805  0.85817  0.73413  1.0000
  C   C2839     1.0  0.74231  0.85842  0.75402  1.0000
  C   C2840     1.0  0.85991  0.65849  0.68209  1.0000
  C   C2841     1.0  0.84715  0.60827  0.65136  1.0000
  H   H3403     1.0  0.84897  0.75086  0.65472  1.0000
  H   H3404     1.0  0.87458  0.88101  0.70467  1.0000
  H   H3405     1.0  0.78731  0.54308  0.91837  1.0000
  H   H3406     1.0  0.89467  0.68786  0.66447  1.0000
  H   H3407     1.0  0.85533  0.63891  0.66681  1.0000
  H   H3408     1.0  0.96429  0.69021  0.76574  1.0000
  C   C2842     1.0  0.81109  0.61233  0.71735  1.0000
  H   H3409     1.0  0.91672  0.58567  0.68921  1.0000
  H   H3410     1.0  0.91328  0.64000  0.73208  1.0000
  H   H3411     1.0  0.97696  0.66810  0.77853  1.0000
  S   S762      1.0  0.76588  0.51229  0.81856  1.0000
  C   C2843     1.0  0.86485  0.74989  0.65013  1.0000
  C   C2844     1.0  0.79442  0.58771  0.71812  1.0000
  C   C2845     1.0  0.86764  0.66030  0.69710  1.0000
  H   H3412     1.0  0.86835  0.78127  0.67581  1.0000
  Fe  Fe384     1.0  0.74018  0.53256  0.88286  1.0000
  C   C2846     1.0  0.87765  0.63190  0.74344  1.0000
  C   C2847     1.0  0.76359  0.67765  0.93224  1.0000
  C   C2848     1.0  0.76865  0.96040  0.72246  1.0000
  C   C2849     1.0  0.87699  0.64368  0.70906  1.0000
  H   H3413     1.0  0.97248  0.67447  0.71964  1.0000
  N   N190      1.0  0.79324  0.60902  0.71380  1.0000
  H   H3414     1.0  0.77707  0.60968  0.74307  1.0000
  C   C2850     1.0  0.88055  0.66481  0.72927  1.0000
  C   C2851     1.0  0.75274  0.96766  0.75402  1.0000
  H   H3415     1.0  0.88310  0.63310  0.75598  1.0000
  C   C2852     1.0  0.77302  0.56994  0.92776  1.0000
  H   H3416     1.0  0.87181  0.73608  0.65876  1.0000
  H   H3417     1.0  0.86126  0.59583  0.96642  1.0000
  S   S763      1.0  0.74498  0.50439  0.87328  1.0000
  C   C2853     1.0  0.78957  0.63779  0.65464  1.0000
  H   H3418     1.0  0.86827  0.93995  0.70853  1.0000
  N   N191      1.0  0.80829  0.52212  0.85158  1.0000
  C   C2854     1.0  0.79672  0.54178  0.84570  1.0000
  H   H3419     1.0  0.89794  0.77492  0.64995  1.0000
  C   C2855     1.0  0.82406  0.51732  0.83502  1.0000
  H   H3420     1.0  0.96822  0.64201  0.75430  1.0000
  H   H3421     1.0  0.84931  0.76865  0.67940  1.0000
  S   S764      1.0  0.95456  0.74727  0.65172  1.0000
  H   H3422     1.0  0.74957  0.96236  0.76955  1.0000
  C   C2856     1.0  0.78825  0.64848  0.66841  1.0000
  H   H3423     1.0  0.87640  0.90472  0.72219  1.0000
  H   H3424     1.0  0.86913  0.49813  0.71140  1.0000
  C   C2857     1.0  0.88294  0.87465  0.66539  1.0000
  C   C2858     1.0  0.79491  0.50836  0.85848  1.0000
  S   S765      1.0  0.76188  0.53397  0.89957  1.0000
  C   C2859     1.0  0.86250  0.93593  0.68255  1.0000
  H   H3425     1.0  0.79041  0.54253  0.83310  1.0000
  C   C2860     1.0  0.89919  0.69811  0.65141  1.0000
  C   C2861     1.0  0.77459  0.49843  0.75108  1.0000
  H   H3426     1.0  0.93944  0.59020  0.70667  1.0000
  C   C2862     1.0  0.94554  0.61645  0.68659  1.0000
  C   C2863     1.0  0.87865  0.62541  0.70453  1.0000
  N   N192      1.0  0.86191  0.58979  0.85439  1.0000
  C   C2864     1.0  0.85185  0.58100  0.87393  1.0000
  C   C2865     1.0  0.88299  0.58194  0.85314  1.0000
  C   C2866     1.0  0.85842  0.61106  0.85279  1.0000
  C   C2867     1.0  0.85442  0.58588  0.83900  1.0000
  C   C2868     1.0  0.86674  0.57818  0.82295  1.0000
  C   C2869     1.0  0.83424  0.59065  0.83927  1.0000
  C   C2870     1.0  0.85922  0.57523  0.80835  1.0000
  C   C2871     1.0  0.82688  0.58753  0.82465  1.0000
  C   C2872     1.0  0.83935  0.57980  0.80924  1.0000
  H   H3427     1.0  0.85315  0.56517  0.87535  1.0000
  H   H3428     1.0  0.85799  0.58287  0.88570  1.0000
  H   H3429     1.0  0.83625  0.58781  0.87733  1.0000
  H   H3430     1.0  0.88681  0.56605  0.85357  1.0000
  H   H3431     1.0  0.88815  0.58431  0.86526  1.0000
  H   H3432     1.0  0.89172  0.58922  0.83966  1.0000
  H   H3433     1.0  0.84277  0.61788  0.85504  1.0000
  H   H3434     1.0  0.86426  0.61474  0.86378  1.0000
  H   H3435     1.0  0.86553  0.61831  0.83824  1.0000
  H   H3436     1.0  0.88231  0.57455  0.82114  1.0000
  H   H3437     1.0  0.82403  0.59722  0.85060  1.0000
  H   H3438     1.0  0.86893  0.56961  0.79611  1.0000
  H   H3439     1.0  0.81144  0.59145  0.82502  1.0000
  H   H3440     1.0  0.83364  0.57756  0.79781  1.0000
  H   H3441     1.0  0.77720  0.95009  0.71359  1.0000
  C   C2873     1.0  0.87657  0.58571  0.65789  1.0000
  C   C2874     1.0  0.74832  0.68761  0.92281  1.0000
  C   C2875     1.0  0.81640  0.52192  0.86837  1.0000
  H   H3442     1.0  0.75638  0.70618  0.96476  1.0000
  C   C2876     1.0  0.79277  0.60813  0.67914  1.0000
  C   C2877     1.0  0.85729  0.89652  0.65105  1.0000
  H   H3443     1.0  0.79527  0.59248  0.68205  1.0000
  H   H3444     1.0  0.87280  0.75532  0.68285  1.0000
  H   H3445     1.0  0.74695  0.77429  0.87718  1.0000
  H   H3446     1.0  0.79319  0.60938  0.64913  1.0000
  H   H3447     1.0  0.78675  0.50906  0.84730  1.0000
  C   C2878     1.0  0.74898  0.92654  0.69650  1.0000
  S   S766      1.0  0.92145  0.79902  0.65083  1.0000
  H   H3448     1.0  0.76643  0.83865  0.64934  1.0000
  C   C2879     1.0  0.98199  0.64728  0.75087  1.0000
  H   H3449     1.0  0.80275  0.49317  0.86273  1.0000
  H   H3450     1.0  0.84354  0.57187  0.97315  1.0000
  C   C2880     1.0  0.89232  0.76314  0.64757  1.0000
  H   H3451     1.0  0.80011  0.96412  0.65504  1.0000
  S   S767      1.0  0.82014  0.87037  0.65011  1.0000
  S   S768      1.0  0.74047  0.86031  0.69849  1.0000
  H   H3452     1.0  0.74591  0.95720  0.69316  1.0000
  H   H3453     1.0  0.98767  0.72128  0.75920  1.0000
  H   H3454     1.0  0.75974  0.50397  0.75770  1.0000
  H   H3455     1.0  0.92996  0.66654  0.64717  1.0000
  H   H3456     1.0  0.80924  0.48428  0.69186  1.0000
