data_image0
_chemical_formula_structural       CNC2NSHCH2CH3C2SCHCHC4HC3SC2H2CSC3H4CHCH2CH4CH4CSHFeHSH5C2SCSHC4H4C3H5NH3C3H2FeSCFeS2FeSFeS4H2C2SC2FeC2SCHFeS2FeS2CHCSHS3CH3CHCHCH4CNHCH5C2HC2H5C2HCHC6H4C6H4C6H6CH2C2SC2H3CNCH3SHC2H2CH4CH2C2HCHCHC8H2C2H2Fe2H2CH2CH2C2H8C5HSC4HNC9H12NH2SH4CFeCFeH2CHCH2C2HC3H2CNHSHFeC2HC2S2HC2H2CH3CHCH2CH2CH3CN2H2C3HCHCH5CFeS2FeS2FeSFeS4FeS2FeSFeSHFeSFeHSFeS2FeSHFeSFeS4CH2C4SCFeCSHSHC2H2CH3SHC3H6C3H2C3H2C6H4C6H4C6H6NSHC6FeHSH6CHC2HCHCNC2H2NC9H15CHSHCH3NC9H13NC9H14CSH2C2H10CSC3H3C2H2FeCH3C2SFeH3CNSHFeC2HC3H5C2HC3SCFeC2HC2HC3FeC3H2CSHCFeC2FeHCHCH2CSC2NHSH2C5HNH4SHCH2CH2C2HC3H2CH2CH12CSCHCHCH3C2H3C3NHCSH2CHSC3H3CHCH2FeS2H2FeHCFeSCSH2C2FeH2CS2HC3HCHC2HSC3HNHC3HCSC2H2CHNHC4H2CH4C2HFeHC2H5CH2CH2C2HSHC2H2CNHSH2CH2CH5FeCHCH2SCFeS2FeH2SHCHCFeS2FeS2FeSFeS3FeS2FeS2FeSFeHS2FeS2FeS2FeSFeS3HC3NH4C7H4C6H5C3SH3SC3H2FeHCHC6H4C3FeSHFeHCSC6H6CNC2HCHNH3C2H2C2HCH2CHC2H2NC9H15FeCHC3H2NH3C3H4C3NHCH2CHCSCHCNC9H12CH2C2H4CHFeC2HCSNH2C2HC2SCH2CH3CH2FeC2HC2HCHSC2H2NHC6HSHCHCHSHC2H2CH2CHCH2C2H2C2HSHFeH2CSHSH3C3H5C3H3NCH2CH7FeS3CHC2SCSHCHS2HFeSFeHCHCHC2NH2FeSCHCH4C5H3C2H2CH2CHCHC2HCH2NH3CH4C7H4NHCH3CH2C3HC2H2CH3C5FeCHCH2NC6H6C2H3CHCH3CHCHSH2C2HNHFeCS2HCH2CHC8H4SFeC2H3CH2CHSCNC3HCHC2HFeSH2CSHCH5SHSCH2C2HCH3SHCH6CH2CHC2SCH4C3HC2S2CH6SC4H2CSCHC2H4C2HC3HC2FeCSCSNHSHCH3CHNH2SCHFeSC6H2CHCH2NHCHC6H2C2H2CHCHSCH5C7HSH2CNHNH4FeCSC3HSCSNCNC5HC3HCHSHCH4C4HCHC2HCFeH2CHSHCSCHC3H3CSH3C2H2FeHCH5FeC2H2C2HCHC2HCH4C2H2CHSCH3CHC3H8CNHC2H4CHCHFeS2H3CFeHCNHCHSFeSCFeSFeSFeSFeSFeSFeS2NFeS2FeS2FeSFeS3C2H3CH4C6H4CH2SH2C6H6FeC3HCH2C2HSHSHCHS2C2H2FeSHC7H6C3HFeNH2SCFeCFeCFeHSH9CHCFeCH2CHCHCHC2H4CH3SC2SH2CH2C3H2CHCH3C2HCH3CSHC2HSH3NC7H8SC2NC2FeCHSH2CSHC2HCH3C2HNFeHCNH3SH2NC8SH10SH5CH2CHC6SC2H2C3HC2S2CFeH2CH2FeH2CSC2H2CHC2HCHCHCH2C3H2CHCHC2H3NCHCH2C5HCNC2SCHS2CHFeS2FeS2FeS2FeSFeS3H4CH5SFeC6H7SC7H5C3H5C8FeH2CHCH2CHCHFeSHSHCSHC2H4C4FeNC2NHCSC3HCHCH3CH2CFeH3NSH3CH2SH2NCH2CHCHC2H3CHCHC2H2C3HSHCHCSH4FeSC5H6CSFeH2FeHFeCFeC2H2CSHSHCH2FeCSCHS2HCH2FeCH2CH2C2H2CHFe2C3HNH2CHC2HC4HC3H2CHCSCFeHC2HCH2CSH2C3HCH2CHSFeS2NHC3HCH2CH7FeH2CHCH2SFeSHS2CHFeC2SC2HFeHS2H4C2H3CH2C4SCH3CHFeHCHCFeSC2HCHCHCHC6H5SC2NFeHFeSCSC2H2CH2SCHCSCSHCSCH2CNH4FeCH2CHCSC2HC2SFeH2CH2C2HC2HCHFeSCHSC6HCHCHCH2CH2CHSH2CHCFeS2CH3CFeS2NSHFeSFeS3H2CHC2NC3HFeS2H3FeSFeS2C3H2C2H3C2H2C2H3SHC3HC7H4SCHC8H3CFeHCHCH6CH2CHSHC3HNHCNH5CHC4H3CHFe2CSFeH3CH2CHC2H2C4HC3H2CH2C2SC2HSH5C2HCH3SHCH6C2HNSCFeSHFeSHFeSFeCS2HFeS2HCSFeHFeHS2FeS2CSHFeSFeS3FeS2FeS2CSC6H5C8NH3C7H4CH3C2HCHC7H4C2HCH2SHCHCNC8H7C2H3C2HSNC6H14SH2C4H2FeCSFeH2SC2HC2H2CH2CH2CH4SH4NHSHCH3CHC2HCHFeH4NC2HCNCH5NH2C3FeHCHC4H4CHCHC3HC4SHCHCH2C2SHCNCH3C2H2CH2CHCH5CH2FeHCHCSCH2SH10NHCH2NH6CFeCSH2CHS3H2CH2CSFeCH2C2H3SCHCH2CH4CH4SHC2H2FeS2FeCHSHFeS2FeSHFeSFeS3FeCFeS2FeHFeS3FeSFe2S2FeSFeCSHCH3CH3NHCH4C2HCH3C3H8CSHC3H3C6H4C6H4CFeC4H4C6H3C3H5CS3H3CHCHCH3CSC3HSCH5SHC2HCFeNH2C4HC2HCSH2C2NCH6CHCHC2HNCSC3HNC2SH3CHFeCHCHSC4HSCH2NCHSCHSHCH2C2NC8H6CH8CSHCH4CHNH2C2H3NCH2CHC2HC2FeC2H5CHCH4NH4C2HC2SH7CH3CHCH3CHC3HC5H3CFeCHCN2H3SH2FeS2CHCHSCHFeS2FeS2FeSFeS3H4SHFeC2HFeS2FeS3H2SH2CH2C2H3CH7C6H6SH4C2HC6H3C4SCH4C7H5C3H2CHC2NC7H8CH2NC8H9C2FeC2H2CH2FeCNC9H13C2H3CHCHCHC3HCNC2H3CHCHSHCH4C2HC2H2C2H2CHNCH2CH2CHC2SC3HC2H2CHSH4SHCHCH8
_chemical_formula_sum              "C1440 N96 S384 H1728 Fe192"
_cell_length_a       54.4764
_cell_length_b       54.2053
_cell_length_c       71.5452
_cell_angle_alpha    81.2776
_cell_angle_beta     81.1164
_cell_angle_gamma    106.887

_space_group_name_H-M_alt    "P 1"
_space_group_IT_number       1

loop_
  _space_group_symop_operation_xyz
  'x, y, z'

loop_
  _atom_site_type_symbol
  _atom_site_label
  _atom_site_symmetry_multiplicity
  _atom_site_fract_x
  _atom_site_fract_y
  _atom_site_fract_z
  _atom_site_occupancy
  C   C1        1.0  0.45788  0.10798  0.10342  1.0000
  N   N1        1.0  0.01688  0.41925  0.21591  1.0000
  C   C2        1.0  0.08869  0.45385  0.23444  1.0000
  C   C3        1.0  0.44786  0.47462  0.17291  1.0000
  N   N2        1.0  0.46660  0.18824  0.10898  1.0000
  S   S1        1.0  0.03825  0.48297  0.16389  1.0000
  H   H1        1.0  0.44514  0.45821  0.18465  1.0000
  C   C4        1.0  0.39042  0.46685  0.09842  1.0000
  H   H2        1.0  0.44720  0.45125  0.15114  1.0000
  H   H3        1.0  0.44825  0.02278  0.20762  1.0000
  C   C5        1.0  0.46050  0.12728  0.08730  1.0000
  H   H4        1.0  0.48032  0.35445  0.03803  1.0000
  H   H5        1.0  0.27327  0.46816  0.08410  1.0000
  H   H6        1.0  0.46087  0.12227  0.07317  1.0000
  C   C6        1.0  0.00207  0.47516  0.14102  1.0000
  C   C7        1.0  0.08427  0.46506  0.21697  1.0000
  S   S2        1.0  0.42495  0.47665  0.23208  1.0000
  C   C8        1.0  0.47142  0.28643  0.09982  1.0000
  H   H7        1.0  0.01383  0.45660  0.20273  1.0000
  C   C9        1.0  0.37174  0.47102  0.08816  1.0000
  H   H8        1.0  0.35119  0.46474  0.09526  1.0000
  C   C10       1.0  0.44365  0.19508  0.10395  1.0000
  C   C11       1.0  0.46322  0.15318  0.08920  1.0000
  C   C12       1.0  0.47929  0.30883  0.10779  1.0000
  C   C13       1.0  0.46874  0.19318  0.12863  1.0000
  H   H9        1.0  0.47004  0.30865  0.12235  1.0000
  C   C14       1.0  0.15390  0.47930  0.14797  1.0000
  C   C15       1.0  0.02289  0.41261  0.19672  1.0000
  C   C16       1.0  0.46065  0.14036  0.12357  1.0000
  S   S3        1.0  0.47559  0.41184  0.02756  1.0000
  C   C17       1.0  0.46948  0.29888  0.01984  1.0000
  C   C18       1.0  0.46363  0.16062  0.10738  1.0000
  H   H10       1.0  0.23302  0.47418  0.07488  1.0000
  H   H11       1.0  0.00768  0.37891  0.23090  1.0000
  C   C19       1.0  0.27197  0.48779  0.08043  1.0000
  S   S4        1.0  0.47383  0.25858  0.07124  1.0000
  C   C20       1.0  0.42763  0.02059  0.21413  1.0000
  C   C21       1.0  0.44886  0.47066  0.15407  1.0000
  C   C22       1.0  0.04153  0.43056  0.22240  1.0000
  H   H12       1.0  0.08170  0.47364  0.13795  1.0000
  H   H13       1.0  0.45591  0.09933  0.13401  1.0000
  H   H14       1.0  0.45605  0.08796  0.10190  1.0000
  H   H15       1.0  0.46535  0.16744  0.07623  1.0000
  C   C23       1.0  0.42567  0.48920  0.06973  1.0000
  H   H16       1.0  0.45788  0.39831  0.99369  1.0000
  C   C24       1.0  0.08785  0.48411  0.12254  1.0000
  H   H17       1.0  0.01590  0.46932  0.13159  1.0000
  H   H18       1.0  0.05832  0.46342  0.19751  1.0000
  C   C25       1.0  0.47704  0.41318  0.98910  1.0000
  H   H19       1.0  0.42089  0.10289  0.21869  1.0000
  H   H20       1.0  0.42709  0.03877  0.21944  1.0000
  H   H21       1.0  0.45061  0.18144  0.13958  1.0000
  H   H22       1.0  0.09855  0.48323  0.20841  1.0000
  C   C26       1.0  0.06109  0.45366  0.21098  1.0000
  H   H23       1.0  0.41699  0.01991  0.20200  1.0000
  H   H24       1.0  0.45611  0.26895  0.10825  1.0000
  H   H25       1.0  0.44477  0.21550  0.10553  1.0000
  H   H26       1.0  0.03426  0.43033  0.18527  1.0000
  C   C27       1.0  0.45785  0.11447  0.12151  1.0000
  S   S5        1.0  0.47088  0.11423  0.23014  1.0000
  H   H27       1.0  0.19250  0.47741  0.13769  1.0000
  Fe  Fe1       1.0  0.46415  0.47149  0.23062  1.0000
  H   H28       1.0  0.42498  0.18127  0.11331  1.0000
  S   S6        1.0  0.45638  0.04574  0.16127  1.0000
  H   H29       1.0  0.44239  0.19448  0.08863  1.0000
  H   H30       1.0  0.38428  0.45695  0.11352  1.0000
  H   H31       1.0  0.03446  0.39873  0.19717  1.0000
  H   H32       1.0  0.43075  0.47188  0.09790  1.0000
  H   H33       1.0  0.15283  0.47013  0.16277  1.0000
  C   C28       1.0  0.17625  0.48338  0.13390  1.0000
  C   C29       1.0  0.46905  0.31484  0.03333  1.0000
  S   S7        1.0  0.47536  0.11698  0.17265  1.0000
  C   C30       1.0  0.00281  0.43888  0.21416  1.0000
  S   S8        1.0  0.46686  0.43159  0.22945  1.0000
  H   H34       1.0  0.09132  0.46980  0.11366  1.0000
  C   C31       1.0  0.41699  0.47563  0.08937  1.0000
  C   C32       1.0  0.00792  0.48239  0.15816  1.0000
  C   C33       1.0  0.98992  0.49002  0.17028  1.0000
  C   C34       1.0  0.37948  0.48353  0.06872  1.0000
  H   H35       1.0  0.37701  0.99507  0.22535  1.0000
  H   H36       1.0  0.46074  0.14400  0.13797  1.0000
  H   H37       1.0  0.00464  0.40335  0.19173  1.0000
  H   H38       1.0  0.45424  0.46265  0.05280  1.0000
  C   C35       1.0  0.44849  0.99274  0.17119  1.0000
  C   C36       1.0  0.13296  0.48704  0.14307  1.0000
  C   C37       1.0  0.41875  0.08927  0.23203  1.0000
  H   H39       1.0  0.45921  0.30613  0.04828  1.0000
  H   H40       1.0  0.98346  0.43073  0.21025  1.0000
  H   H41       1.0  0.99909  0.44548  0.22802  1.0000
  H   H42       1.0  0.11600  0.48337  0.15445  1.0000
  H   H43       1.0  0.36478  0.48688  0.06091  1.0000
  N   N3        1.0  0.41572  0.99658  0.22977  1.0000
  H   H44       1.0  0.46002  0.27773  0.02443  1.0000
  H   H45       1.0  0.46298  0.46624  0.07565  1.0000
  H   H46       1.0  0.47164  0.21424  0.12922  1.0000
  C   C38       1.0  0.46665  0.01818  0.16682  1.0000
  C   C39       1.0  0.46468  0.47714  0.06077  1.0000
  C   C40       1.0  0.99871  0.39490  0.22933  1.0000
  H   H47       1.0  0.07068  0.48962  0.11893  1.0000
  H   H48       1.0  0.45436  0.48871  0.12427  1.0000
  Fe  Fe2       1.0  0.15878  0.23262  0.45610  1.0000
  S   S9        1.0  0.19755  0.23691  0.43740  1.0000
  C   C41       1.0  0.45954  0.40243  0.29583  1.0000
  Fe  Fe3       1.0  0.12662  0.20010  0.43200  1.0000
  S   S10       1.0  0.16238  0.20197  0.41079  1.0000
  S   S11       1.0  0.08525  0.17305  0.43547  1.0000
  Fe  Fe4       1.0  0.17919  0.19409  0.43685  1.0000
  S   S12       1.0  0.20038  0.16398  0.43750  1.0000
  Fe  Fe5       1.0  0.17794  0.24460  0.41278  1.0000
  S   S13       1.0  0.19850  0.27576  0.38557  1.0000
  S   S14       1.0  0.14252  0.18926  0.45802  1.0000
  S   S15       1.0  0.14026  0.24345  0.43152  1.0000
  S   S16       1.0  0.12386  0.04679  0.45185  1.0000
  H   H49       1.0  0.45186  0.47224  0.29981  1.0000
  H   H50       1.0  0.24060  0.03087  0.34692  1.0000
  C   C42       1.0  0.07889  0.48824  0.27638  1.0000
  C   C43       1.0  0.01460  0.35342  0.35645  1.0000
  S   S17       1.0  0.39270  0.38962  0.34710  1.0000
  C   C44       1.0  0.32575  0.48004  0.28548  1.0000
  C   C45       1.0  0.41863  0.39546  0.32734  1.0000
  Fe  Fe6       1.0  0.35554  0.46438  0.35396  1.0000
  C   C46       1.0  0.40378  0.08823  0.30250  1.0000
  C   C47       1.0  0.01315  0.26687  0.35501  1.0000
  S   S18       1.0  0.19292  0.01592  0.37585  1.0000
  C   C48       1.0  0.08325  0.22637  0.47375  1.0000
  H   H51       1.0  0.23511  0.13345  0.47991  1.0000
  Fe  Fe7       1.0  0.31219  0.41079  0.36448  1.0000
  S   S19       1.0  0.32798  0.39833  0.33797  1.0000
  S   S20       1.0  0.28115  0.38349  0.38987  1.0000
  Fe  Fe8       1.0  0.33452  0.43969  0.32246  1.0000
  S   S21       1.0  0.32892  0.44871  0.29201  1.0000
  S   S22       1.0  0.31480  0.45085  0.34828  1.0000
  C   C49       1.0  0.38236  0.41330  0.24485  1.0000
  H   H52       1.0  0.30431  0.34060  0.36394  1.0000
  C   C50       1.0  0.38417  0.43189  0.27324  1.0000
  S   S23       1.0  0.35904  0.03555  0.27206  1.0000
  H   H53       1.0  0.07309  0.42312  0.25995  1.0000
  S   S24       1.0  0.02001  0.42744  0.31126  1.0000
  S   S25       1.0  0.38845  0.99616  0.30861  1.0000
  S   S26       1.0  0.17581  0.01268  0.42998  1.0000
  C   C51       1.0  0.42963  0.99651  0.24601  1.0000
  H   H54       1.0  0.41284  0.06048  0.32229  1.0000
  H   H55       1.0  0.17773  0.33970  0.47637  1.0000
  H   H56       1.0  0.33553  0.38016  0.26693  1.0000
  C   C52       1.0  0.43772  0.07218  0.25739  1.0000
  H   H57       1.0  0.08904  0.07197  0.40759  1.0000
  C   C53       1.0  0.42527  0.00622  0.35995  1.0000
  H   H58       1.0  0.00184  0.37437  0.33390  1.0000
  C   C54       1.0  0.42120  0.07757  0.31059  1.0000
  H   H59       1.0  0.02078  0.10912  0.43520  1.0000
  H   H60       1.0  0.39962  0.11738  0.28032  1.0000
  H   H61       1.0  0.44735  0.13724  0.26728  1.0000
  H   H62       1.0  0.10257  0.22465  0.46964  1.0000
  C   C55       1.0  0.00107  0.30518  0.36047  1.0000
  N   N4        1.0  0.20764  0.32807  0.46017  1.0000
  H   H63       1.0  0.12089  0.15197  0.41244  1.0000
  C   C56       1.0  0.07449  0.13051  0.38819  1.0000
  H   H64       1.0  0.03651  0.48028  0.24595  1.0000
  H   H65       1.0  0.14177  0.11569  0.38800  1.0000
  H   H66       1.0  0.44640  0.43293  0.28205  1.0000
  H   H67       1.0  0.21485  0.38041  0.39952  1.0000
  H   H68       1.0  0.16892  0.29573  0.44612  1.0000
  C   C57       1.0  0.10138  0.08582  0.41505  1.0000
  C   C58       1.0  0.07973  0.11773  0.40531  1.0000
  H   H69       1.0  0.41352  0.38731  0.25211  1.0000
  C   C59       1.0  0.03302  0.22963  0.48443  1.0000
  C   C60       1.0  0.22954  0.34994  0.46316  1.0000
  H   H70       1.0  0.00151  0.26303  0.34369  1.0000
  H   H71       1.0  0.19998  0.05429  0.45026  1.0000
  H   H72       1.0  0.23517  0.34484  0.47722  1.0000
  H   H73       1.0  0.03282  0.40248  0.25015  1.0000
  H   H74       1.0  0.35732  0.38106  0.30434  1.0000
  C   C61       1.0  0.46389  0.01723  0.26265  1.0000
  C   C62       1.0  0.18511  0.32258  0.47652  1.0000
  H   H75       1.0  0.33744  0.41440  0.26215  1.0000
  C   C63       1.0  0.21659  0.00005  0.37107  1.0000
  H   H76       1.0  0.43154  0.36458  0.34088  1.0000
  C   C64       1.0  0.22307  0.30483  0.38655  1.0000
  C   C65       1.0  0.23443  0.32465  0.36975  1.0000
  C   C66       1.0  0.25316  0.34855  0.37031  1.0000
  C   C67       1.0  0.26056  0.35270  0.38773  1.0000
  C   C68       1.0  0.25010  0.33245  0.40429  1.0000
  C   C69       1.0  0.23133  0.30863  0.40375  1.0000
  H   H77       1.0  0.22820  0.32176  0.35637  1.0000
  H   H78       1.0  0.26108  0.36408  0.35748  1.0000
  H   H79       1.0  0.25604  0.33556  0.41769  1.0000
  H   H80       1.0  0.22288  0.29342  0.41669  1.0000
  C   C70       1.0  0.17888  0.13162  0.44083  1.0000
  C   C71       1.0  0.18598  0.11373  0.43061  1.0000
  C   C72       1.0  0.16906  0.08766  0.43358  1.0000
  C   C73       1.0  0.14532  0.07932  0.44713  1.0000
  C   C74       1.0  0.13828  0.09722  0.45731  1.0000
  C   C75       1.0  0.15495  0.12329  0.45413  1.0000
  H   H81       1.0  0.20452  0.12006  0.42033  1.0000
  H   H82       1.0  0.17455  0.07399  0.42556  1.0000
  H   H83       1.0  0.11987  0.09090  0.46774  1.0000
  H   H84       1.0  0.14943  0.13683  0.46223  1.0000
  C   C76       1.0  0.06265  0.18325  0.42379  1.0000
  C   C77       1.0  0.07074  0.20074  0.40586  1.0000
  C   C78       1.0  0.05196  0.20712  0.39636  1.0000
  C   C79       1.0  0.02514  0.19650  0.40495  1.0000
  C   C80       1.0  0.01716  0.17977  0.42320  1.0000
  C   C81       1.0  0.03588  0.17298  0.43251  1.0000
  H   H85       1.0  0.09137  0.20874  0.39908  1.0000
  H   H86       1.0  0.05822  0.22011  0.38225  1.0000
  H   H87       1.0  0.40598  0.43837  0.27041  1.0000
  H   H88       1.0  0.02958  0.15959  0.44646  1.0000
  H   H89       1.0  0.11384  0.10796  0.37700  1.0000
  H   H90       1.0  0.35498  0.01312  0.40112  1.0000
  C   C82       1.0  0.06996  0.43120  0.24602  1.0000
  H   H91       1.0  0.32191  0.03476  0.37853  1.0000
  H   H92       1.0  0.34089  0.01448  0.37161  1.0000
  C   C83       1.0  0.23842  0.99445  0.43131  1.0000
  C   C84       1.0  0.45508  0.99524  0.27779  1.0000
  S   S27       1.0  0.34361  0.01964  0.32955  1.0000
  C   C85       1.0  0.43238  0.99131  0.34696  1.0000
  C   C86       1.0  0.05960  0.11010  0.42224  1.0000
  H   H93       1.0  0.09197  0.08052  0.43068  1.0000
  H   H94       1.0  0.08876  0.13769  0.37473  1.0000
  H   H95       1.0  0.19962  0.23790  0.47964  1.0000
  C   C87       1.0  0.38250  0.38657  0.27611  1.0000
  N   N5        1.0  0.00112  0.27883  0.36974  1.0000
  C   C88       1.0  0.23848  0.01202  0.35577  1.0000
  H   H96       1.0  0.46028  0.04668  0.29348  1.0000
  H   H97       1.0  0.42875  0.35516  0.26976  1.0000
  H   H98       1.0  0.33492  0.03133  0.41075  1.0000
  S   S28       1.0  0.12409  0.00664  0.41009  1.0000
  H   H99       1.0  0.02729  0.21979  0.45693  1.0000
  C   C89       1.0  0.45522  0.38315  0.31244  1.0000
  C   C90       1.0  0.27148  0.00976  0.40161  1.0000
  H   H100      1.0  0.18932  0.08716  0.46676  1.0000
  H   H101      1.0  0.37841  0.44841  0.26596  1.0000
  C   C91       1.0  0.43480  0.37963  0.32813  1.0000
  H   H102      1.0  0.23311  0.30763  0.44876  1.0000
  H   H103      1.0  0.23432  0.01707  0.40530  1.0000
  H   H104      1.0  0.06265  0.10158  0.43600  1.0000
  H   H105      1.0  0.38278  0.07915  0.30779  1.0000
  C   C92       1.0  0.01445  0.32881  0.36599  1.0000
  H   H106      1.0  0.04702  0.14536  0.37511  1.0000
  H   H107      1.0  0.07216  0.21788  0.44736  1.0000
  C   C93       1.0  0.28825  0.99774  0.41012  1.0000
  C   C94       1.0  0.40329  0.37878  0.26689  1.0000
  H   H108      1.0  0.16836  0.30529  0.47609  1.0000
  C   C95       1.0  0.20727  0.05778  0.46320  1.0000
  H   H109      1.0  0.99655  0.17160  0.42997  1.0000
  C   C96       1.0  0.41223  0.36005  0.27689  1.0000
  H   H110      1.0  0.01541  0.25919  0.39223  1.0000
  C   C97       1.0  0.34445  0.39964  0.27048  1.0000
  C   C98       1.0  0.21645  0.30454  0.46095  1.0000
  C   C99       1.0  0.19949  0.33388  0.44160  1.0000
  C   C100      1.0  0.17915  0.31463  0.43649  1.0000
  C   C101      1.0  0.21168  0.35812  0.42793  1.0000
  C   C102      1.0  0.17215  0.31899  0.41858  1.0000
  C   C103      1.0  0.20443  0.36228  0.41009  1.0000
  C   C104      1.0  0.18490  0.34268  0.40535  1.0000
  H   H111      1.0  0.24748  0.35455  0.45165  1.0000
  H   H112      1.0  0.13876  0.12979  0.41845  1.0000
  C   C105      1.0  0.04401  0.47725  0.25884  1.0000
  C   C106      1.0  0.43908  0.01107  0.37467  1.0000
  H   H113      1.0  0.27643  0.02006  0.38669  1.0000
  H   H114      1.0  0.03699  0.29114  0.38018  1.0000
  Fe  Fe9       1.0  0.37434  0.00264  0.33799  1.0000
  Fe  Fe10      1.0  0.35552  0.00978  0.30076  1.0000
  H   H115      1.0  0.01273  0.13111  0.40498  1.0000
  H   H116      1.0  0.07778  0.99839  0.47618  1.0000
  C   C107      1.0  0.06600  0.22227  0.46122  1.0000
  H   H117      1.0  0.15733  0.30360  0.41465  1.0000
  H   H118      1.0  0.18008  0.34559  0.39121  1.0000
  C   C108      1.0  0.06381  0.46790  0.29206  1.0000
  H   H119      1.0  0.40405  0.42197  0.24026  1.0000
  H   H120      1.0  0.12031  0.08162  0.41436  1.0000
  C   C109      1.0  0.12314  0.11993  0.38691  1.0000
  C   C110      1.0  0.41322  0.10982  0.28705  1.0000
  H   H121      1.0  0.47712  0.06608  0.33881  1.0000
  H   H122      1.0  0.21922  0.99274  0.43929  1.0000
  H   H123      1.0  0.46894  0.09617  0.33470  1.0000
  H   H124      1.0  0.22403  0.36815  0.46338  1.0000
  H   H125      1.0  0.28678  0.46912  0.30283  1.0000
  H   H126      1.0  0.46470  0.99491  0.28998  1.0000
  H   H127      1.0  0.44385  0.06471  0.34067  1.0000
  H   H128      1.0  0.43368  0.02253  0.38476  1.0000
  C   C111      1.0  0.11880  0.13102  0.41814  1.0000
  C   C112      1.0  0.04084  0.22363  0.46659  1.0000
  C   C113      1.0  0.24702  0.00817  0.41217  1.0000
  C   C114      1.0  0.40083  0.34848  0.29622  1.0000
  C   C115      1.0  0.44330  0.41825  0.29494  1.0000
  H   H129      1.0  0.33603  0.39874  0.28582  1.0000
  S   S29       1.0  0.15064  0.24961  0.48229  1.0000
  C   C116      1.0  0.44873  0.08813  0.30327  1.0000
  C   C117      1.0  0.03875  0.45228  0.29123  1.0000
  C   C118      1.0  0.33509  0.01121  0.40929  1.0000
  C   C119      1.0  0.44012  0.12105  0.27979  1.0000
  H   H130      1.0  0.41077  0.04224  0.28070  1.0000
  N   N6        1.0  0.32670  0.32305  0.38096  1.0000
  C   C120      1.0  0.32966  0.34384  0.39254  1.0000
  C   C121      1.0  0.35190  0.31744  0.37702  1.0000
  C   C122      1.0  0.32188  0.33392  0.36205  1.0000
  C   C123      1.0  0.30546  0.29883  0.39184  1.0000
  C   C124      1.0  0.30779  0.28524  0.40974  1.0000
  C   C125      1.0  0.28212  0.28801  0.38518  1.0000
  C   C126      1.0  0.28845  0.26184  0.41996  1.0000
  C   C127      1.0  0.26292  0.26458  0.39552  1.0000
  C   C128      1.0  0.26617  0.25141  0.41277  1.0000
  H   H131      1.0  0.33580  0.33833  0.40624  1.0000
  H   H132      1.0  0.34471  0.36278  0.38443  1.0000
  H   H133      1.0  0.31086  0.34796  0.39640  1.0000
  H   H134      1.0  0.35865  0.31190  0.39043  1.0000
  H   H135      1.0  0.36809  0.33504  0.36814  1.0000
  H   H136      1.0  0.35017  0.30111  0.36904  1.0000
  H   H137      1.0  0.33869  0.35145  0.35397  1.0000
  H   H138      1.0  0.31927  0.31926  0.35258  1.0000
  H   H139      1.0  0.27792  0.29734  0.37215  1.0000
  H   H140      1.0  0.24518  0.25676  0.39022  1.0000
  H   H141      1.0  0.25126  0.23315  0.42063  1.0000
  H   H142      1.0  0.37580  0.39532  0.23881  1.0000
  N   N7        1.0  0.37356  0.40740  0.26623  1.0000
  H   H143      1.0  0.03332  0.27987  0.34770  1.0000
  H   H144      1.0  0.22286  0.29960  0.47470  1.0000
  S   S30       1.0  0.00202  0.20390  0.39235  1.0000
  H   H145      1.0  0.00983  0.44440  0.27359  1.0000
  H   H146      1.0  0.02496  0.32887  0.37759  1.0000
  H   H147      1.0  0.20065  0.28667  0.46011  1.0000
  H   H148      1.0  0.45469  0.07242  0.26352  1.0000
  C   C129      1.0  0.42290  0.41486  0.31076  1.0000
  Fe  Fe11      1.0  0.16289  0.99897  0.40393  1.0000
  C   C130      1.0  0.37182  0.37486  0.29597  1.0000
  Fe  Fe12      1.0  0.36724  0.41543  0.34499  1.0000
  H   H149      1.0  0.46775  0.37092  0.31318  1.0000
  H   H150      1.0  0.29070  0.25167  0.43354  1.0000
  C   C131      1.0  0.45138  0.01807  0.24701  1.0000
  H   H151      1.0  0.22760  0.37387  0.43024  1.0000
  C   C132      1.0  0.05046  0.13501  0.38815  1.0000
  H   H152      1.0  0.33290  0.99964  0.42401  1.0000
  H   H153      1.0  0.00723  0.28726  0.39751  1.0000
  C   C133      1.0  0.22246  0.04341  0.47033  1.0000
  C   C134      1.0  0.25755  0.99962  0.35179  1.0000
  H   H154      1.0  0.27422  0.00886  0.33986  1.0000
  C   C135      1.0  0.30264  0.48475  0.29292  1.0000
  C   C136      1.0  0.20124  0.07660  0.47275  1.0000
  C   C137      1.0  0.32117  0.01392  0.37916  1.0000
  H   H155      1.0  0.41035  0.42701  0.31006  1.0000
  H   H156      1.0  0.40840  0.33458  0.30402  1.0000
  C   C138      1.0  0.39072  0.05550  0.25959  1.0000
  N   N8        1.0  0.10533  0.11369  0.40617  1.0000
  H   H157      1.0  0.07153  0.46439  0.30491  1.0000
  S   S31       1.0  0.39968  0.01955  0.35787  1.0000
  H   H158      1.0  0.01457  0.24746  0.36155  1.0000
  Fe  Fe13      1.0  0.13579  0.01651  0.43742  1.0000
  C   C139      1.0  0.45955  0.00070  0.37666  1.0000
  C   C140      1.0  0.02890  0.45683  0.27454  1.0000
  H   H159      1.0  0.12909  0.14125  0.38012  1.0000
  C   C141      1.0  0.41284  0.05505  0.26711  1.0000
  C   C142      1.0  0.38063  0.35584  0.30573  1.0000
  S   S32       1.0  0.35131  0.42561  0.37248  1.0000
  S   S33       1.0  0.37545  0.45575  0.32706  1.0000
  H   H160      1.0  0.32465  0.29262  0.41595  1.0000
  C   C143      1.0  0.03104  0.12694  0.40497  1.0000
  C   C144      1.0  0.03558  0.11448  0.42198  1.0000
  H   H161      1.0  0.02493  0.37128  0.36077  1.0000
  H   H162      1.0  0.30697  0.00488  0.37052  1.0000
  C   C145      1.0  0.45774  0.11051  0.28772  1.0000
  H   H163      1.0  0.37274  0.34780  0.32103  1.0000
  H   H164      1.0  0.10777  0.12606  0.43339  1.0000
  H   H165      1.0  0.40825  0.47802  0.36482  1.0000
  C   C146      1.0  0.98778  0.30783  0.34507  1.0000
  H   H166      1.0  0.47316  0.03768  0.31417  1.0000
  C   C147      1.0  0.00158  0.35526  0.34127  1.0000
  H   H167      1.0  0.47111  0.45686  0.35404  1.0000
  H   H168      1.0  0.37687  0.42930  0.28905  1.0000
  C   C148      1.0  0.01591  0.27937  0.38557  1.0000
  H   H169      1.0  0.99255  0.39874  0.24389  1.0000
  H   H170      1.0  0.22669  0.02844  0.46314  1.0000
  C   C149      1.0  0.04667  0.41961  0.24020  1.0000
  H   H171      1.0  0.43620  0.48665  0.27057  1.0000
  H   H172      1.0  0.48037  0.03394  0.26309  1.0000
  H   H173      1.0  0.43948  0.03570  0.31711  1.0000
  C   C150      1.0  0.45953  0.04770  0.30895  1.0000
  N   N9        1.0  0.31419  0.99872  0.39939  1.0000
  N   N10       1.0  0.46659  0.07544  0.31135  1.0000
  H   H174      1.0  0.10624  0.46337  0.23937  1.0000
  H   H175      1.0  0.20405  0.12801  0.47305  1.0000
  C   C151      1.0  0.44060  0.08976  0.24013  1.0000
  C   C152      1.0  0.98821  0.33253  0.33560  1.0000
  C   C153      1.0  0.46404  0.07567  0.33226  1.0000
  H   H176      1.0  0.38733  0.01178  0.24402  1.0000
  C   C154      1.0  0.39381  0.07218  0.24179  1.0000
  H   H177      1.0  0.46978  0.00412  0.38830  1.0000
  C   C155      1.0  0.38819  0.99491  0.23712  1.0000
  H   H178      1.0  0.45896  0.03599  0.23602  1.0000
  H   H179      1.0  0.47818  0.11962  0.28079  1.0000
  H   H180      1.0  0.47531  0.42302  0.33530  1.0000
  H   H181      1.0  0.37679  0.07242  0.23581  1.0000
  H   H182      1.0  0.37469  0.42840  0.23771  1.0000
  C   C156      1.0  0.44584  0.48969  0.29833  1.0000
  Fe  Fe14      1.0  0.21752  0.26697  0.60763  1.0000
  S   S34       1.0  0.17640  0.24070  0.62093  1.0000
  S   S35       1.0  0.24094  0.28500  0.62855  1.0000
  Fe  Fe15      1.0  0.21228  0.25556  0.56791  1.0000
  S   S36       1.0  0.17066  0.22893  0.57801  1.0000
  S   S37       1.0  0.23204  0.26067  0.53697  1.0000
  Fe  Fe16      1.0  0.16593  0.25976  0.59467  1.0000
  S   S38       1.0  0.13110  0.27414  0.59974  1.0000
  Fe  Fe17      1.0  0.18498  0.21228  0.60315  1.0000
  S   S39       1.0  0.17151  0.16846  0.61564  1.0000
  S   S40       1.0  0.20655  0.28812  0.58237  1.0000
  S   S41       1.0  0.22720  0.23679  0.59201  1.0000
  S   S42       1.0  0.16383  0.09331  0.55561  1.0000
  Fe  Fe18      1.0  0.47918  0.41053  0.72559  1.0000
  S   S43       1.0  0.36207  0.01499  0.63930  1.0000
  S   S44       1.0  0.03486  0.20080  0.57414  1.0000
  Fe  Fe19      1.0  0.03037  0.40096  0.67716  1.0000
  S   S45       1.0  0.06809  0.39532  0.66424  1.0000
  Fe  Fe20      1.0  0.03387  0.44380  0.64370  1.0000
  S   S46       1.0  0.07166  0.44196  0.62750  1.0000
  H   H183      1.0  0.18181  0.26919  0.54046  1.0000
  Fe  Fe21      1.0  0.05318  0.39796  0.63667  1.0000
  S   S47       1.0  0.05945  0.37181  0.61578  1.0000
  Fe  Fe22      1.0  0.08308  0.43945  0.65640  1.0000
  H   H184      1.0  0.15416  0.19877  0.52655  1.0000
  S   S48       1.0  0.04664  0.44488  0.67184  1.0000
  Fe  Fe23      1.0  0.32022  0.42208  0.64331  1.0000
  S   S49       1.0  0.32780  0.39714  0.66846  1.0000
  S   S50       1.0  0.29042  0.40744  0.62523  1.0000
  Fe  Fe24      1.0  0.36423  0.47123  0.64555  1.0000
  S   S51       1.0  0.37562  0.44980  0.67025  1.0000
  H   H185      1.0  0.47061  0.15262  0.68431  1.0000
  Fe  Fe25      1.0  0.37021  0.41698  0.65423  1.0000
  S   S52       1.0  0.39677  0.39270  0.64926  1.0000
  Fe  Fe26      1.0  0.33238  0.43263  0.68206  1.0000
  S   S53       1.0  0.32050  0.43232  0.71369  1.0000
  S   S54       1.0  0.36263  0.43996  0.62817  1.0000
  S   S55       1.0  0.32103  0.45597  0.65821  1.0000
  S   S56       1.0  0.31052  0.00830  0.67280  1.0000
  C   C157      1.0  0.45797  0.39268  0.68627  1.0000
  H   H186      1.0  0.02662  0.40325  0.60896  1.0000
  H   H187      1.0  0.47958  0.12509  0.67842  1.0000
  C   C158      1.0  0.44564  0.06174  0.63125  1.0000
  C   C159      1.0  0.21023  0.08166  0.48978  1.0000
  C   C160      1.0  0.33248  0.07163  0.72063  1.0000
  C   C161      1.0  0.02742  0.32217  0.67177  1.0000
  S   S57       1.0  0.00639  0.37836  0.70623  1.0000
  C   C162      1.0  0.98456  0.30604  0.70704  1.0000
  Fe  Fe27      1.0  0.99689  0.20932  0.58131  1.0000
  C   C163      1.0  0.39246  0.12230  0.68262  1.0000
  S   S58       1.0  0.99688  0.25041  0.57075  1.0000
  H   H188      1.0  0.47882  0.06187  0.68083  1.0000
  S   S59       1.0  0.18397  0.00807  0.62404  1.0000
  H   H189      1.0  0.09030  0.23568  0.50042  1.0000
  C   C164      1.0  0.18571  0.26229  0.52724  1.0000
  C   C165      1.0  0.99546  0.36930  0.58082  1.0000
  H   H190      1.0  0.06200  0.00380  0.52334  1.0000
  H   H191      1.0  0.41523  0.33097  0.72509  1.0000
  C   C166      1.0  0.10798  0.01022  0.49974  1.0000
  H   H192      1.0  0.16636  0.07508  0.51552  1.0000
  H   H193      1.0  0.41393  0.08417  0.67569  1.0000
  H   H194      1.0  0.05488  0.25113  0.54180  1.0000
  S   S60       1.0  0.34784  0.06762  0.64808  1.0000
  H   H195      1.0  0.01461  0.37486  0.57147  1.0000
  C   C167      1.0  0.43859  0.38054  0.65930  1.0000
  C   C168      1.0  0.42068  0.39397  0.66334  1.0000
  C   C169      1.0  0.42154  0.40702  0.67882  1.0000
  H   H196      1.0  0.43801  0.37041  0.64737  1.0000
  H   H197      1.0  0.40768  0.41729  0.68205  1.0000
  H   H198      1.0  0.26304  0.43992  0.71343  1.0000
  H   H199      1.0  0.20969  0.12064  0.52369  1.0000
  H   H200      1.0  0.12260  0.02142  0.50723  1.0000
  H   H201      1.0  0.07246  0.17828  0.52512  1.0000
  C   C170      1.0  0.11246  0.44364  0.69761  1.0000
  C   C171      1.0  0.11661  0.44367  0.71651  1.0000
  C   C172      1.0  0.40081  0.33892  0.71993  1.0000
  H   H202      1.0  0.09932  0.42631  0.69444  1.0000
  H   H203      1.0  0.41917  0.48283  0.63030  1.0000
  C   C173      1.0  0.03264  0.34413  0.61577  1.0000
  C   C174      1.0  0.03614  0.32594  0.60443  1.0000
  C   C175      1.0  0.01503  0.30349  0.60458  1.0000
  H   H204      1.0  0.05527  0.32902  0.59569  1.0000
  H   H205      1.0  0.01793  0.28939  0.59601  1.0000
  C   C176      1.0  0.25372  0.31917  0.62748  1.0000
  C   C177      1.0  0.25220  0.33789  0.61232  1.0000
  C   C178      1.0  0.26306  0.36495  0.61197  1.0000
  C   C179      1.0  0.27569  0.37342  0.62665  1.0000
  C   C180      1.0  0.27664  0.35469  0.64200  1.0000
  C   C181      1.0  0.26569  0.32768  0.64240  1.0000
  H   H206      1.0  0.24329  0.33157  0.60063  1.0000
  H   H207      1.0  0.26223  0.37939  0.60005  1.0000
  H   H208      1.0  0.28582  0.36101  0.65357  1.0000
  H   H209      1.0  0.26663  0.31328  0.65430  1.0000
  C   C182      1.0  0.10430  0.25591  0.59139  1.0000
  C   C183      1.0  0.07869  0.25412  0.59989  1.0000
  C   C184      1.0  0.05711  0.23780  0.59427  1.0000
  C   C185      1.0  0.06124  0.22336  0.58014  1.0000
  C   C186      1.0  0.08684  0.22635  0.57096  1.0000
  C   C187      1.0  0.10832  0.24259  0.57655  1.0000
  H   H210      1.0  0.07551  0.26472  0.61120  1.0000
  H   H211      1.0  0.03734  0.23581  0.60125  1.0000
  H   H212      1.0  0.09020  0.21617  0.55950  1.0000
  H   H213      1.0  0.12798  0.24486  0.56930  1.0000
  C   C188      1.0  0.17024  0.14772  0.59889  1.0000
  C   C189      1.0  0.17915  0.15815  0.57906  1.0000
  C   C190      1.0  0.17725  0.14125  0.56589  1.0000
  C   C191      1.0  0.16698  0.11384  0.57252  1.0000
  C   C192      1.0  0.15853  0.10335  0.59238  1.0000
  C   C193      1.0  0.15989  0.12029  0.60553  1.0000
  H   H214      1.0  0.18737  0.17927  0.57383  1.0000
  H   H215      1.0  0.18376  0.14948  0.55054  1.0000
  H   H216      1.0  0.15031  0.08224  0.59758  1.0000
  H   H217      1.0  0.15286  0.11215  0.62087  1.0000
  H   H218      1.0  0.35227  0.12179  0.68770  1.0000
  H   H219      1.0  0.01316  0.23018  0.48808  1.0000
  N   N11       1.0  0.09470  0.15429  0.58471  1.0000
  S   S61       1.0  0.42344  0.07883  0.63655  1.0000
  H   H220      1.0  0.06316  0.29946  0.63927  1.0000
  C   C194      1.0  0.06663  0.14802  0.59398  1.0000
  C   C195      1.0  0.10092  0.16674  0.56386  1.0000
  C   C196      1.0  0.12741  0.17817  0.55363  1.0000
  C   C197      1.0  0.13376  0.18979  0.53394  1.0000
  C   C198      1.0  0.13343  0.46608  0.72079  1.0000
  C   C199      1.0  0.21402  0.24793  0.50486  1.0000
  Fe  Fe28      1.0  0.33471  0.04629  0.67911  1.0000
  H   H221      1.0  0.37464  0.32786  0.61070  1.0000
  S   S62       1.0  0.37066  0.03445  0.67984  1.0000
  H   H222      1.0  0.04982  0.28205  0.50378  1.0000
  H   H223      1.0  0.06044  0.16596  0.59208  1.0000
  H   H224      1.0  0.05348  0.13265  0.58810  1.0000
  H   H225      1.0  0.06275  0.14013  0.60983  1.0000
  H   H226      1.0  0.14352  0.17815  0.56070  1.0000
  H   H227      1.0  0.98554  0.32978  0.57550  1.0000
  C   C200      1.0  0.07450  0.99250  0.52871  1.0000
  H   H228      1.0  0.10657  0.42639  0.72786  1.0000
  C   C201      1.0  0.43767  0.03794  0.62507  1.0000
  C   C202      1.0  0.23374  0.01444  0.60448  1.0000
  H   H229      1.0  0.11925  0.00618  0.48685  1.0000
  C   C203      1.0  0.17471  0.09471  0.50549  1.0000
  H   H230      1.0  0.09746  0.02389  0.49466  1.0000
  C   C204      1.0  0.35763  0.06997  0.72105  1.0000
  N   N12       1.0  0.20363  0.10195  0.49939  1.0000
  C   C205      1.0  0.22547  0.06644  0.49683  1.0000
  C   C206      1.0  0.47047  0.99976  0.67841  1.0000
  H   H231      1.0  0.42871  0.12572  0.65071  1.0000
  H   H232      1.0  0.38948  0.11165  0.67110  1.0000
  N   N13       1.0  0.22476  0.09542  0.61893  1.0000
  C   C207      1.0  0.19839  0.07877  0.63036  1.0000
  C   C208      1.0  0.22546  0.12331  0.61485  1.0000
  C   C209      1.0  0.22829  0.08706  0.60012  1.0000
  C   C210      1.0  0.24504  0.09303  0.63007  1.0000
  C   C211      1.0  0.24350  0.09893  0.64881  1.0000
  C   C212      1.0  0.26686  0.08531  0.62277  1.0000
  C   C213      1.0  0.26220  0.09655  0.65975  1.0000
  C   C214      1.0  0.28562  0.08331  0.63375  1.0000
  C   C215      1.0  0.28317  0.08864  0.65227  1.0000
  H   H233      1.0  0.19224  0.08601  0.64344  1.0000
  H   H234      1.0  0.18285  0.07804  0.62181  1.0000
  H   H235      1.0  0.19794  0.05808  0.63521  1.0000
  H   H236      1.0  0.21958  0.13019  0.62821  1.0000
  H   H237      1.0  0.21185  0.12640  0.60531  1.0000
  H   H238      1.0  0.24548  0.13663  0.60746  1.0000
  H   H239      1.0  0.22751  0.06604  0.60223  1.0000
  H   H240      1.0  0.21247  0.08865  0.59227  1.0000
  H   H241      1.0  0.24716  0.09953  0.59028  1.0000
  H   H242      1.0  0.22769  0.10530  0.65518  1.0000
  H   H243      1.0  0.26971  0.08011  0.60879  1.0000
  H   H244      1.0  0.26042  0.10069  0.67417  1.0000
  H   H245      1.0  0.30185  0.07691  0.62801  1.0000
  H   H246      1.0  0.29745  0.08647  0.66089  1.0000
  H   H247      1.0  0.02389  0.44897  0.56512  1.0000
  C   C216      1.0  0.01892  0.21868  0.52770  1.0000
  H   H248      1.0  0.43212  0.00653  0.66083  1.0000
  S   S63       1.0  0.13434  0.02276  0.59297  1.0000
  H   H249      1.0  0.08752  0.00467  0.53679  1.0000
  C   C217      1.0  0.03041  0.41429  0.59385  1.0000
  H   H250      1.0  0.22727  0.43328  0.69529  1.0000
  H   H251      1.0  0.23676  0.11128  0.51320  1.0000
  H   H252      1.0  0.00140  0.21535  0.52104  1.0000
  N   N14       1.0  0.34840  0.35065  0.61504  1.0000
  C   C218      1.0  0.37467  0.34861  0.60807  1.0000
  C   C219      1.0  0.35111  0.37910  0.61235  1.0000
  C   C220      1.0  0.34010  0.33931  0.63614  1.0000
  C   C221      1.0  0.32949  0.33602  0.60455  1.0000
  C   C222      1.0  0.32265  0.30817  0.60719  1.0000
  C   C223      1.0  0.31790  0.34872  0.59118  1.0000
  C   C224      1.0  0.30475  0.29390  0.59754  1.0000
  C   C225      1.0  0.30043  0.33427  0.58133  1.0000
  C   C226      1.0  0.29365  0.30692  0.58465  1.0000
  H   H253      1.0  0.38954  0.35970  0.61551  1.0000
  H   H254      1.0  0.38162  0.35681  0.59224  1.0000
  H   H255      1.0  0.35911  0.38959  0.59701  1.0000
  H   H256      1.0  0.36501  0.38938  0.62069  1.0000
  H   H257      1.0  0.33199  0.38209  0.61739  1.0000
  H   H258      1.0  0.35271  0.35128  0.64453  1.0000
  H   H259      1.0  0.31962  0.33846  0.64165  1.0000
  H   H260      1.0  0.34118  0.31909  0.63991  1.0000
  H   H261      1.0  0.33084  0.29713  0.61690  1.0000
  H   H262      1.0  0.32150  0.36974  0.58836  1.0000
  H   H263      1.0  0.29902  0.27257  0.60032  1.0000
  H   H264      1.0  0.29140  0.34427  0.57151  1.0000
  H   H265      1.0  0.27943  0.29574  0.57746  1.0000
  N   N15       1.0  0.17078  0.32275  0.63657  1.0000
  C   C227      1.0  0.19118  0.33052  0.64811  1.0000
  C   C228      1.0  0.15419  0.29519  0.64553  1.0000
  C   C229      1.0  0.18449  0.32338  0.61685  1.0000
  C   C230      1.0  0.15415  0.34004  0.63539  1.0000
  C   C231      1.0  0.15824  0.36274  0.64374  1.0000
  C   C232      1.0  0.13322  0.33453  0.62539  1.0000
  C   C233      1.0  0.14218  0.37868  0.64220  1.0000
  C   C234      1.0  0.11737  0.35062  0.62390  1.0000
  C   C235      1.0  0.12185  0.37265  0.63228  1.0000
  H   H266      1.0  0.18229  0.33017  0.66328  1.0000
  H   H267      1.0  0.20299  0.31681  0.64889  1.0000
  H   H268      1.0  0.20552  0.35046  0.64151  1.0000
  H   H269      1.0  0.14242  0.29400  0.66000  1.0000
  H   H270      1.0  0.16622  0.28184  0.64734  1.0000
  H   H271      1.0  0.14031  0.28662  0.63655  1.0000
  H   H272      1.0  0.19685  0.31024  0.61724  1.0000
  H   H273      1.0  0.17066  0.31654  0.60739  1.0000
  H   H274      1.0  0.19741  0.34368  0.60960  1.0000
  H   H275      1.0  0.17378  0.36877  0.65144  1.0000
  H   H276      1.0  0.12908  0.31783  0.61843  1.0000
  H   H277      1.0  0.14560  0.39598  0.64862  1.0000
  H   H278      1.0  0.10162  0.34616  0.61605  1.0000
  H   H279      1.0  0.10960  0.38517  0.63096  1.0000
  C   C236      1.0  0.23086  0.47900  0.73309  1.0000
  S   S64       1.0  0.01409  0.40008  0.65035  1.0000
  H   H280      1.0  0.06051  0.15855  0.55932  1.0000
  H   H281      1.0  0.36738  0.41267  0.70802  1.0000
  C   C237      1.0  0.45726  0.38005  0.67064  1.0000
  C   C238      1.0  0.32245  0.46409  0.71750  1.0000
  H   H282      1.0  0.98552  0.45310  0.69266  1.0000
  H   H283      1.0  0.08951  0.11538  0.57913  1.0000
  H   H284      1.0  0.39440  0.41707  0.72013  1.0000
  H   H285      1.0  0.00496  0.35384  0.63569  1.0000
  H   H286      1.0  0.20725  0.08674  0.52814  1.0000
  H   H287      1.0  0.98908  0.28801  0.71287  1.0000
  H   H288      1.0  0.24286  0.03609  0.49288  1.0000
  H   H289      1.0  0.30988  0.47558  0.69143  1.0000
  H   H290      1.0  0.06809  0.33562  0.65720  1.0000
  H   H291      1.0  0.16901  0.10918  0.51328  1.0000
  C   C239      1.0  0.20953  0.45852  0.70884  1.0000
  S   S65       1.0  0.21244  0.00190  0.53161  1.0000
  C   C240      1.0  0.99033  0.29928  0.61603  1.0000
  C   C241      1.0  0.44004  0.40616  0.69044  1.0000
  C   C242      1.0  0.37097  0.12806  0.69203  1.0000
  H   H292      1.0  0.44048  0.41591  0.70255  1.0000
  H   H293      1.0  0.47798  0.09053  0.63789  1.0000
  H   H294      1.0  0.01275  0.22231  0.54224  1.0000
  C   C243      1.0  0.06212  0.24612  0.52788  1.0000
  C   C244      1.0  0.17275  0.25107  0.49780  1.0000
  H   H295      1.0  0.13166  0.17449  0.59186  1.0000
  H   H296      1.0  0.04143  0.40457  0.58468  1.0000
  Fe  Fe29      1.0  0.18284  0.00935  0.55351  1.0000
  C   C245      1.0  0.27191  0.02174  0.61931  1.0000
  H   H297      1.0  0.01975  0.26602  0.64323  1.0000
  H   H298      1.0  0.02189  0.41844  0.55797  1.0000
  H   H299      1.0  0.00135  0.32337  0.70745  1.0000
  C   C246      1.0  0.02197  0.28137  0.65158  1.0000
  C   C247      1.0  0.21363  0.12788  0.48568  1.0000
  S   S66       1.0  0.46262  0.06722  0.71918  1.0000
  Fe  Fe30      1.0  0.38189  0.05231  0.64819  1.0000
  H   H300      1.0  0.02381  0.20002  0.52987  1.0000
  H   H301      1.0  0.47114  0.36972  0.66733  1.0000
  H   H302      1.0  0.43637  0.14885  0.70941  1.0000
  C   C248      1.0  0.38950  0.35389  0.73062  1.0000
  N   N16       1.0  0.43896  0.12168  0.67885  1.0000
  S   S67       1.0  0.12241  0.46532  0.65882  1.0000
  H   H303      1.0  0.12217  0.13293  0.58063  1.0000
  Fe  Fe31      1.0  0.16008  0.05069  0.56605  1.0000
  C   C249      1.0  0.24980  0.46597  0.72945  1.0000
  C   C250      1.0  0.21496  0.10524  0.51681  1.0000
  H   H304      1.0  0.40548  0.99066  0.68104  1.0000
  C   C251      1.0  0.44542  0.13296  0.65778  1.0000
  C   C252      1.0  0.43113  0.09254  0.68194  1.0000
  C   C253      1.0  0.41693  0.12921  0.68844  1.0000
  H   H305      1.0  0.22529  0.01182  0.59191  1.0000
  H   H306      1.0  0.44710  0.08589  0.67497  1.0000
  H   H307      1.0  0.09741  0.11951  0.60228  1.0000
  H   H308      1.0  0.40363  0.32380  0.69386  1.0000
  H   H309      1.0  0.36583  0.42492  0.72981  1.0000
  C   C254      1.0  0.16773  0.25973  0.51503  1.0000
  C   C255      1.0  0.03345  0.26489  0.51283  1.0000
  H   H310      1.0  0.42586  0.08331  0.69765  1.0000
  C   C256      1.0  0.10116  0.12943  0.58682  1.0000
  C   C257      1.0  0.37302  0.14039  0.70769  1.0000
  C   C258      1.0  0.41859  0.14258  0.70406  1.0000
  S   S68       1.0  0.19626  0.04083  0.57011  1.0000
  C   C259      1.0  0.12595  0.46568  0.68280  1.0000
  Fe  Fe32      1.0  0.12613  0.99263  0.57416  1.0000
  C   C260      1.0  0.45547  0.02417  0.62134  1.0000
  C   C261      1.0  0.00790  0.33997  0.62703  1.0000
  H   H311      1.0  0.23197  0.24340  0.50093  1.0000
  C   C262      1.0  0.23162  0.04782  0.48705  1.0000
  C   C263      1.0  0.07577  0.23258  0.49155  1.0000
  H   H312      1.0  0.10472  0.16387  0.61151  1.0000
  C   C264      1.0  0.08120  0.16675  0.55290  1.0000
  C   C265      1.0  0.11042  0.17189  0.59563  1.0000
  C   C266      1.0  0.05038  0.23461  0.49737  1.0000
  Fe  Fe33      1.0  0.34781  0.99810  0.67109  1.0000
  C   C267      1.0  0.36548  0.36120  0.70567  1.0000
  C   C268      1.0  0.25600  0.02049  0.63700  1.0000
  C   C269      1.0  0.20900  0.25662  0.52210  1.0000
  H   H313      1.0  0.32586  0.37843  0.72183  1.0000
  H   H314      1.0  0.14991  0.26450  0.51896  1.0000
  C   C270      1.0  0.21778  0.01312  0.62212  1.0000
  S   S69       1.0  0.31696  0.06492  0.70126  1.0000
  H   H315      1.0  0.10800  0.19173  0.59305  1.0000
  C   C271      1.0  0.39429  0.33482  0.70233  1.0000
  Fe  Fe34      1.0  0.32670  0.02865  0.64169  1.0000
  C   C272      1.0  0.46340  0.13079  0.68622  1.0000
  C   C273      1.0  0.00005  0.28280  0.66390  1.0000
  Fe  Fe35      1.0  0.17010  0.01069  0.59582  1.0000
  H   H316      1.0  0.45120  0.15484  0.65488  1.0000
  C   C274      1.0  0.11400  0.18987  0.52372  1.0000
  H   H317      1.0  0.26450  0.02277  0.64960  1.0000
  C   C275      1.0  0.47157  0.07196  0.63338  1.0000
  H   H318      1.0  0.47620  0.01794  0.68425  1.0000
  H   H319      1.0  0.36823  0.06455  0.70919  1.0000
  C   C276      1.0  0.37644  0.34570  0.69533  1.0000
  S   S70       1.0  0.30556  0.02562  0.61689  1.0000
  C   C277      1.0  0.26071  0.01888  0.60307  1.0000
  C   C278      1.0  0.39679  0.14773  0.71364  1.0000
  N   N17       1.0  0.04163  0.24102  0.51612  1.0000
  H   H320      1.0  0.48024  0.00443  0.72695  1.0000
  S   S71       1.0  0.14909  0.02198  0.54683  1.0000
  H   H321      1.0  0.27290  0.01977  0.58936  1.0000
  H   H322      1.0  0.19380  0.45562  0.70090  1.0000
  C   C279      1.0  0.24835  0.44964  0.71599  1.0000
  C   C280      1.0  0.00326  0.47471  0.72251  1.0000
  C   C281      1.0  0.00212  0.30340  0.67437  1.0000
  C   C282      1.0  0.01126  0.42802  0.56756  1.0000
  C   C283      1.0  0.99452  0.43105  0.59984  1.0000
  H   H323      1.0  0.44042  0.00067  0.71107  1.0000
  N   N18       1.0  0.00546  0.41471  0.58820  1.0000
  H   H324      1.0  0.17230  0.00677  0.50993  1.0000
  H   H325      1.0  0.23256  0.06810  0.51002  1.0000
  H   H326      1.0  0.07982  0.26293  0.52015  1.0000
  H   H327      1.0  0.46049  0.12169  0.70177  1.0000
  S   S72       1.0  0.01172  0.47049  0.63368  1.0000
  H   H328      1.0  0.04392  0.43449  0.59294  1.0000
  C   C284      1.0  0.22897  0.01621  0.63838  1.0000
  H   H329      1.0  0.11905  0.19885  0.50843  1.0000
  H   H330      1.0  0.39819  0.15696  0.72604  1.0000
  C   C285      1.0  0.08779  0.17827  0.53315  1.0000
  H   H331      1.0  0.46176  0.12737  0.65010  1.0000
  H   H332      1.0  0.21673  0.01532  0.65206  1.0000
  C   C286      1.0  0.98685  0.31763  0.62716  1.0000
  C   C287      1.0  0.22826  0.44590  0.70573  1.0000
  H   H333      1.0  0.40251  0.48748  0.71653  1.0000
  C   C288      1.0  0.37261  0.41064  0.72245  1.0000
  C   C289      1.0  0.37154  0.36567  0.72373  1.0000
  C   C290      1.0  0.31616  0.48157  0.70408  1.0000
  H   H334      1.0  0.01657  0.26204  0.50550  1.0000
  H   H335      1.0  0.37210  0.34324  0.68131  1.0000
  C   C291      1.0  0.04916  0.32058  0.65938  1.0000
  H   H336      1.0  0.41790  0.03026  0.62295  1.0000
  H   H337      1.0  0.43068  0.02032  0.68189  1.0000
  C   C292      1.0  0.04644  0.30024  0.64928  1.0000
  H   H338      1.0  0.06801  0.22834  0.53197  1.0000
  H   H339      1.0  0.20995  0.14388  0.49263  1.0000
  H   H340      1.0  0.35302  0.37048  0.69902  1.0000
  H   H341      1.0  0.02677  0.27028  0.52672  1.0000
  H   H342      1.0  0.30412  0.01303  0.72840  1.0000
  H   H343      1.0  0.03049  0.33854  0.67908  1.0000
  H   H344      1.0  0.35598  0.14374  0.71548  1.0000
  H   H345      1.0  0.47656  0.00627  0.66244  1.0000
  H   H346      1.0  0.16473  0.09398  0.49306  1.0000
  H   H347      1.0  0.01206  0.48081  0.67783  1.0000
  H   H348      1.0  0.99488  0.45463  0.72097  1.0000
  H   H349      1.0  0.35347  0.99192  0.71077  1.0000
  C   C293      1.0  0.98765  0.38734  0.59090  1.0000
  S   S73       1.0  0.47966  0.45241  0.72266  1.0000
  C   C294      1.0  0.42697  0.00138  0.67684  1.0000
  H   H350      1.0  0.44923  0.00575  0.61658  1.0000
  C   C295      1.0  0.19573  0.24478  0.49285  1.0000
  H   H351      1.0  0.99284  0.42779  0.56256  1.0000
  C   C296      1.0  0.21085  0.47495  0.72219  1.0000
  H   H352      1.0  0.99255  0.34839  0.67853  1.0000
  H   H353      1.0  0.19046  0.31795  0.49076  1.0000
  H   H354      1.0  0.00842  0.45146  0.59755  1.0000
  C   C297      1.0  0.18070  0.99248  0.50508  1.0000
  C   C298      1.0  0.99067  0.47352  0.68422  1.0000
  H   H355      1.0  0.98163  0.26795  0.66441  1.0000
  H   H356      1.0  0.19597  0.48449  0.72383  1.0000
  H   H357      1.0  0.99066  0.42279  0.61565  1.0000
  C   C299      1.0  0.14290  0.48806  0.68705  1.0000
  C   C300      1.0  0.14627  0.48845  0.70609  1.0000
  C   C301      1.0  0.32979  0.47191  0.73419  1.0000
  N   N19       1.0  0.36077  0.38332  0.73390  1.0000
  H   H358      1.0  0.45609  0.08108  0.91618  1.0000
  C   C302      1.0  0.36934  0.07592  0.73676  1.0000
  S   S74       1.0  0.44450  0.39366  0.75025  1.0000
  H   H359      1.0  0.46940  0.15321  0.89655  1.0000
  H   H360      1.0  0.44165  0.09420  0.83291  1.0000
  C   C303      1.0  0.01753  0.47853  0.73709  1.0000
  H   H361      1.0  0.45178  0.28138  0.80950  1.0000
  S   S75       1.0  0.13896  0.46566  0.74439  1.0000
  C   C304      1.0  0.20625  0.48905  0.76071  1.0000
  C   C305      1.0  0.39627  0.48899  0.75730  1.0000
  C   C306      1.0  0.43896  0.30862  0.83808  1.0000
  H   H362      1.0  0.02011  0.46177  0.74604  1.0000
  H   H363      1.0  0.47835  0.46604  0.92936  1.0000
  H   H364      1.0  0.46081  0.06750  0.88605  1.0000
  C   C307      1.0  0.43358  0.46530  0.90156  1.0000
  H   H365      1.0  0.07219  0.48134  0.78756  1.0000
  C   C308      1.0  0.44883  0.09869  0.84572  1.0000
  H   H366      1.0  0.44049  0.43142  0.83326  1.0000
  H   H367      1.0  0.47084  0.13665  0.91939  1.0000
  Fe  Fe36      1.0  0.41108  0.09267  0.77006  1.0000
  S   S76       1.0  0.42410  0.05731  0.76948  1.0000
  S   S77       1.0  0.36840  0.08845  0.77289  1.0000
  H   H368      1.0  0.26608  0.46818  0.73667  1.0000
  H   H369      1.0  0.45766  0.31201  0.88807  1.0000
  Fe  Fe37      1.0  0.46644  0.12907  0.76709  1.0000
  H   H370      1.0  0.47841  0.36726  0.97013  1.0000
  C   C309      1.0  0.45175  0.40430  0.81729  1.0000
  Fe  Fe38      1.0  0.44999  0.07338  0.78917  1.0000
  S   S78       1.0  0.45845  0.05185  0.81539  1.0000
  C   C310      1.0  0.46524  0.02364  0.81041  1.0000
  S   S79       1.0  0.43374  0.10628  0.79227  1.0000
  H   H371      1.0  0.43008  0.45915  0.97168  1.0000
  H   H372      1.0  0.35824  0.36317  0.76292  1.0000
  C   C311      1.0  0.46230  0.30333  0.84117  1.0000
  C   C312      1.0  0.41927  0.47918  0.91077  1.0000
  Fe  Fe39      1.0  0.47387  0.40127  0.76917  1.0000
  H   H373      1.0  0.45658  0.14035  0.83696  1.0000
  H   H374      1.0  0.29976  0.08046  0.73574  1.0000
  C   C313      1.0  0.46829  0.30448  0.85970  1.0000
  S   S80       1.0  0.45677  0.42274  0.86952  1.0000
  S   S81       1.0  0.47382  0.44229  0.76996  1.0000
  H   H375      1.0  0.20026  0.46808  0.76837  1.0000
  C   C314      1.0  0.42962  0.31598  0.87065  1.0000
  C   C315      1.0  0.47690  0.09386  0.91090  1.0000
  C   C316      1.0  0.05233  0.48201  0.78924  1.0000
  H   H376      1.0  0.38877  0.07472  0.73701  1.0000
  C   C317      1.0  0.45042  0.07852  0.85956  1.0000
  H   H377      1.0  0.43305  0.30895  0.82435  1.0000
  C   C318      1.0  0.46721  0.13053  0.86430  1.0000
  C   C319      1.0  0.41608  0.47741  0.75644  1.0000
  H   H378      1.0  0.32430  0.02796  0.75449  1.0000
  S   S82       1.0  0.47166  0.37300  0.79640  1.0000
  C   C320      1.0  0.47116  0.29682  0.80746  1.0000
  C   C321      1.0  0.45469  0.46085  0.90858  1.0000
  C   C322      1.0  0.32098  0.01605  0.79439  1.0000
  H   H379      1.0  0.32427  0.03488  0.78414  1.0000
  N   N20       1.0  0.47918  0.11721  0.89603  1.0000
  H   H380      1.0  0.47443  0.15108  0.86506  1.0000
  C   C323      1.0  0.45261  0.00976  0.79779  1.0000
  C   C324      1.0  0.46463  0.38396  0.85124  1.0000
  C   C325      1.0  0.46336  0.38437  0.81747  1.0000
  H   H381      1.0  0.46415  0.25561  0.83662  1.0000
  C   C326      1.0  0.46929  0.37392  0.83462  1.0000
  S   S83       1.0  0.44208  0.11900  0.74492  1.0000
  C   C327      1.0  0.35562  0.08296  0.75222  1.0000
  C   C328      1.0  0.42295  0.31481  0.85269  1.0000
  H   H382      1.0  0.43768  0.01563  0.79177  1.0000
  H   H383      1.0  0.32908  0.02213  0.80697  1.0000
  C   C329      1.0  0.33055  0.08450  0.75176  1.0000
  H   H384      1.0  0.47774  0.41517  0.95864  1.0000
  N   N21       1.0  0.48032  0.29759  0.82594  1.0000
  H   H385      1.0  0.44438  0.05844  0.85732  1.0000
  C   C330      1.0  0.03165  0.45938  0.78935  1.0000
  C   C331      1.0  0.36170  0.01369  0.77737  1.0000
  C   C332      1.0  0.45226  0.31080  0.87416  1.0000
  C   C333      1.0  0.36624  0.38330  0.75362  1.0000
  H   H386      1.0  0.40271  0.48254  0.90537  1.0000
  H   H387      1.0  0.03565  0.44130  0.78773  1.0000
  C   C334      1.0  0.31752  0.00704  0.75504  1.0000
  H   H388      1.0  0.36410  0.03056  0.76549  1.0000
  H   H389      1.0  0.41745  0.32132  0.88178  1.0000
  H   H390      1.0  0.38762  0.39124  0.75317  1.0000
  H   H391      1.0  0.24901  0.47654  0.76700  1.0000
  C   C335      1.0  0.46006  0.08411  0.87600  1.0000
  C   C336      1.0  0.46503  0.13319  0.90550  1.0000
  H   H392      1.0  0.40562  0.31944  0.84989  1.0000
  Fe  Fe40      1.0  0.45652  0.08423  0.74551  1.0000
  H   H393      1.0  0.31988  0.08991  0.76366  1.0000
  C   C337      1.0  0.00594  0.46017  0.79130  1.0000
  C   C338      1.0  0.00087  0.48362  0.79322  1.0000
  H   H394      1.0  0.44532  0.41121  0.80460  1.0000
  H   H395      1.0  0.35750  0.39641  0.76099  1.0000
  H   H396      1.0  0.42916  0.46950  0.81995  1.0000
  H   H397      1.0  0.47059  0.47838  0.82762  1.0000
  H   H398      1.0  0.37179  0.02208  0.78847  1.0000
  C   C339      1.0  0.44840  0.41531  0.83368  1.0000
  H   H399      1.0  0.42832  0.45785  0.88898  1.0000
  H   H400      1.0  0.47788  0.35833  0.83508  1.0000
  C   C340      1.0  0.46860  0.11041  0.87893  1.0000
  H   H401      1.0  0.46556  0.44983  0.90143  1.0000
  H   H402      1.0  0.32230  0.35439  0.74326  1.0000
  C   C341      1.0  0.31914  0.07909  0.73597  1.0000
  C   C342      1.0  0.45711  0.12463  0.84810  1.0000
  H   H403      1.0  0.37730  0.47855  0.75478  1.0000
  S   S84       1.0  0.41056  0.44663  0.75032  1.0000
  H   H404      1.0  0.40267  0.47973  0.84797  1.0000
  C   C343      1.0  0.30604  0.99867  0.73996  1.0000
  C   C344      1.0  0.45581  0.40575  0.85047  1.0000
  H   H405      1.0  0.47254  0.33579  0.96349  1.0000
  H   H406      1.0  0.33461  0.45842  0.74467  1.0000
  C   C345      1.0  0.44773  0.48473  0.93443  1.0000
  N   N22       1.0  0.33376  0.99849  0.78569  1.0000
  H   H407      1.0  0.32319  0.38766  0.74444  1.0000
  S   S85       1.0  0.47965  0.39874  0.91725  1.0000
  H   H408      1.0  0.46788  0.37480  0.86464  1.0000
  H   H409      1.0  0.29943  0.00621  0.79933  1.0000
  C   C346      1.0  0.46182  0.47036  0.92473  1.0000
  H   H410      1.0  0.37250  0.00107  0.77140  1.0000
  H   H411      1.0  0.46966  0.31626  0.80098  1.0000
  C   C347      1.0  0.43287  0.48067  0.96872  1.0000
  H   H412      1.0  0.44342  0.12331  0.90869  1.0000
  H   H413      1.0  0.41380  0.48286  0.96655  1.0000
  H   H414      1.0  0.47719  0.47028  0.96048  1.0000
  H   H415      1.0  0.45628  0.48266  0.75823  1.0000
  H   H416      1.0  0.39563  0.35637  0.74403  1.0000
  Fe  Fe41      1.0  0.44725  0.43586  0.74895  1.0000
  C   C348      1.0  0.33184  0.37545  0.73595  1.0000
  H   H417      1.0  0.98329  0.38888  0.74170  1.0000
  C   C349      1.0  0.42601  0.48853  0.92707  1.0000
  H   H418      1.0  0.43671  0.48815  0.98200  1.0000
  H   H419      1.0  0.98107  0.48440  0.79449  1.0000
  S   S86       1.0  0.44469  0.59771  0.22373  1.0000
  C   C350      1.0  0.46485  0.56967  0.14868  1.0000
  Fe  Fe42      1.0  0.08121  0.56982  0.17819  1.0000
  S   S87       1.0  0.06657  0.57005  0.20923  1.0000
  S   S88       1.0  0.11146  0.60430  0.15740  1.0000
  Fe  Fe43      1.0  0.07059  0.52982  0.21558  1.0000
  H   H420      1.0  0.46722  0.50744  0.08697  1.0000
  H   H421      1.0  0.41774  0.54354  0.17156  1.0000
  S   S89       1.0  0.08933  0.53160  0.18498  1.0000
  H   H422      1.0  0.33181  0.68596  0.15384  1.0000
  C   C351      1.0  0.28814  0.55305  0.99787  1.0000
  H   H423      1.0  0.39131  0.88259  0.12446  1.0000
  C   C352      1.0  0.34367  0.78686  0.00528  1.0000
  Fe  Fe44      1.0  0.35694  0.80656  0.10136  1.0000
  S   S90       1.0  0.39415  0.80169  0.08652  1.0000
  S   S91       1.0  0.35526  0.83109  0.12389  1.0000
  Fe  Fe45      1.0  0.32332  0.77161  0.07967  1.0000
  S   S92       1.0  0.35730  0.76302  0.06346  1.0000
  S   S93       1.0  0.28469  0.75388  0.07217  1.0000
  Fe  Fe46      1.0  0.36975  0.75908  0.09173  1.0000
  S   S94       1.0  0.38468  0.72625  0.10230  1.0000
  Fe  Fe47      1.0  0.37779  0.80612  0.05967  1.0000
  S   S95       1.0  0.40029  0.82786  0.02989  1.0000
  S   S96       1.0  0.33368  0.76358  0.10858  1.0000
  S   S97       1.0  0.34286  0.81519  0.07395  1.0000
  Fe  Fe48      1.0  0.40558  0.57659  0.05096  1.0000
  S   S98       1.0  0.39689  0.54685  0.07851  1.0000
  S   S99       1.0  0.43525  0.57986  0.02448  1.0000
  Fe  Fe49      1.0  0.36683  0.60235  0.06654  1.0000
  S   S100      1.0  0.35451  0.57495  0.09546  1.0000
  S   S101      1.0  0.34733  0.63285  0.05986  1.0000
  Fe  Fe50      1.0  0.39737  0.58091  0.09298  1.0000
  S   S102      1.0  0.41624  0.58515  0.11864  1.0000
  Fe  Fe51      1.0  0.35488  0.54362  0.07853  1.0000
  H   H424      1.0  0.40620  0.97337  0.20824  1.0000
  S   S103      1.0  0.40995  0.61120  0.06526  1.0000
  S   S104      1.0  0.36351  0.57044  0.04961  1.0000
  Fe  Fe52      1.0  0.22837  0.61194  0.07232  1.0000
  S   S105      1.0  0.25008  0.59819  0.04912  1.0000
  S   S106      1.0  0.24731  0.63070  0.09443  1.0000
  Fe  Fe53      1.0  0.17595  0.58961  0.06236  1.0000
  S   S107      1.0  0.19243  0.57332  0.03802  1.0000
  S   S108      1.0  0.13339  0.58545  0.07224  1.0000
  Fe  Fe54      1.0  0.21617  0.56078  0.05834  1.0000
  S   S109      1.0  0.21933  0.52006  0.06246  1.0000
  Fe  Fe55      1.0  0.22508  0.61201  0.03053  1.0000
  S   S110      1.0  0.24631  0.63297  0.00008  1.0000
  S   S111      1.0  0.19663  0.57318  0.08332  1.0000
  S   S112      1.0  0.20639  0.62956  0.05306  1.0000
  H   H425      1.0  0.13423  0.53926  0.09521  1.0000
  C   C353      1.0  0.29155  0.53508  0.07550  1.0000
  C   C354      1.0  0.26854  0.53848  0.07063  1.0000
  C   C355      1.0  0.24749  0.51654  0.07016  1.0000
  N   N23       1.0  0.45404  0.49942  0.06077  1.0000
  H   H426      1.0  0.02141  0.58899  0.13937  1.0000
  H   H427      1.0  0.30794  0.55210  0.07543  1.0000
  H   H428      1.0  0.26743  0.55807  0.06682  1.0000
  H   H429      1.0  0.99425  0.49553  0.18360  1.0000
  C   C356      1.0  0.45291  0.49184  0.13894  1.0000
  C   C357      1.0  0.26217  0.66473  0.08653  1.0000
  C   C358      1.0  0.26009  0.67747  0.06863  1.0000
  C   C359      1.0  0.26763  0.70503  0.06399  1.0000
  C   C360      1.0  0.27789  0.71977  0.07705  1.0000
  C   C361      1.0  0.28164  0.70708  0.09439  1.0000
  C   C362      1.0  0.27367  0.67951  0.09918  1.0000
  H   H430      1.0  0.25199  0.66617  0.05858  1.0000
  H   H431      1.0  0.26522  0.71492  0.05041  1.0000
  H   H432      1.0  0.28959  0.71847  0.10449  1.0000
  H   H433      1.0  0.27544  0.66971  0.11300  1.0000
  C   C363      1.0  0.35570  0.65718  0.07340  1.0000
  C   C364      1.0  0.37573  0.65827  0.08363  1.0000
  C   C365      1.0  0.38392  0.67900  0.09317  1.0000
  C   C366      1.0  0.37196  0.69862  0.09256  1.0000
  C   C367      1.0  0.35073  0.69655  0.08340  1.0000
  C   C368      1.0  0.34275  0.67596  0.07367  1.0000
  H   H434      1.0  0.38550  0.64360  0.08375  1.0000
  H   H435      1.0  0.40005  0.68025  0.10052  1.0000
  H   H436      1.0  0.34046  0.71081  0.08375  1.0000
  H   H437      1.0  0.32667  0.67477  0.06626  1.0000
  H   H438      1.0  0.31422  0.50697  0.14473  1.0000
  C   C369      1.0  0.38895  0.52405  0.00206  1.0000
  C   C370      1.0  0.39970  0.53861  0.01517  1.0000
  C   C371      1.0  0.42155  0.56134  0.00843  1.0000
  S   S113      1.0  0.32232  0.50509  0.08551  1.0000
  H   H439      1.0  0.45277  0.53167  0.03949  1.0000
  H   H440      1.0  0.39110  0.53229  0.03046  1.0000
  H   H441      1.0  0.44851  0.56634  0.14076  1.0000
  S   S114      1.0  0.04137  0.55188  0.17239  1.0000
  C   C372      1.0  0.37286  0.82625  0.14196  1.0000
  C   C373      1.0  0.38713  0.83772  0.17095  1.0000
  C   C374      1.0  0.37172  0.83962  0.15716  1.0000
  H   H442      1.0  0.38596  0.84799  0.18270  1.0000
  H   H443      1.0  0.35905  0.85170  0.15821  1.0000
  Fe  Fe56      1.0  0.40351  0.88979  0.22126  1.0000
  H   H444      1.0  0.36357  0.76407  0.17509  1.0000
  C   C375      1.0  0.04044  0.61573  0.15531  1.0000
  H   H445      1.0  0.34627  0.79567  0.03337  1.0000
  C   C376      1.0  0.12706  0.59066  0.09591  1.0000
  C   C377      1.0  0.10120  0.58537  0.10582  1.0000
  C   C378      1.0  0.09614  0.58882  0.12496  1.0000
  C   C379      1.0  0.11698  0.59787  0.13410  1.0000
  C   C380      1.0  0.14271  0.60285  0.12426  1.0000
  C   C381      1.0  0.14775  0.59937  0.10520  1.0000
  H   H446      1.0  0.08511  0.57856  0.09870  1.0000
  H   H447      1.0  0.07618  0.58487  0.13250  1.0000
  H   H448      1.0  0.15875  0.60930  0.13148  1.0000
  H   H449      1.0  0.16771  0.60375  0.09762  1.0000
  C   C382      1.0  0.01364  0.62373  0.18233  1.0000
  C   C383      1.0  0.46222  0.87778  0.14468  1.0000
  C   C384      1.0  0.37575  0.60114  0.99656  1.0000
  Fe  Fe57      1.0  0.36973  0.62713  0.20768  1.0000
  S   S115      1.0  0.42398  0.82101  0.18633  1.0000
  H   H450      1.0  0.23465  0.57485  0.99645  1.0000
  Fe  Fe58      1.0  0.02719  0.54872  0.20403  1.0000
  H   H451      1.0  0.31508  0.66387  0.00426  1.0000
  C   C385      1.0  0.44286  0.89702  0.11970  1.0000
  S   S116      1.0  0.44002  0.91068  0.23059  1.0000
  C   C386      1.0  0.37773  0.62456  0.16131  1.0000
  C   C387      1.0  0.39487  0.61127  0.16663  1.0000
  C   C388      1.0  0.40709  0.59981  0.15328  1.0000
  C   C389      1.0  0.40207  0.60132  0.13462  1.0000
  C   C390      1.0  0.38570  0.61547  0.12904  1.0000
  C   C391      1.0  0.37389  0.62746  0.14230  1.0000
  H   H452      1.0  0.39875  0.60975  0.18102  1.0000
  H   H453      1.0  0.42013  0.58950  0.15753  1.0000
  H   H454      1.0  0.38232  0.61731  0.11452  1.0000
  H   H455      1.0  0.36167  0.63881  0.13789  1.0000
  H   H456      1.0  0.44202  0.85577  0.12658  1.0000
  H   H457      1.0  0.36506  0.68506  0.19675  1.0000
  C   C392      1.0  0.03821  0.62823  0.17081  1.0000
  N   N24       1.0  0.45902  0.54839  0.16606  1.0000
  C   C393      1.0  0.40990  0.75931  0.02480  1.0000
  C   C394      1.0  0.45612  0.51715  0.14253  1.0000
  H   H458      1.0  0.45523  0.81301  0.21520  1.0000
  C   C395      1.0  0.40888  0.51963  0.23126  1.0000
  H   H459      1.0  0.42104  0.74247  0.23260  1.0000
  N   N25       1.0  0.39997  0.73685  0.01546  1.0000
  H   H460      1.0  0.36366  0.70563  0.01838  1.0000
  H   H461      1.0  0.39995  0.70708  0.05023  1.0000
  H   H462      1.0  0.12353  0.54314  0.13008  1.0000
  C   C396      1.0  0.10590  0.52564  0.13160  1.0000
  C   C397      1.0  0.42644  0.68680  0.04166  1.0000
  H   H463      1.0  0.45378  0.75800  0.21794  1.0000
  H   H464      1.0  0.05560  0.64119  0.17404  1.0000
  C   C398      1.0  0.33519  0.69254  0.16752  1.0000
  C   C399      1.0  0.40250  0.74767  0.99460  1.0000
  H   H465      1.0  0.43610  0.97343  0.21593  1.0000
  C   C400      1.0  0.44334  0.68278  0.02659  1.0000
  H   H466      1.0  0.44271  0.86620  0.09238  1.0000
  H   H467      1.0  0.03185  0.59514  0.22256  1.0000
  C   C401      1.0  0.47087  0.90197  0.15004  1.0000
  H   H468      1.0  0.29260  0.51540  0.03960  1.0000
  C   C402      1.0  0.35656  0.79919  0.01857  1.0000
  C   C403      1.0  0.45120  0.92115  0.12603  1.0000
  H   H469      1.0  0.34032  0.74330  0.15473  1.0000
  H   H470      1.0  0.37539  0.75367  0.14516  1.0000
  N   N26       1.0  0.29495  0.59719  0.11951  1.0000
  C   C404      1.0  0.31622  0.62103  0.12066  1.0000
  C   C405      1.0  0.29305  0.59923  0.09881  1.0000
  C   C406      1.0  0.27006  0.59747  0.13103  1.0000
  C   C407      1.0  0.29958  0.57234  0.12716  1.0000
  C   C408      1.0  0.28659  0.54840  0.12197  1.0000
  C   C409      1.0  0.31632  0.57097  0.14043  1.0000
  C   C410      1.0  0.29196  0.52516  0.12821  1.0000
  C   C411      1.0  0.32151  0.54762  0.14663  1.0000
  C   C412      1.0  0.30965  0.52486  0.14030  1.0000
  H   H471      1.0  0.33573  0.62042  0.11374  1.0000
  H   H472      1.0  0.31392  0.63953  0.11311  1.0000
  H   H473      1.0  0.31636  0.62337  0.13581  1.0000
  H   H474      1.0  0.30898  0.59393  0.09039  1.0000
  H   H475      1.0  0.29483  0.61955  0.09156  1.0000
  H   H476      1.0  0.27395  0.58657  0.09682  1.0000
  H   H477      1.0  0.27033  0.59473  0.14673  1.0000
  H   H478      1.0  0.26647  0.61649  0.12666  1.0000
  H   H479      1.0  0.25295  0.58154  0.12917  1.0000
  H   H480      1.0  0.27264  0.54751  0.11268  1.0000
  H   H481      1.0  0.32606  0.58780  0.14596  1.0000
  H   H482      1.0  0.36970  0.77506  0.20588  1.0000
  H   H483      1.0  0.33519  0.54738  0.15614  1.0000
  H   H484      1.0  0.41323  0.86881  0.08523  1.0000
  H   H485      1.0  0.38927  0.50637  0.23244  1.0000
  Fe  Fe59      1.0  0.42842  0.85485  0.20167  1.0000
  C   C413      1.0  0.36833  0.75530  0.20381  1.0000
  H   H486      1.0  0.42937  0.53318  0.19242  1.0000
  C   C414      1.0  0.31197  0.55330  0.98634  1.0000
  C   C415      1.0  0.43213  0.56990  0.98858  1.0000
  C   C416      1.0  0.44635  0.69631  0.00776  1.0000
  H   H487      1.0  0.18624  0.70093  0.07626  1.0000
  H   H488      1.0  0.14833  0.68567  0.10725  1.0000
  N   N27       1.0  0.38538  0.63004  0.99496  1.0000
  H   H489      1.0  0.39029  0.80035  0.12895  1.0000
  H   H490      1.0  0.37237  0.50620  0.00727  1.0000
  H   H491      1.0  0.34602  0.54043  0.98466  1.0000
  C   C417      1.0  0.46200  0.80465  0.22790  1.0000
  C   C418      1.0  0.29333  0.50971  0.08028  1.0000
  C   C419      1.0  0.41575  0.97351  0.22093  1.0000
  H   H492      1.0  0.33360  0.51663  0.01891  1.0000
  H   H493      1.0  0.42796  0.77061  0.21344  1.0000
  H   H494      1.0  0.09924  0.51591  0.14712  1.0000
  H   H495      1.0  0.34786  0.64743  0.01617  1.0000
  C   C420      1.0  0.36576  0.70483  0.19823  1.0000
  C   C421      1.0  0.24670  0.56401  0.00317  1.0000
  C   C422      1.0  0.36886  0.71153  0.21603  1.0000
  N   N28       1.0  0.35955  0.71531  0.16413  1.0000
  H   H496      1.0  0.37255  0.62408  0.02586  1.0000
  C   C423      1.0  0.45646  0.97081  0.17683  1.0000
  H   H497      1.0  0.40342  0.91714  0.11429  1.0000
  H   H498      1.0  0.19510  0.49820  0.10389  1.0000
  C   C424      1.0  0.40381  0.82248  0.16957  1.0000
  H   H499      1.0  0.43227  0.91417  0.07434  1.0000
  C   C425      1.0  0.43604  0.76177  0.22521  1.0000
  S   S117      1.0  0.42331  0.89374  0.19056  1.0000
  C   C426      1.0  0.42381  0.86959  0.09740  1.0000
  H   H500      1.0  0.31778  0.69757  0.17392  1.0000
  C   C427      1.0  0.43875  0.56391  0.22711  1.0000
  N   N29       1.0  0.18650  0.68081  0.10463  1.0000
  C   C428      1.0  0.19293  0.68494  0.08318  1.0000
  C   C429      1.0  0.19803  0.66102  0.11268  1.0000
  C   C430      1.0  0.15742  0.67011  0.11082  1.0000
  C   C431      1.0  0.19701  0.70510  0.11189  1.0000
  C   C432      1.0  0.18909  0.70569  0.13165  1.0000
  C   C433      1.0  0.21691  0.72784  0.10022  1.0000
  C   C434      1.0  0.19983  0.72794  0.13906  1.0000
  C   C435      1.0  0.22765  0.74987  0.10781  1.0000
  C   C436      1.0  0.21908  0.75000  0.12715  1.0000
  H   H501      1.0  0.18360  0.66677  0.07800  1.0000
  H   H502      1.0  0.21430  0.68984  0.07754  1.0000
  H   H503      1.0  0.21976  0.66941  0.10992  1.0000
  H   H504      1.0  0.19353  0.64341  0.10602  1.0000
  H   H505      1.0  0.19102  0.65417  0.12860  1.0000
  H   H506      1.0  0.15065  0.66144  0.12658  1.0000
  H   H507      1.0  0.14882  0.65377  0.10362  1.0000
  H   H508      1.0  0.17498  0.68872  0.14163  1.0000
  H   H509      1.0  0.22510  0.72899  0.08524  1.0000
  H   H510      1.0  0.19353  0.72792  0.15420  1.0000
  H   H511      1.0  0.24322  0.76674  0.09865  1.0000
  H   H512      1.0  0.22773  0.76708  0.13295  1.0000
  C   C437      1.0  0.01815  0.59833  0.15140  1.0000
  H   H513      1.0  0.47744  0.54184  0.19030  1.0000
  H   H514      1.0  0.40476  0.95444  0.23107  1.0000
  C   C438      1.0  0.35665  0.79137  0.98600  1.0000
  C   C439      1.0  0.98973  0.57975  0.22725  1.0000
  H   H515      1.0  0.40077  0.72445  0.15238  1.0000
  H   H516      1.0  0.36732  0.71828  0.03996  1.0000
  H   H517      1.0  0.40624  0.62830  0.01834  1.0000
  H   H518      1.0  0.37960  0.70100  0.14181  1.0000
  C   C440      1.0  0.38261  0.81585  0.01272  1.0000
  H   H519      1.0  0.38920  0.89418  0.10018  1.0000
  Fe  Fe60      1.0  0.40737  0.60739  0.22718  1.0000
  C   C441      1.0  0.11637  0.52158  0.09871  1.0000
  C   C442      1.0  0.28165  0.53908  0.01740  1.0000
  H   H520      1.0  0.44330  0.93621  0.08952  1.0000
  C   C443      1.0  0.46817  0.51758  0.07205  1.0000
  S   S118      1.0  0.02998  0.50842  0.21273  1.0000
  N   N30       1.0  0.11153  0.50759  0.11912  1.0000
  H   H521      1.0  0.45981  0.69354  0.99602  1.0000
  H   H522      1.0  0.29126  0.60393  0.99706  1.0000
  C   C444      1.0  0.37154  0.72381  0.02392  1.0000
  C   C445      1.0  0.41465  0.71807  0.01894  1.0000
  H   H523      1.0  0.23434  0.54292  0.00791  1.0000
  C   C446      1.0  0.99128  0.60629  0.17864  1.0000
  C   C447      1.0  0.19973  0.61727  0.98790  1.0000
  S   S119      1.0  0.36934  0.58633  0.21962  1.0000
  C   C448      1.0  0.34784  0.64895  0.00092  1.0000
  H   H524      1.0  0.33585  0.67509  0.17752  1.0000
  H   H525      1.0  0.39945  0.77399  0.02251  1.0000
  C   C449      1.0  0.38215  0.70765  0.15559  1.0000
  H   H526      1.0  0.09992  0.52884  0.09570  1.0000
  H   H527      1.0  0.43117  0.76982  0.01885  1.0000
  H   H528      1.0  0.45991  0.53400  0.07312  1.0000
  C   C450      1.0  0.36577  0.64130  0.98820  1.0000
  H   H529      1.0  0.41754  0.79683  0.15347  1.0000
  H   H530      1.0  0.39038  0.76081  0.99244  1.0000
  Fe  Fe61      1.0  0.04820  0.51364  0.18159  1.0000
  C   C451      1.0  0.41236  0.70422  0.03797  1.0000
  C   C452      1.0  0.35706  0.73651  0.14949  1.0000
  H   H531      1.0  0.35340  0.72960  0.13599  1.0000
  C   C453      1.0  0.44844  0.87520  0.12974  1.0000
  C   C454      1.0  0.40464  0.80865  0.15457  1.0000
  H   H532      1.0  0.26405  0.53777  0.02738  1.0000
  C   C455      1.0  0.24920  0.49121  0.07523  1.0000
  H   H533      1.0  0.19003  0.61269  0.00296  1.0000
  S   S120      1.0  0.36032  0.63673  0.17847  1.0000
  C   C456      1.0  0.32879  0.65847  0.99426  1.0000
  C   C457      1.0  0.36496  0.74873  0.18600  1.0000
  H   H534      1.0  0.46739  0.58929  0.15256  1.0000
  H   H535      1.0  0.38496  0.69109  0.16524  1.0000
  N   N31       1.0  0.42801  0.89496  0.10398  1.0000
  H   H536      1.0  0.32378  0.77346  0.01007  1.0000
  C   C458      1.0  0.36347  0.72315  0.18268  1.0000
  C   C459      1.0  0.41331  0.54668  0.22939  1.0000
  C   C460      1.0  0.42995  0.50992  0.23111  1.0000
  C   C461      1.0  0.29799  0.52613  0.02473  1.0000
  C   C462      1.0  0.32115  0.52676  0.01303  1.0000
  C   C463      1.0  0.43237  0.71379  0.00394  1.0000
  H   H537      1.0  0.25046  0.57211  0.01620  1.0000
  S   S121      1.0  0.40511  0.84924  0.23154  1.0000
  H   H538      1.0  0.37036  0.69708  0.22772  1.0000
  C   C464      1.0  0.38916  0.81054  0.14076  1.0000
  H   H539      1.0  0.35984  0.73709  0.02049  1.0000
  C   C465      1.0  0.40599  0.49242  0.05953  1.0000
  H   H540      1.0  0.44226  0.95127  0.18054  1.0000
  S   S122      1.0  0.98858  0.55324  0.21577  1.0000
  H   H541      1.0  0.28285  0.50744  0.12324  1.0000
  C   C466      1.0  0.99285  0.59273  0.16322  1.0000
  C   C467      1.0  0.36998  0.73665  0.21886  1.0000
  H   H542      1.0  0.05971  0.61908  0.14656  1.0000
  H   H543      1.0  0.43681  0.56747  0.18314  1.0000
  C   C468      1.0  0.45993  0.51428  0.04047  1.0000
  H   H544      1.0  0.42442  0.67657  0.05635  1.0000
  H   H545      1.0  0.43610  0.72401  0.98913  1.0000
  C   C469      1.0  0.46523  0.92357  0.14084  1.0000
  H   H546      1.0  0.45428  0.66932  0.02954  1.0000
  C   C470      1.0  0.40195  0.89746  0.11095  1.0000
  H   H547      1.0  0.01194  0.63327  0.19453  1.0000
  H   H548      1.0  0.41128  0.85262  0.10899  1.0000
  C   C471      1.0  0.39518  0.82128  0.99326  1.0000
  C   C472      1.0  0.01351  0.59704  0.22909  1.0000
  H   H549      1.0  0.38975  0.59167  0.00169  1.0000
  H   H550      1.0  0.39496  0.65639  0.01443  1.0000
  C   C473      1.0  0.45525  0.52701  0.22969  1.0000
  C   C474      1.0  0.38999  0.63506  0.01417  1.0000
  H   H551      1.0  0.45929  0.53264  0.13011  1.0000
  S   S123      1.0  0.40935  0.64771  0.21290  1.0000
  H   H552      1.0  0.40724  0.75300  0.04072  1.0000
  Fe  Fe62      1.0  0.46014  0.91126  0.20075  1.0000
  H   H553      1.0  0.35653  0.59196  0.00696  1.0000
  H   H554      1.0  0.41517  0.83444  0.98856  1.0000
  C   C475      1.0  0.43472  0.54815  0.17882  1.0000
  S   S124      1.0  0.36850  0.90257  0.22925  1.0000
  H   H555      1.0  0.44664  0.93829  0.11979  1.0000
  S   S125      1.0  0.46731  0.87284  0.20911  1.0000
  H   H556      1.0  0.46262  0.91622  0.08202  1.0000
  H   H557      1.0  0.08975  0.53292  0.12793  1.0000
  H   H558      1.0  0.15954  0.51186  0.09474  1.0000
  C   C476      1.0  0.44220  0.91634  0.08679  1.0000
  C   C477      1.0  0.45970  0.55408  0.22753  1.0000
  C   C478      1.0  0.45544  0.52191  0.16159  1.0000
  H   H559      1.0  0.11881  0.50867  0.08835  1.0000
  H   H560      1.0  0.39595  0.73172  0.98656  1.0000
  H   H561      1.0  0.46579  0.86075  0.15239  1.0000
  H   H562      1.0  0.98758  0.54919  0.14605  1.0000
  H   H563      1.0  0.42302  0.75996  0.98750  1.0000
  C   C479      1.0  0.13390  0.49936  0.12386  1.0000
  C   C480      1.0  0.15691  0.50295  0.10980  1.0000
  C   C481      1.0  0.17770  0.49510  0.11487  1.0000
  H   H564      1.0  0.39709  0.55413  0.22939  1.0000
  H   H565      1.0  0.41058  0.50212  0.04452  1.0000
  H   H566      1.0  0.42681  0.63492  0.98684  1.0000
  N   N32       1.0  0.27159  0.56735  0.98962  1.0000
  C   C482      1.0  0.32811  0.54024  0.99383  1.0000
  H   H567      1.0  0.47153  0.51954  0.23003  1.0000
  H   H568      1.0  0.44982  0.50173  0.19154  1.0000
  C   C483      1.0  0.45091  0.49977  0.17667  1.0000
  H   H569      1.0  0.47146  0.94217  0.14547  1.0000
  H   H570      1.0  0.45103  0.50154  0.03085  1.0000
  H   H571      1.0  0.98189  0.57510  0.12975  1.0000
  H   H572      1.0  0.47936  0.56738  0.22612  1.0000
  H   H573      1.0  0.42818  0.99003  0.17055  1.0000
  H   H574      1.0  0.37218  0.74165  0.23274  1.0000
  H   H575      1.0  0.43500  0.59821  0.27474  1.0000
  Fe  Fe63      1.0  0.98454  0.81734  0.39502  1.0000
  S   S126      1.0  0.45309  0.65065  0.32428  1.0000
  S   S127      1.0  0.14593  0.95588  0.41800  1.0000
  S   S128      1.0  0.06568  0.93901  0.43151  1.0000
  C   C484      1.0  0.45301  0.76835  0.25500  1.0000
  H   H576      1.0  0.00706  0.70319  0.39559  1.0000
  C   C485      1.0  0.31038  0.86075  0.29418  1.0000
  C   C486      1.0  0.06897  0.49313  0.25980  1.0000
  S   S129      1.0  0.98905  0.63919  0.26556  1.0000
  C   C487      1.0  0.42952  0.52043  0.28001  1.0000
  S   S130      1.0  0.02555  0.84675  0.38731  1.0000
  H   H577      1.0  0.45764  0.89481  0.28821  1.0000
  C   C488      1.0  0.30845  0.52368  0.35509  1.0000
  H   H578      1.0  0.31203  0.95947  0.41322  1.0000
  S   S131      1.0  0.38877  0.60967  0.25665  1.0000
  S   S132      1.0  0.40013  0.68299  0.25602  1.0000
  H   H579      1.0  0.40894  0.79184  0.23528  1.0000
  Fe  Fe64      1.0  0.35076  0.59252  0.24796  1.0000
  S   S133      1.0  0.31751  0.56171  0.26973  1.0000
  Fe  Fe65      1.0  0.31656  0.97778  0.33787  1.0000
  H   H580      1.0  0.45886  0.97014  0.33851  1.0000
  C   C489      1.0  0.34954  0.58516  0.31761  1.0000
  H   H581      1.0  0.38205  0.53328  0.29411  1.0000
  C   C490      1.0  0.44121  0.66127  0.30409  1.0000
  H   H582      1.0  0.04802  0.96982  0.46076  1.0000
  C   C491      1.0  0.08144  0.85039  0.46903  1.0000
  C   C492      1.0  0.40297  0.51619  0.36135  1.0000
  N   N33       1.0  0.44243  0.77942  0.23901  1.0000
  H   H583      1.0  0.03809  0.86394  0.47741  1.0000
  H   H584      1.0  0.98933  0.78730  0.43934  1.0000
  Fe  Fe66      1.0  0.35755  0.95665  0.31843  1.0000
  S   S134      1.0  0.36606  0.91959  0.31454  1.0000
  C   C493      1.0  0.44245  0.55343  0.35767  1.0000
  H   H585      1.0  0.44086  0.53709  0.32275  1.0000
  C   C494      1.0  0.27785  0.89210  0.29689  1.0000
  H   H586      1.0  0.40390  0.55663  0.35825  1.0000
  H   H587      1.0  0.02255  0.92409  0.47723  1.0000
  H   H588      1.0  0.42164  0.80008  0.25580  1.0000
  H   H589      1.0  0.25380  0.90911  0.34716  1.0000
  C   C495      1.0  0.35297  0.92228  0.26026  1.0000
  C   C496      1.0  0.35278  0.92652  0.27912  1.0000
  C   C497      1.0  0.36571  0.91422  0.29108  1.0000
  C   C498      1.0  0.37877  0.89766  0.28418  1.0000
  C   C499      1.0  0.33164  0.52371  0.32365  1.0000
  H   H590      1.0  0.34246  0.93910  0.28437  1.0000
  H   H591      1.0  0.38878  0.88809  0.29339  1.0000
  H   H592      1.0  0.30146  0.53553  0.36482  1.0000
  C   C500      1.0  0.23281  0.96318  0.37834  1.0000
  C   C501      1.0  0.47729  0.89462  0.28292  1.0000
  H   H593      1.0  0.37506  0.62461  0.30404  1.0000
  H   H594      1.0  0.00729  0.53924  0.25114  1.0000
  C   C502      1.0  0.37934  0.89379  0.26523  1.0000
  H   H595      1.0  0.35886  0.54066  0.25665  1.0000
  H   H596      1.0  0.12415  0.91572  0.47520  1.0000
  C   C503      1.0  0.41678  0.67511  0.27408  1.0000
  H   H597      1.0  0.45253  0.73083  0.24648  1.0000
  C   C504      1.0  0.43712  0.49784  0.28192  1.0000
  H   H598      1.0  0.34287  0.93170  0.25104  1.0000
  C   C505      1.0  0.18477  0.96341  0.48284  1.0000
  C   C506      1.0  0.41326  0.68429  0.29118  1.0000
  H   H599      1.0  0.43642  0.65284  0.25836  1.0000
  C   C507      1.0  0.44552  0.65270  0.28674  1.0000
  H   H600      1.0  0.40243  0.55317  0.32227  1.0000
  H   H601      1.0  0.40081  0.69645  0.29303  1.0000
  N   N34       1.0  0.42119  0.55889  0.29240  1.0000
  H   H602      1.0  0.41002  0.58606  0.30847  1.0000
  H   H603      1.0  0.26572  0.90468  0.29677  1.0000
  H   H604      1.0  0.43562  0.57593  0.31569  1.0000
  C   C508      1.0  0.43314  0.65949  0.27176  1.0000
  H   H605      1.0  0.07602  0.63622  0.26743  1.0000
  H   H606      1.0  0.10037  0.91582  0.45012  1.0000
  H   H607      1.0  0.09394  0.60266  0.25616  1.0000
  H   H608      1.0  0.00140  0.57829  0.29075  1.0000
  C   C509      1.0  0.31436  0.97155  0.39867  1.0000
  C   C510      1.0  0.05489  0.91359  0.41898  1.0000
  C   C511      1.0  0.02838  0.89780  0.42386  1.0000
  C   C512      1.0  0.01914  0.87698  0.41448  1.0000
  C   C513      1.0  0.03635  0.87203  0.39999  1.0000
  C   C514      1.0  0.06288  0.88775  0.39521  1.0000
  C   C515      1.0  0.07217  0.90840  0.40472  1.0000
  H   H609      1.0  0.01492  0.90173  0.43490  1.0000
  H   H610      1.0  0.99868  0.86505  0.41821  1.0000
  H   H611      1.0  0.07627  0.88405  0.38398  1.0000
  H   H612      1.0  0.09261  0.92047  0.40083  1.0000
  N   N35       1.0  0.32005  0.53960  0.33513  1.0000
  H   H613      1.0  0.28201  0.51319  0.29324  1.0000
  C   C516      1.0  0.43934  0.52676  0.31106  1.0000
  H   H614      1.0  0.32376  0.84939  0.29290  1.0000
  H   H615      1.0  0.09822  0.50034  0.27718  1.0000
  H   H616      1.0  0.42165  0.98712  0.33571  1.0000
  C   C517      1.0  0.29991  0.50964  0.28741  1.0000
  H   H617      1.0  0.39558  0.63115  0.33226  1.0000
  H   H618      1.0  0.07735  0.84364  0.45554  1.0000
  C   C518      1.0  0.36648  0.90614  0.25326  1.0000
  C   C519      1.0  0.02141  0.58233  0.28328  1.0000
  C   C520      1.0  0.37369  0.59249  0.34894  1.0000
  H   H619      1.0  0.34857  0.52000  0.32910  1.0000
  C   C521      1.0  0.35424  0.56866  0.34984  1.0000
  C   C522      1.0  0.03095  0.56259  0.27684  1.0000
  H   H620      1.0  0.38964  0.88110  0.25996  1.0000
  H   H621      1.0  0.38600  0.56772  0.28756  1.0000
  C   C523      1.0  0.43378  0.97382  0.27729  1.0000
  H   H622      1.0  0.06649  0.55679  0.26203  1.0000
  H   H623      1.0  0.39851  0.55202  0.27021  1.0000
  H   H624      1.0  0.32258  0.51559  0.36143  1.0000
  C   C524      1.0  0.29811  0.54461  0.32683  1.0000
  C   C525      1.0  0.02510  0.51785  0.29253  1.0000
  C   C526      1.0  0.32033  0.52997  0.27454  1.0000
  C   C527      1.0  0.21398  0.97569  0.38243  1.0000
  C   C528      1.0  0.05421  0.87818  0.46600  1.0000
  Fe  Fe67      1.0  0.15662  0.97025  0.44438  1.0000
  C   C529      1.0  0.34083  0.56462  0.33445  1.0000
  H   H625      1.0  0.29061  0.55876  0.33379  1.0000
  C   C530      1.0  0.05770  0.57070  0.26716  1.0000
  H   H626      1.0  0.28142  0.52617  0.32858  1.0000
  H   H627      1.0  0.30377  0.55261  0.31100  1.0000
  N   N36       1.0  0.27656  0.88777  0.33309  1.0000
  C   C531      1.0  0.29956  0.90040  0.34104  1.0000
  C   C532      1.0  0.26018  0.90544  0.33256  1.0000
  C   C533      1.0  0.26071  0.86259  0.34659  1.0000
  C   C534      1.0  0.28550  0.88239  0.31394  1.0000
  C   C535      1.0  0.30213  0.86662  0.31198  1.0000
  C   C536      1.0  0.00112  0.79679  0.46539  1.0000
  H   H628      1.0  0.98518  0.53460  0.30403  1.0000
  H   H629      1.0  0.29036  0.97421  0.43711  1.0000
  H   H630      1.0  0.23045  0.94423  0.38714  1.0000
  H   H631      1.0  0.31317  0.91799  0.33046  1.0000
  H   H632      1.0  0.29379  0.90702  0.35458  1.0000
  H   H633      1.0  0.31122  0.88719  0.34445  1.0000
  C   C537      1.0  0.98665  0.52972  0.28943  1.0000
  C   C538      1.0  0.07370  0.59695  0.26382  1.0000
  H   H634      1.0  0.37732  0.97671  0.24820  1.0000
  H   H635      1.0  0.27227  0.84897  0.34897  1.0000
  H   H636      1.0  0.25317  0.86589  0.36108  1.0000
  C   C539      1.0  0.44478  0.50907  0.36226  1.0000
  H   H637      1.0  0.30934  0.85912  0.32413  1.0000
  C   C540      1.0  0.39590  0.55269  0.28583  1.0000
  H   H638      1.0  0.11995  0.89396  0.45093  1.0000
  H   H639      1.0  0.42654  0.95677  0.28921  1.0000
  H   H640      1.0  0.99624  0.72621  0.40721  1.0000
  C   C541      1.0  0.30233  0.87032  0.27782  1.0000
  H   H641      1.0  0.42192  0.68395  0.31954  1.0000
  C   C542      1.0  0.03767  0.60849  0.27999  1.0000
  H   H642      1.0  0.27128  0.92520  0.32320  1.0000
  S   S135      1.0  0.17603  0.94888  0.46352  1.0000
  H   H643      1.0  0.10099  0.84910  0.47083  1.0000
  H   H644      1.0  0.42323  0.52616  0.26694  1.0000
  C   C543      1.0  0.44684  0.50407  0.31288  1.0000
  C   C544      1.0  0.38069  0.61270  0.33268  1.0000
  H   H645      1.0  0.36372  0.49646  0.26628  1.0000
  N   N37       1.0  0.08057  0.87755  0.46853  1.0000
  H   H646      1.0  0.24354  0.85217  0.34090  1.0000
  Fe  Fe68      1.0  0.38770  0.64855  0.24183  1.0000
  C   C545      1.0  0.09980  0.89497  0.45109  1.0000
  S   S136      1.0  0.36942  0.50451  0.36112  1.0000
  S   S137      1.0  0.08830  0.51935  0.24074  1.0000
  H   H647      1.0  0.09458  0.88947  0.43748  1.0000
  C   C546      1.0  0.98976  0.61868  0.24894  1.0000
  H   H648      1.0  0.44510  0.57444  0.26360  1.0000
  H   H649      1.0  0.05265  0.89818  0.46598  1.0000
  C   C547      1.0  0.28620  0.88603  0.27916  1.0000
  H   H650      1.0  0.45326  0.49747  0.32574  1.0000
  C   C548      1.0  0.41525  0.54331  0.35925  1.0000
  C   C549      1.0  0.47347  0.74830  0.28598  1.0000
  C   C550      1.0  0.36894  0.60897  0.31691  1.0000
  C   C551      1.0  0.34325  0.52513  0.26679  1.0000
  C   C552      1.0  0.34596  0.50017  0.27224  1.0000
  C   C553      1.0  0.41711  0.56874  0.31055  1.0000
  C   C554      1.0  0.42528  0.67725  0.30615  1.0000
  C   C555      1.0  0.45731  0.74351  0.25659  1.0000
  H   H651      1.0  0.47042  0.71474  0.27286  1.0000
  H   H652      1.0  0.34160  0.58305  0.30476  1.0000
  H   H653      1.0  0.01662  0.81472  0.45785  1.0000
  H   H654      1.0  0.40479  0.95734  0.26199  1.0000
  S   S138      1.0  0.32543  0.96945  0.30830  1.0000
  Fe  Fe69      1.0  0.44361  0.87049  0.23815  1.0000
  C   C556      1.0  0.44122  0.58040  0.27766  1.0000
  C   C557      1.0  0.25456  0.97502  0.36299  1.0000
  H   H655      1.0  0.05004  0.87295  0.45209  1.0000
  H   H656      1.0  0.28058  0.89397  0.26624  1.0000
  H   H657      1.0  0.38360  0.59530  0.36087  1.0000
  C   C558      1.0  0.41771  0.49902  0.36298  1.0000
  H   H658      1.0  0.24190  0.89683  0.32744  1.0000
  H   H659      1.0  0.35029  0.55358  0.36268  1.0000
  C   C559      1.0  0.06369  0.61582  0.27020  1.0000
  H   H660      1.0  0.33883  0.53384  0.30822  1.0000
  S   S139      1.0  0.34773  0.63195  0.23547  1.0000
  C   C560      1.0  0.41804  0.78461  0.24700  1.0000
  N   N38       1.0  0.01439  0.53468  0.28000  1.0000
  C   C561      1.0  0.01354  0.61679  0.23972  1.0000
  C   C562      1.0  0.01434  0.52635  0.26118  1.0000
  C   C563      1.0  0.42992  0.53535  0.29467  1.0000
  H   H661      1.0  0.02975  0.62329  0.28465  1.0000
  C   C564      1.0  0.46695  0.98616  0.36352  1.0000
  H   H662      1.0  0.45189  0.57448  0.35537  1.0000
  C   C565      1.0  0.42129  0.97437  0.26164  1.0000
  C   C566      1.0  0.45731  0.53634  0.35899  1.0000
  H   H663      1.0  0.19737  0.96637  0.39432  1.0000
  Fe  Fe70      1.0  0.10826  0.96454  0.42658  1.0000
  S   S140      1.0  0.27734  0.95820  0.35834  1.0000
  H   H664      1.0  0.03418  0.52732  0.25378  1.0000
  H   H665      1.0  0.99118  0.68822  0.36966  1.0000
  C   C567      1.0  0.46956  0.77272  0.28482  1.0000
  S   S141      1.0  0.34656  0.96181  0.34856  1.0000
  H   H666      1.0  0.47292  0.97093  0.24087  1.0000
  C   C568      1.0  0.98550  0.78137  0.45491  1.0000
  H   H667      1.0  0.46031  0.58635  0.28224  1.0000
  H   H668      1.0  0.30939  0.86632  0.26393  1.0000
  H   H669      1.0  0.47413  0.78398  0.29586  1.0000
  H   H670      1.0  0.45795  0.64050  0.28503  1.0000
  H   H671      1.0  0.31714  0.50419  0.32425  1.0000
  S   S142      1.0  0.45427  0.85469  0.26544  1.0000
  H   H672      1.0  0.29805  0.96109  0.39218  1.0000
  S   S143      1.0  0.11788  0.97499  0.45434  1.0000
  C   C569      1.0  0.99091  0.71185  0.39771  1.0000
  H   H673      1.0  0.29153  0.50602  0.35542  1.0000
  H   H674      1.0  0.45607  0.49573  0.36366  1.0000
  C   C570      1.0  0.04999  0.96238  0.47524  1.0000
  C   C571      1.0  0.27889  0.98408  0.42972  1.0000
  H   H675      1.0  0.33307  0.97152  0.38981  1.0000
  C   C572      1.0  0.46759  0.73388  0.27180  1.0000
  H   H676      1.0  0.99057  0.72359  0.38356  1.0000
  H   H677      1.0  0.06661  0.83591  0.48121  1.0000
  H   H678      1.0  0.02564  0.52372  0.30677  1.0000
  S   S144      1.0  0.98270  0.77499  0.39872  1.0000
  H   H679      1.0  0.40335  0.76641  0.25641  1.0000
  C   C573      1.0  0.25430  0.98246  0.44008  1.0000
  H   H680      1.0  0.48086  0.74037  0.29795  1.0000
  H   H681      1.0  0.01312  0.49663  0.29541  1.0000
  H   H682      1.0  0.15893  0.98689  0.48234  1.0000
  H   H683      1.0  0.45700  0.80177  0.26929  1.0000
  H   H684      1.0  0.24722  0.97152  0.45492  1.0000
  H   H685      1.0  0.03188  0.62976  0.24153  1.0000
  C   C574      1.0  0.45961  0.78270  0.26955  1.0000
  H   H686      1.0  0.04541  0.51919  0.28594  1.0000
  H   H687      1.0  0.46582  0.82003  0.23675  1.0000
  C   C575      1.0  0.45353  0.98173  0.34852  1.0000
  H   H688      1.0  0.00165  0.50560  0.26293  1.0000
  C   C576      1.0  0.06730  0.97857  0.48427  1.0000
  C   C577      1.0  0.03572  0.93649  0.48447  1.0000
  S   S145      1.0  0.07149  0.59104  0.62893  1.0000
  C   C578      1.0  0.26823  0.95530  0.61365  1.0000
  H   H689      1.0  0.01800  0.70977  0.56352  1.0000
  H   H690      1.0  0.11128  0.55045  0.70389  1.0000
  H   H691      1.0  0.25197  0.96203  0.60949  1.0000
  H   H692      1.0  0.32287  0.59561  0.66616  1.0000
  C   C579      1.0  0.05596  0.51316  0.62942  1.0000
  C   C580      1.0  0.33154  0.59015  0.67864  1.0000
  C   C581      1.0  0.09612  0.89781  0.52269  1.0000
  H   H693      1.0  0.41128  0.63530  0.66069  1.0000
  C   C582      1.0  0.36754  0.58640  0.64635  1.0000
  C   C583      1.0  0.30071  0.89698  0.65161  1.0000
  S   S146      1.0  0.01371  0.79020  0.55310  1.0000
  S   S147      1.0  0.01313  0.81166  0.49834  1.0000
  C   C584      1.0  0.40284  0.62157  0.65216  1.0000
  H   H694      1.0  0.35778  0.59937  0.70639  1.0000
  H   H695      1.0  0.41045  0.89284  0.69381  1.0000
  H   H696      1.0  0.43210  0.69122  0.67487  1.0000
  H   H697      1.0  0.39014  0.60941  0.69192  1.0000
  H   H698      1.0  0.37969  0.64734  0.67632  1.0000
  H   H699      1.0  0.39182  0.53054  0.67561  1.0000
  S   S148      1.0  0.04574  0.84493  0.57668  1.0000
  C   C585      1.0  0.43390  0.65589  0.69214  1.0000
  C   C586      1.0  0.44135  0.67603  0.67563  1.0000
  C   C587      1.0  0.11432  0.91078  0.50554  1.0000
  C   C588      1.0  0.01443  0.52165  0.63367  1.0000
  H   H700      1.0  0.43943  0.63351  0.63134  1.0000
  H   H701      1.0  0.23941  0.96504  0.64422  1.0000
  C   C589      1.0  0.41917  0.62064  0.63536  1.0000
  S   S149      1.0  0.04967  0.62040  0.71462  1.0000
  C   C590      1.0  0.10234  0.77872  0.57978  1.0000
  H   H702      1.0  0.41830  0.93267  0.70622  1.0000
  C   C591      1.0  0.99890  0.49613  0.71092  1.0000
  C   C592      1.0  0.45386  0.52042  0.71171  1.0000
  H   H703      1.0  0.10300  0.50992  0.65183  1.0000
  H   H704      1.0  0.09169  0.57512  0.68200  1.0000
  H   H705      1.0  0.11487  0.76604  0.58212  1.0000
  H   H706      1.0  0.17534  0.59042  0.65154  1.0000
  C   C593      1.0  0.06910  0.54007  0.62796  1.0000
  C   C594      1.0  0.06098  0.78567  0.58902  1.0000
  H   H707      1.0  0.39833  0.55125  0.69263  1.0000
  C   C595      1.0  0.37634  0.60492  0.65796  1.0000
  C   C596      1.0  0.35790  0.97459  0.71662  1.0000
  C   C597      1.0  0.23621  0.91874  0.63620  1.0000
  H   H708      1.0  0.47448  0.57326  0.63109  1.0000
  C   C598      1.0  0.43534  0.54763  0.63259  1.0000
  C   C599      1.0  0.07913  0.61331  0.71370  1.0000
  Fe  Fe71      1.0  0.04628  0.60933  0.64624  1.0000
  C   C600      1.0  0.20022  0.98622  0.51365  1.0000
  S   S150      1.0  0.40832  0.65527  0.71076  1.0000
  C   C601      1.0  0.10923  0.90491  0.48787  1.0000
  S   S151      1.0  0.46110  0.90784  0.71563  1.0000
  N   N39       1.0  0.26118  0.94047  0.63399  1.0000
  H   H709      1.0  0.44077  0.62100  0.70586  1.0000
  S   S152      1.0  0.38541  0.51481  0.63636  1.0000
  H   H710      1.0  0.34809  0.57215  0.64994  1.0000
  C   C602      1.0  0.12247  0.61703  0.69641  1.0000
  H   H711      1.0  0.09626  0.63498  0.68447  1.0000
  H   H712      1.0  0.13782  0.62454  0.68347  1.0000
  H   H713      1.0  0.42642  0.56258  0.63466  1.0000
  C   C603      1.0  0.36015  0.63430  0.67532  1.0000
  H   H714      1.0  0.23860  0.90478  0.62668  1.0000
  N   N40       1.0  0.35947  0.60660  0.67575  1.0000
  H   H715      1.0  0.42247  0.89440  0.65874  1.0000
  H   H716      1.0  0.43234  0.49032  0.68687  1.0000
  S   S153      1.0  0.06283  0.64625  0.65706  1.0000
  C   C604      1.0  0.02749  0.54833  0.63301  1.0000
  H   H717      1.0  0.07370  0.55936  0.66586  1.0000
  Fe  Fe72      1.0  0.00947  0.82435  0.56609  1.0000
  S   S154      1.0  0.08491  0.96865  0.57266  1.0000
  C   C605      1.0  0.07472  0.93432  0.57343  1.0000
  C   C606      1.0  0.09058  0.91898  0.57770  1.0000
  C   C607      1.0  0.08144  0.89160  0.57865  1.0000
  C   C608      1.0  0.05663  0.87945  0.57497  1.0000
  C   C609      1.0  0.04108  0.89491  0.57015  1.0000
  C   C610      1.0  0.05000  0.92219  0.56958  1.0000
  H   H718      1.0  0.10964  0.92808  0.58069  1.0000
  H   H719      1.0  0.09361  0.87978  0.58235  1.0000
  C   C611      1.0  0.12587  0.60107  0.71245  1.0000
  H   H720      1.0  0.03752  0.93387  0.56639  1.0000
  C   C612      1.0  0.46252  0.55358  0.63077  1.0000
  H   H721      1.0  0.10116  0.78131  0.56422  1.0000
  H   H722      1.0  0.02191  0.88576  0.56735  1.0000
  N   N41       1.0  0.98310  0.49165  0.69590  1.0000
  H   H723      1.0  0.06538  0.67737  0.59594  1.0000
  C   C613      1.0  0.14119  0.53504  0.63837  1.0000
  H   H724      1.0  0.35509  0.64275  0.66183  1.0000
  C   C614      1.0  0.05488  0.55764  0.62994  1.0000
  C   C615      1.0  0.38408  0.58555  0.62959  1.0000
  C   C616      1.0  0.05976  0.69417  0.59023  1.0000
  C   C617      1.0  0.04430  0.73700  0.57624  1.0000
  C   C618      1.0  0.04078  0.69098  0.57901  1.0000
  C   C619      1.0  0.09814  0.53187  0.70150  1.0000
  H   H725      1.0  0.06388  0.51106  0.66816  1.0000
  H   H726      1.0  0.44806  0.49924  0.71333  1.0000
  C   C620      1.0  0.16181  0.55758  0.63802  1.0000
  C   C621      1.0  0.05578  0.94266  0.51206  1.0000
  H   H727      1.0  0.44308  0.93753  0.63584  1.0000
  H   H728      1.0  0.46579  0.69197  0.64715  1.0000
  C   C622      1.0  0.07129  0.50980  0.68179  1.0000
  H   H729      1.0  0.08582  0.72005  0.60317  1.0000
  C   C623      1.0  0.46548  0.63690  0.67726  1.0000
  H   H730      1.0  0.02715  0.90657  0.51020  1.0000
  S   S155      1.0  0.99451  0.84140  0.54139  1.0000
  C   C624      1.0  0.07866  0.55595  0.68035  1.0000
  H   H731      1.0  0.22040  0.92638  0.63215  1.0000
  H   H732      1.0  0.05677  0.93426  0.52651  1.0000
  H   H733      1.0  0.08055  0.52558  0.71349  1.0000
  H   H734      1.0  0.45167  0.97836  0.64757  1.0000
  H   H735      1.0  0.99414  0.66489  0.62063  1.0000
  C   C625      1.0  0.43584  0.96000  0.67807  1.0000
  C   C626      1.0  0.06333  0.74087  0.58799  1.0000
  C   C627      1.0  0.10596  0.59140  0.72915  1.0000
  C   C628      1.0  0.06793  0.87225  0.50468  1.0000
  C   C629      1.0  0.44608  0.63633  0.69301  1.0000
  C   C630      1.0  0.42581  0.91254  0.66402  1.0000
  C   C631      1.0  0.00483  0.72921  0.62306  1.0000
  H   H736      1.0  0.31934  0.59239  0.69190  1.0000
  S   S156      1.0  0.00290  0.63432  0.68173  1.0000
  H   H737      1.0  0.17970  0.56314  0.62712  1.0000
  H   H738      1.0  0.27317  0.94304  0.60343  1.0000
  C   C632      1.0  0.44006  0.53535  0.70236  1.0000
  N   N42       1.0  0.41829  0.52224  0.69349  1.0000
  H   H739      1.0  0.27336  0.97595  0.64519  1.0000
  N   N43       1.0  0.07586  0.76691  0.59240  1.0000
  H   H740      1.0  0.28540  0.97345  0.61102  1.0000
  H   H741      1.0  0.43886  0.57590  0.69543  1.0000
  H   H742      1.0  0.05897  0.86820  0.53562  1.0000
  H   H743      1.0  0.41417  0.97160  0.71214  1.0000
  Fe  Fe73      1.0  0.99154  0.59862  0.66882  1.0000
  C   C633      1.0  0.46944  0.57463  0.71004  1.0000
  S   S157      1.0  0.15951  0.97797  0.57957  1.0000
  C   C634      1.0  0.44831  0.56291  0.70193  1.0000
  C   C635      1.0  0.32521  0.91572  0.64949  1.0000
  C   C636      1.0  0.09893  0.62284  0.69694  1.0000
  H   H744      1.0  0.04024  0.77711  0.59706  1.0000
  S   S158      1.0  0.15445  0.59218  0.71131  1.0000
  C   C637      1.0  0.25609  0.95805  0.64702  1.0000
  S   S159      1.0  0.01171  0.61993  0.63837  1.0000
  N   N44       1.0  0.09113  0.53501  0.68227  1.0000
  C   C638      1.0  0.03847  0.92667  0.50291  1.0000
  N   N45       1.0  0.44201  0.98509  0.68494  1.0000
  C   C639      1.0  0.44233  0.96013  0.65805  1.0000
  C   C640      1.0  0.11507  0.54253  0.66686  1.0000
  C   C641      1.0  0.13637  0.56553  0.66594  1.0000
  C   C642      1.0  0.11807  0.52764  0.65245  1.0000
  C   C643      1.0  0.15935  0.57286  0.65175  1.0000
  H   H745      1.0  0.06038  0.55099  0.69151  1.0000
  C   C644      1.0  0.41888  0.91167  0.68373  1.0000
  C   C645      1.0  0.43552  0.98148  0.70632  1.0000
  C   C646      1.0  0.40745  0.54088  0.68278  1.0000
  H   H746      1.0  0.06113  0.79183  0.57343  1.0000
  C   C647      1.0  0.45848  0.50858  0.62830  1.0000
  H   H747      1.0  0.22872  0.90770  0.65146  1.0000
  S   S160      1.0  0.39379  0.58027  0.73044  1.0000
  H   H748      1.0  0.01640  0.56182  0.63446  1.0000
  C   C648      1.0  0.20367  0.95672  0.49177  1.0000
  H   H749      1.0  0.42293  0.55571  0.67111  1.0000
  H   H750      1.0  0.13544  0.57799  0.67628  1.0000
  H   H751      1.0  0.00691  0.52693  0.67519  1.0000
  H   H752      1.0  0.36069  0.91614  0.70646  1.0000
  C   C649      1.0  0.03321  0.71239  0.57192  1.0000
  C   C650      1.0  0.00864  0.52134  0.71554  1.0000
  C   C651      1.0  0.00680  0.70377  0.62671  1.0000
  C   C652      1.0  0.07293  0.87862  0.52223  1.0000
  H   H753      1.0  0.10013  0.90231  0.53639  1.0000
  C   C653      1.0  0.36943  0.59762  0.69272  1.0000
  H   H754      1.0  0.34622  0.63589  0.68788  1.0000
  C   C654      1.0  0.36158  0.93172  0.71442  1.0000
  C   C655      1.0  0.32389  0.51430  0.72408  1.0000
  H   H755      1.0  0.36830  0.57658  0.69411  1.0000
  C   C656      1.0  0.42367  0.93497  0.69073  1.0000
  Fe  Fe74      1.0  0.03820  0.62278  0.68582  1.0000
  H   H756      1.0  0.37720  0.57090  0.62112  1.0000
  H   H757      1.0  0.31231  0.97076  0.63128  1.0000
  C   C657      1.0  0.41961  0.52218  0.63245  1.0000
  H   H758      1.0  0.06949  0.80442  0.59376  1.0000
  S   S161      1.0  0.02723  0.69693  0.64216  1.0000
  H   H759      1.0  0.32927  0.56875  0.68091  1.0000
  C   C658      1.0  0.02860  0.50397  0.63212  1.0000
  S   S162      1.0  0.34924  0.95781  0.68318  1.0000
  C   C659      1.0  0.07131  0.96891  0.50278  1.0000
  H   H760      1.0  0.03163  0.67178  0.57605  1.0000
  C   C660      1.0  0.35662  0.95452  0.70630  1.0000
  C   C661      1.0  0.43743  0.93675  0.65118  1.0000
  C   C662      1.0  0.39653  0.50341  0.70874  1.0000
  H   H761      1.0  0.25772  0.53101  0.72622  1.0000
  H   H762      1.0  0.05395  0.50433  0.69389  1.0000
  H   H763      1.0  0.44641  0.96951  0.71330  1.0000
  C   C663      1.0  0.40966  0.60295  0.62393  1.0000
  S   S163      1.0  0.02484  0.58524  0.67549  1.0000
  H   H764      1.0  0.10838  0.51687  0.70322  1.0000
  H   H765      1.0  0.31049  0.51930  0.69739  1.0000
  H   H766      1.0  0.03711  0.75250  0.57057  1.0000
  C   C664      1.0  0.07116  0.71877  0.59447  1.0000
  C   C665      1.0  0.28307  0.93140  0.63874  1.0000
  H   H767      1.0  0.08442  0.78349  0.61736  1.0000
  H   H768      1.0  0.09029  0.54730  0.62545  1.0000
  Fe  Fe75      1.0  0.02614  0.65489  0.65190  1.0000
  H   H769      1.0  0.09368  0.75498  0.61594  1.0000
  C   C666      1.0  0.07854  0.76414  0.61294  1.0000
  H   H770      1.0  0.05974  0.75168  0.62285  1.0000
  H   H771      1.0  0.42245  0.60200  0.61102  1.0000
  H   H772      1.0  0.11262  0.79845  0.58247  1.0000
  H   H773      1.0  0.29782  0.87651  0.65768  1.0000
  H   H774      1.0  0.28950  0.96568  0.72740  1.0000
  Fe  Fe76      1.0  0.99564  0.80548  0.52987  1.0000
  C   C667      1.0  0.36772  0.92903  0.73284  1.0000
  C   C668      1.0  0.31641  0.50638  0.70753  1.0000
  H   H775      1.0  0.14316  0.52287  0.62788  1.0000
  H   H776      1.0  0.22690  0.96372  0.51336  1.0000
  C   C669      1.0  0.08583  0.88534  0.48688  1.0000
  C   C670      1.0  0.46043  0.67645  0.65993  1.0000
  H   H777      1.0  0.13273  0.92525  0.50589  1.0000
  C   C671      1.0  0.21175  0.96849  0.50685  1.0000
  H   H778      1.0  0.26136  0.88904  0.64857  1.0000
  C   C672      1.0  0.42769  0.50752  0.67964  1.0000
  C   C673      1.0  0.30840  0.94991  0.63661  1.0000
  H   H779      1.0  0.38936  0.51362  0.71973  1.0000
  C   C674      1.0  0.43120  0.50257  0.63037  1.0000
  H   H780      1.0  0.15925  0.50584  0.70930  1.0000
  H   H781      1.0  0.99330  0.51468  0.63554  1.0000
  H   H782      1.0  0.05010  0.85656  0.50525  1.0000
  H   H783      1.0  0.98936  0.75578  0.60664  1.0000
  C   C675      1.0  0.99593  0.78974  0.48559  1.0000
  C   C676      1.0  0.17331  0.98143  0.48940  1.0000
  H   H784      1.0  0.44564  0.52056  0.66902  1.0000
  H   H785      1.0  0.11652  0.96326  0.50907  1.0000
  C   C677      1.0  0.47413  0.53407  0.62858  1.0000
  H   H786      1.0  0.21245  0.94272  0.48681  1.0000
  S   S164      1.0  0.32201  0.54475  0.72849  1.0000
  C   C678      1.0  0.99278  0.68455  0.61787  1.0000
  H   H787      1.0  0.34811  0.95659  0.64055  1.0000
  H   H788      1.0  0.15332  0.50517  0.67564  1.0000
  H   H789      1.0  0.01472  0.74387  0.63045  1.0000
  C   C679      1.0  0.10628  0.97062  0.52058  1.0000
  H   H790      1.0  0.09489  0.95366  0.53257  1.0000
  C   C680      1.0  0.47254  0.65693  0.66066  1.0000
  C   C681      1.0  0.47513  0.53244  0.71951  1.0000
  C   C682      1.0  0.32909  0.94206  0.64184  1.0000
  H   H791      1.0  0.41266  0.49953  0.67132  1.0000
  H   H792      1.0  0.06128  0.97475  0.53946  1.0000
  H   H793      1.0  0.12147  0.98302  0.52699  1.0000
  H   H794      1.0  0.46741  0.49342  0.62660  1.0000
  H   H795      1.0  0.37955  0.49354  0.70262  1.0000
  H   H796      1.0  0.06705  0.49966  0.62808  1.0000
  H   H797      1.0  0.25141  0.94787  0.66248  1.0000
  H   H798      1.0  0.07961  0.49324  0.68331  1.0000
  C   C683      1.0  0.27984  0.90454  0.64632  1.0000
  N   N46       1.0  0.08979  0.98539  0.51264  1.0000
  H   H799      1.0  0.00489  0.53852  0.70848  1.0000
  C   C684      1.0  0.99030  0.73594  0.60971  1.0000
  C   C685      1.0  0.02301  0.52496  0.73008  1.0000
  H   H800      1.0  0.22350  0.52597  0.72716  1.0000
  H   H801      1.0  0.47545  0.59563  0.70971  1.0000
  H   H802      1.0  0.34119  0.91002  0.65409  1.0000
  H   H803      1.0  0.47491  0.62189  0.67786  1.0000
  C   C686      1.0  0.98597  0.51627  0.68216  1.0000
  H   H804      1.0  0.03006  0.54435  0.73345  1.0000
  C   C687      1.0  0.08278  0.59784  0.72987  1.0000
  H   H805      1.0  0.16760  0.63777  0.73062  1.0000
  Fe  Fe77      1.0  0.16969  0.54554  0.77294  1.0000
  S   S165      1.0  0.14446  0.57063  0.76713  1.0000
  S   S166      1.0  0.20262  0.55934  0.78829  1.0000
  H   H806      1.0  0.29143  0.70624  0.92134  1.0000
  H   H807      1.0  0.27524  0.55109  0.81194  1.0000
  H   H808      1.0  0.44885  0.58765  0.98330  1.0000
  C   C688      1.0  0.30923  0.68024  0.82162  1.0000
  Fe  Fe78      1.0  0.11109  0.53272  0.77561  1.0000
  H   H809      1.0  0.22009  0.55961  0.84222  1.0000
  C   C689      1.0  0.33097  0.49721  0.73733  1.0000
  N   N47       1.0  0.23195  0.49680  0.74698  1.0000
  H   H810      1.0  0.40476  0.63813  0.85960  1.0000
  C   C690      1.0  0.40953  0.64468  0.82907  1.0000
  H   H811      1.0  0.42837  0.53740  0.80687  1.0000
  S   S167      1.0  0.36840  0.78314  0.91409  1.0000
  Fe  Fe79      1.0  0.41397  0.74839  0.93510  1.0000
  S   S168      1.0  0.37041  0.73006  0.94210  1.0000
  C   C691      1.0  0.41395  0.66268  0.81183  1.0000
  Fe  Fe80      1.0  0.37320  0.74441  0.91053  1.0000
  S   S169      1.0  0.35329  0.71840  0.89208  1.0000
  Fe  Fe81      1.0  0.37022  0.77062  0.94501  1.0000
  S   S170      1.0  0.41709  0.75911  0.90316  1.0000
  Fe  Fe82      1.0  0.38683  0.54688  0.93956  1.0000
  S   S171      1.0  0.38969  0.58710  0.94475  1.0000
  Fe  Fe83      1.0  0.38976  0.56309  0.89665  1.0000
  S   S172      1.0  0.39334  0.60488  0.89825  1.0000
  Fe  Fe84      1.0  0.42073  0.60110  0.91779  1.0000
  S   S173      1.0  0.45775  0.63297  0.91667  1.0000
  Fe  Fe85      1.0  0.36170  0.58672  0.92508  1.0000
  S   S174      1.0  0.32768  0.60024  0.93498  1.0000
  S   S175      1.0  0.42041  0.56079  0.91401  1.0000
  N   N48       1.0  0.43539  0.50782  0.82713  1.0000
  Fe  Fe86      1.0  0.22652  0.68850  0.87544  1.0000
  S   S176      1.0  0.24005  0.66333  0.89659  1.0000
  S   S177      1.0  0.24865  0.73153  0.87241  1.0000
  Fe  Fe87      1.0  0.19170  0.64086  0.86380  1.0000
  S   S178      1.0  0.20330  0.61196  0.88354  1.0000
  S   S179      1.0  0.16358  0.62508  0.84520  1.0000
  Fe  Fe88      1.0  0.19848  0.63705  0.90523  1.0000
  S   S180      1.0  0.17776  0.61900  0.93628  1.0000
  Fe  Fe89      1.0  0.24368  0.64101  0.87309  1.0000
  S   S181      1.0  0.28025  0.63146  0.86363  1.0000
  S   S182      1.0  0.18393  0.66431  0.88621  1.0000
  S   S183      1.0  0.23275  0.66765  0.85126  1.0000
  C   C692      1.0  0.19709  0.62103  0.95394  1.0000
  C   C693      1.0  0.09858  0.59771  0.79243  1.0000
  H   H812      1.0  0.40595  0.51345  0.84862  1.0000
  H   H813      1.0  0.40190  0.55825  0.82693  1.0000
  H   H814      1.0  0.12185  0.61842  0.81860  1.0000
  C   C694      1.0  0.22451  0.62993  0.94876  1.0000
  H   H815      1.0  0.03835  0.50644  0.75222  1.0000
  H   H816      1.0  0.38575  0.79521  0.84136  1.0000
  H   H817      1.0  0.26058  0.64005  0.95894  1.0000
  H   H818      1.0  0.23420  0.63458  0.93377  1.0000
  C   C695      1.0  0.31424  0.60915  0.91541  1.0000
  C   C696      1.0  0.32762  0.61156  0.89663  1.0000
  C   C697      1.0  0.31743  0.61924  0.88084  1.0000
  C   C698      1.0  0.29314  0.62331  0.88374  1.0000
  C   C699      1.0  0.27927  0.62025  0.90258  1.0000
  C   C700      1.0  0.29004  0.61361  0.91846  1.0000
  H   H819      1.0  0.34583  0.60751  0.89417  1.0000
  H   H820      1.0  0.32836  0.62185  0.86645  1.0000
  H   H821      1.0  0.26005  0.62239  0.90499  1.0000
  H   H822      1.0  0.27940  0.61145  0.93301  1.0000
  C   C701      1.0  0.35635  0.58914  0.82286  1.0000
  H   H823      1.0  0.38081  0.65141  0.88273  1.0000
  H   H824      1.0  0.32731  0.63947  0.83091  1.0000
  S   S184      1.0  0.43224  0.55966  0.76845  1.0000
  H   H825      1.0  0.38306  0.67889  0.89392  1.0000
  H   H826      1.0  0.20712  0.64398  0.74469  1.0000
  C   C702      1.0  0.32606  0.72475  0.88482  1.0000
  C   C703      1.0  0.31833  0.74617  0.88896  1.0000
  C   C704      1.0  0.29505  0.74920  0.88439  1.0000
  C   C705      1.0  0.28003  0.73129  0.87510  1.0000
  C   C706      1.0  0.28876  0.71096  0.86994  1.0000
  C   C707      1.0  0.31113  0.70714  0.87538  1.0000
  H   H827      1.0  0.32956  0.75971  0.89640  1.0000
  H   H828      1.0  0.28804  0.76453  0.88890  1.0000
  H   H829      1.0  0.27746  0.69716  0.86266  1.0000
  H   H830      1.0  0.31618  0.68984  0.87294  1.0000
  H   H831      1.0  0.27846  0.68914  0.97516  1.0000
  H   H832      1.0  0.30519  0.60025  0.97363  1.0000
  Fe  Fe90      1.0  0.35112  0.56612  0.74450  1.0000
  C   C708      1.0  0.45160  0.65906  0.92613  1.0000
  C   C709      1.0  0.42749  0.66364  0.92658  1.0000
  C   C710      1.0  0.42354  0.68551  0.93338  1.0000
  H   H833      1.0  0.28976  0.59959  0.83236  1.0000
  C   C711      1.0  0.18631  0.64086  0.77353  1.0000
  H   H834      1.0  0.41216  0.65072  0.92129  1.0000
  H   H835      1.0  0.40515  0.68940  0.93344  1.0000
  C   C712      1.0  0.38213  0.80924  0.97991  1.0000
  C   C713      1.0  0.26970  0.58974  0.83022  1.0000
  H   H836      1.0  0.34195  0.65380  0.94722  1.0000
  S   S185      1.0  0.13591  0.50804  0.78412  1.0000
  H   H837      1.0  0.32913  0.80414  0.87420  1.0000
  S   S186      1.0  0.37534  0.94574  0.76659  1.0000
  H   H838      1.0  0.16356  0.60717  0.97767  1.0000
  C   C714      1.0  0.30071  0.95363  0.75399  1.0000
  H   H839      1.0  0.39901  0.79481  0.87287  1.0000
  S   S187      1.0  0.35581  0.54496  0.92203  1.0000
  S   S188      1.0  0.40318  0.61558  0.76409  1.0000
  C   C715      1.0  0.16610  0.63801  0.74590  1.0000
  C   C716      1.0  0.40025  0.81227  0.84345  1.0000
  H   H840      1.0  0.44241  0.54957  0.82586  1.0000
  H   H841      1.0  0.46233  0.54186  0.80665  1.0000
  Fe  Fe91      1.0  0.44518  0.90632  0.74668  1.0000
  S   S189      1.0  0.07285  0.53341  0.79211  1.0000
  H   H842      1.0  0.29410  0.66089  0.82260  1.0000
  C   C717      1.0  0.37613  0.57845  0.81738  1.0000
  C   C718      1.0  0.19202  0.57655  0.80509  1.0000
  C   C719      1.0  0.16519  0.57151  0.81186  1.0000
  C   C720      1.0  0.15661  0.58595  0.82462  1.0000
  C   C721      1.0  0.17480  0.60545  0.83077  1.0000
  C   C722      1.0  0.20169  0.61004  0.82443  1.0000
  C   C723      1.0  0.21028  0.59572  0.81147  1.0000
  H   H843      1.0  0.15095  0.55636  0.80733  1.0000
  H   H844      1.0  0.13582  0.58188  0.82980  1.0000
  H   H845      1.0  0.21582  0.62520  0.82900  1.0000
  H   H846      1.0  0.23099  0.60001  0.80595  1.0000
  H   H847      1.0  0.30603  0.68478  0.83629  1.0000
  H   H848      1.0  0.37118  0.91126  0.73910  1.0000
  C   C724      1.0  0.44248  0.53531  0.81623  1.0000
  C   C725      1.0  0.16200  0.63684  0.78544  1.0000
  C   C726      1.0  0.26451  0.55802  0.97209  1.0000
  H   H849      1.0  0.31833  0.56363  0.97139  1.0000
  Fe  Fe92      1.0  0.41227  0.79716  0.90864  1.0000
  N   N49       1.0  0.27943  0.71558  0.94900  1.0000
  H   H850      1.0  0.23813  0.53819  0.74607  1.0000
  H   H851      1.0  0.34438  0.96437  0.79637  1.0000
  S   S190      1.0  0.17728  0.53980  0.74243  1.0000
  C   C727      1.0  0.25110  0.70563  0.94884  1.0000
  Fe  Fe93      1.0  0.14874  0.56138  0.73770  1.0000
  C   C728      1.0  0.24241  0.70870  0.93116  1.0000
  Fe  Fe94      1.0  0.41709  0.87540  0.78701  1.0000
  C   C729      1.0  0.21596  0.69857  0.93044  1.0000
  Fe  Fe95      1.0  0.14141  0.50422  0.75301  1.0000
  H   H852      1.0  0.38619  0.52365  0.76092  1.0000
  S   S191      1.0  0.38361  0.51667  0.96569  1.0000
  H   H853      1.0  0.42822  0.56354  0.96008  1.0000
  H   H854      1.0  0.27274  0.52774  0.83343  1.0000
  H   H855      1.0  0.01747  0.52411  0.79542  1.0000
  H   H856      1.0  0.09627  0.59238  0.77821  1.0000
  H   H857      1.0  0.23039  0.57264  0.86844  1.0000
  H   H858      1.0  0.43324  0.72890  0.85606  1.0000
  H   H859      1.0  0.45089  0.69156  0.86542  1.0000
  H   H860      1.0  0.17699  0.67646  0.94657  1.0000
  H   H861      1.0  0.25603  0.71848  0.91760  1.0000
  C   C730      1.0  0.19734  0.68523  0.94728  1.0000
  H   H862      1.0  0.20998  0.70057  0.91665  1.0000
  C   C731      1.0  0.20504  0.68242  0.96495  1.0000
  Fe  Fe96      1.0  0.45645  0.92927  0.78145  1.0000
  C   C732      1.0  0.26643  0.55405  0.89882  1.0000
  H   H863      1.0  0.39795  0.72179  0.85902  1.0000
  H   H864      1.0  0.31542  0.71001  0.93588  1.0000
  C   C733      1.0  0.47125  0.67561  0.93317  1.0000
  H   H865      1.0  0.12501  0.65233  0.80951  1.0000
  C   C734      1.0  0.45396  0.50626  0.84002  1.0000
  H   H866      1.0  0.23603  0.68878  0.97997  1.0000
  C   C735      1.0  0.36877  0.94910  0.74321  1.0000
  H   H867      1.0  0.33655  0.50315  0.75026  1.0000
  C   C736      1.0  0.04718  0.50525  0.79173  1.0000
  C   C737      1.0  0.23806  0.52417  0.73615  1.0000
  H   H868      1.0  0.39176  0.89222  0.84218  1.0000
  H   H869      1.0  0.12489  0.62970  0.75097  1.0000
  H   H870      1.0  0.30681  0.71817  0.96813  1.0000
  H   H871      1.0  0.31185  0.66743  0.96992  1.0000
  C   C738      1.0  0.43138  0.68219  0.87541  1.0000
  H   H872      1.0  0.16186  0.63634  0.80059  1.0000
  H   H873      1.0  0.39048  0.87302  0.87602  1.0000
  H   H874      1.0  0.41382  0.49856  0.93401  1.0000
  S   S192      1.0  0.40254  0.88594  0.76010  1.0000
  C   C739      1.0  0.36277  0.64301  0.96871  1.0000
  C   C740      1.0  0.28228  0.54902  0.86654  1.0000
  S   S193      1.0  0.44584  0.94496  0.75416  1.0000
  H   H875      1.0  0.20665  0.50154  0.77177  1.0000
  H   H876      1.0  0.27236  0.50436  0.74952  1.0000
  C   C741      1.0  0.24680  0.56247  0.89234  1.0000
  H   H877      1.0  0.36526  0.98776  0.74263  1.0000
  H   H878      1.0  0.23215  0.54999  0.82112  1.0000
  C   C742      1.0  0.41104  0.67955  0.84761  1.0000
  C   C743      1.0  0.41545  0.69746  0.82975  1.0000
  C   C744      1.0  0.40801  0.65287  0.84669  1.0000
  H   H879      1.0  0.27031  0.59358  0.81441  1.0000
  H   H880      1.0  0.42085  0.49233  0.80341  1.0000
  C   C745      1.0  0.18836  0.64143  0.75381  1.0000
  H   H881      1.0  0.09335  0.62779  0.81890  1.0000
  C   C746      1.0  0.02759  0.50364  0.74074  1.0000
  H   H882      1.0  0.10796  0.66287  0.77780  1.0000
  H   H883      1.0  0.27515  0.60729  0.97721  1.0000
  H   H884      1.0  0.31498  0.94664  0.77944  1.0000
  C   C747      1.0  0.44532  0.51605  0.76385  1.0000
  C   C748      1.0  0.09681  0.64141  0.78167  1.0000
  H   H885      1.0  0.07855  0.59131  0.80172  1.0000
  C   C749      1.0  0.29394  0.70270  0.93650  1.0000
  H   H886      1.0  0.41812  0.71816  0.82892  1.0000
  H   H887      1.0  0.22535  0.52818  0.84429  1.0000
  H   H888      1.0  0.38355  0.57950  0.80232  1.0000
  C   C750      1.0  0.23945  0.63300  0.96306  1.0000
  S   S194      1.0  0.39252  0.55068  0.86800  1.0000
  H   H889      1.0  0.10837  0.57903  0.74158  1.0000
  C   C751      1.0  0.44335  0.70202  0.94044  1.0000
  C   C752      1.0  0.28415  0.54740  0.88594  1.0000
  H   H890      1.0  0.10953  0.58542  0.79900  1.0000
  S   S195      1.0  0.11337  0.52526  0.74561  1.0000
  H   H891      1.0  0.29510  0.93301  0.75312  1.0000
  H   H892      1.0  0.43839  0.87421  0.82002  1.0000
  H   H893      1.0  0.36116  0.65884  0.82610  1.0000
  N   N50       1.0  0.33618  0.67941  0.81530  1.0000
  C   C753      1.0  0.33733  0.66986  0.79689  1.0000
  C   C754      1.0  0.35528  0.70585  0.81369  1.0000
  C   C755      1.0  0.35756  0.71691  0.83034  1.0000
  C   C756      1.0  0.37113  0.72184  0.79578  1.0000
  C   C757      1.0  0.37416  0.74238  0.82921  1.0000
  C   C758      1.0  0.38783  0.74735  0.79479  1.0000
  C   C759      1.0  0.38923  0.75767  0.81145  1.0000
  H   H894      1.0  0.30499  0.69545  0.81151  1.0000
  H   H895      1.0  0.35706  0.66838  0.79150  1.0000
  H   H896      1.0  0.33220  0.68269  0.78550  1.0000
  H   H897      1.0  0.34618  0.70603  0.84438  1.0000
  H   H898      1.0  0.37085  0.71523  0.78229  1.0000
  H   H899      1.0  0.37512  0.75028  0.84224  1.0000
  H   H900      1.0  0.39956  0.75944  0.78099  1.0000
  H   H901      1.0  0.40190  0.77763  0.81054  1.0000
  S   S196      1.0  0.41484  0.91157  0.79789  1.0000
  C   C760      1.0  0.34092  0.65966  0.82986  1.0000
  C   C761      1.0  0.11329  0.63153  0.81012  1.0000
  N   N51       1.0  0.11243  0.62617  0.79040  1.0000
  C   C762      1.0  0.14164  0.63360  0.75772  1.0000
  C   C763      1.0  0.26249  0.55760  0.85942  1.0000
  Fe  Fe97      1.0  0.40050  0.57468  0.76062  1.0000
  C   C764      1.0  0.42578  0.52792  0.76416  1.0000
  H   H902      1.0  0.44845  0.97665  0.78398  1.0000
  S   S197      1.0  0.35777  0.55574  0.77445  1.0000
  H   H903      1.0  0.29981  0.54149  0.89096  1.0000
  H   H904      1.0  0.29697  0.54401  0.85735  1.0000
  C   C765      1.0  0.24498  0.56452  0.87292  1.0000
  S   S198      1.0  0.34295  0.60401  0.80515  1.0000
  H   H905      1.0  0.25654  0.59971  0.83704  1.0000
  C   C766      1.0  0.23148  0.69241  0.96585  1.0000
  C   C767      1.0  0.02143  0.50604  0.79377  1.0000
  H   H906      1.0  0.47287  0.53466  0.93543  1.0000
  C   C768      1.0  0.13879  0.63289  0.77789  1.0000
  H   H907      1.0  0.43265  0.68988  0.88893  1.0000
  H   H908      1.0  0.26837  0.55344  0.91371  1.0000
  H   H909      1.0  0.27897  0.75485  0.95024  1.0000
  C   C769      1.0  0.37666  0.86251  0.86824  1.0000
  C   C770      1.0  0.39892  0.53319  0.98216  1.0000
  H   H910      1.0  0.28794  0.74993  0.92620  1.0000
  N   N52       1.0  0.26093  0.56116  0.83873  1.0000
  Fe  Fe98      1.0  0.40430  0.92382  0.76963  1.0000
  H   H911      1.0  0.37469  0.63638  0.95836  1.0000
  C   C771      1.0  0.27765  0.54911  0.82723  1.0000
  N   N53       1.0  0.41019  0.68777  0.86646  1.0000
  H   H912      1.0  0.41512  0.65613  0.79821  1.0000
  H   H913      1.0  0.44372  0.53346  0.85710  1.0000
  H   H914      1.0  0.28695  0.68100  0.94174  1.0000
  S   S199      1.0  0.45973  0.89225  0.77259  1.0000
  H   H915      1.0  0.42053  0.70303  0.79871  1.0000
  H   H916      1.0  0.42846  0.66076  0.87945  1.0000
  N   N54       1.0  0.32453  0.81789  0.83657  1.0000
  C   C772      1.0  0.32666  0.83179  0.81652  1.0000
  C   C773      1.0  0.33050  0.79310  0.83528  1.0000
  C   C774      1.0  0.29689  0.81113  0.84696  1.0000
  C   C775      1.0  0.34239  0.83366  0.84722  1.0000
  C   C776      1.0  0.36055  0.85917  0.83870  1.0000
  C   C777      1.0  0.34205  0.82347  0.86680  1.0000
  C   C778      1.0  0.37735  0.87326  0.84915  1.0000
  C   C779      1.0  0.35894  0.83775  0.87708  1.0000
  S   S200      1.0  0.43890  0.72883  0.94974  1.0000
  H   H917      1.0  0.34673  0.83639  0.80757  1.0000
  H   H918      1.0  0.31293  0.81955  0.80894  1.0000
  H   H919      1.0  0.32205  0.85051  0.81636  1.0000
  H   H920      1.0  0.31662  0.78015  0.82820  1.0000
  H   H921      1.0  0.32936  0.78129  0.84968  1.0000
  H   H922      1.0  0.35064  0.79735  0.82669  1.0000
  H   H923      1.0  0.29200  0.82919  0.84916  1.0000
  H   H924      1.0  0.28278  0.80022  0.83897  1.0000
  H   H925      1.0  0.29275  0.79805  0.86138  1.0000
  H   H926      1.0  0.36295  0.86837  0.82377  1.0000
  S   S201      1.0  0.41393  0.78818  0.94004  1.0000
  H   H927      1.0  0.33762  0.66354  0.84469  1.0000
  H   H928      1.0  0.32313  0.64969  0.79877  1.0000
  H   H929      1.0  0.36797  0.67650  0.87343  1.0000
  H   H930      1.0  0.35143  0.57551  0.87178  1.0000
  H   H931      1.0  0.25198  0.50975  0.76931  1.0000
  C   C780      1.0  0.40770  0.81209  0.86137  1.0000
  H   H932      1.0  0.41260  0.72153  0.87944  1.0000
  H   H933      1.0  0.33133  0.59508  0.84677  1.0000
  C   C781      1.0  0.40127  0.51447  0.76085  1.0000
  H   H934      1.0  0.39365  0.49999  0.82957  1.0000
  C   C782      1.0  0.35849  0.57647  0.85662  1.0000
  C   C783      1.0  0.28968  0.74448  0.94140  1.0000
  C   C784      1.0  0.42976  0.85685  0.83147  1.0000
  C   C785      1.0  0.38448  0.67295  0.87963  1.0000
  C   C786      1.0  0.23352  0.54918  0.83658  1.0000
  C   C787      1.0  0.37826  0.56570  0.85102  1.0000
  S   S202      1.0  0.43421  0.83503  0.88729  1.0000
  C   C788      1.0  0.41103  0.83471  0.82852  1.0000
  C   C789      1.0  0.42598  0.83444  0.86449  1.0000
  H   H935      1.0  0.23356  0.56852  0.90222  1.0000
  H   H936      1.0  0.29889  0.55907  0.82634  1.0000
  C   C790      1.0  0.41688  0.68901  0.81217  1.0000
  C   C791      1.0  0.38675  0.56650  0.83140  1.0000
  C   C792      1.0  0.43719  0.85672  0.84944  1.0000
  H   H937      1.0  0.45141  0.87402  0.85175  1.0000
  C   C793      1.0  0.34731  0.58781  0.84252  1.0000
  C   C794      1.0  0.41374  0.71627  0.86497  1.0000
  S   S203      1.0  0.40008  0.83510  0.80658  1.0000
  S   S204      1.0  0.34916  0.60605  0.74776  1.0000
  C   C795      1.0  0.46694  0.69674  0.94065  1.0000
  Fe  Fe99      1.0  0.36008  0.59721  0.77641  1.0000
  H   H938      1.0  0.19014  0.49113  0.75348  1.0000
  H   H939      1.0  0.39184  0.81388  0.96491  1.0000
  C   C796      1.0  0.45578  0.52097  0.85489  1.0000
  H   H940      1.0  0.46446  0.52671  0.76602  1.0000
  H   H941      1.0  0.20353  0.64292  0.77978  1.0000
  Fe  Fe100     1.0  0.39237  0.61971  0.73509  1.0000
  H   H942      1.0  0.35892  0.82937  0.89184  1.0000
  H   H943      1.0  0.40745  0.62423  0.82879  1.0000
  C   C797      1.0  0.28649  0.59589  0.98415  1.0000
  S   S205      1.0  0.34139  0.77326  0.97011  1.0000
  C   C798      1.0  0.31218  0.96181  0.76917  1.0000
  C   C799      1.0  0.33295  0.97696  0.80158  1.0000
  H   H944      1.0  0.47391  0.53106  0.87862  1.0000
  H   H945      1.0  0.06743  0.59035  0.74282  1.0000
  C   C800      1.0  0.36417  0.97199  0.73492  1.0000
  H   H946      1.0  0.43934  0.52764  0.94721  1.0000
  C   C801      1.0  0.47826  0.98011  0.80095  1.0000
  C   C802      1.0  0.40831  0.49987  0.83883  1.0000
  H   H947      1.0  0.28187  0.56252  0.96020  1.0000
  C   C803      1.0  0.22710  0.62713  0.98261  1.0000
  H   H948      1.0  0.07794  0.63855  0.79167  1.0000
  C   C804      1.0  0.42046  0.55620  0.97544  1.0000
  H   H949      1.0  0.31086  0.75276  0.94169  1.0000
  C   C805      1.0  0.45779  0.52347  0.94871  1.0000
  H   H950      1.0  0.09106  0.63514  0.76843  1.0000
  H   H951      1.0  0.31243  0.96432  0.80824  1.0000
  C   C806      1.0  0.18476  0.61422  0.97357  1.0000
  C   C807      1.0  0.32084  0.98891  0.77019  1.0000
  C   C808      1.0  0.34384  0.65279  0.96219  1.0000
  H   H952      1.0  0.37286  0.59590  0.98248  1.0000
  H   H953      1.0  0.41089  0.63456  0.96721  1.0000
  C   C809      1.0  0.45873  0.98766  0.79337  1.0000
  H   H954      1.0  0.46385  0.53200  0.96115  1.0000
  C   C810      1.0  0.47310  0.51983  0.86728  1.0000
  H   H955      1.0  0.25117  0.56774  0.96603  1.0000
  C   C811      1.0  0.28533  0.71059  0.96856  1.0000
  C   C812      1.0  0.25220  0.49670  0.75870  1.0000
  H   H956      1.0  0.45458  0.49619  0.80281  1.0000
  H   H957      1.0  0.25449  0.53634  0.97543  1.0000
  H   H958      1.0  0.41769  0.66318  0.97788  1.0000
  N   N55       1.0  0.45443  0.49487  0.95173  1.0000
  C   C813      1.0  0.41117  0.64121  0.98114  1.0000
  H   H959      1.0  0.34205  0.98480  0.81328  1.0000
  C   C814      1.0  0.44058  0.49094  0.75968  1.0000
  H   H960      1.0  0.19051  0.67153  0.97797  1.0000
  H   H961      1.0  0.27607  0.72085  0.97850  1.0000
  C   C815      1.0  0.32689  0.66049  0.97494  1.0000
  C   C816      1.0  0.29766  0.97201  0.73942  1.0000
  C   C817      1.0  0.47902  0.49146  0.95649  1.0000
  C   C818      1.0  0.43511  0.49064  0.81277  1.0000
  C   C819      1.0  0.47060  0.49041  0.83833  1.0000
  H   H962      1.0  0.62998  0.27488  0.11794  1.0000
  C   C820      1.0  0.51510  0.44237  0.99709  1.0000
  N   N56       1.0  0.61302  0.15577  0.14807  1.0000
  C   C821      1.0  0.91675  0.42507  0.22174  1.0000
  C   C822      1.0  0.50659  0.44852  0.15937  1.0000
  S   S206      1.0  0.86055  0.45600  0.16830  1.0000
  C   C823      1.0  0.54469  0.00510  0.20890  1.0000
  H   H963      1.0  0.75543  0.38595  0.21958  1.0000
  S   S207      1.0  0.54396  0.43367  0.08693  1.0000
  S   S208      1.0  0.53053  0.40017  0.05283  1.0000
  C   C824      1.0  0.59689  0.41061  0.00180  1.0000
  H   H964      1.0  0.51095  0.21046  0.98725  1.0000
  Fe  Fe101     1.0  0.55773  0.43891  0.05497  1.0000
  S   S209      1.0  0.60061  0.44782  0.04234  1.0000
  S   S210      1.0  0.60203  0.31378  0.02277  1.0000
  Fe  Fe102     1.0  0.73688  0.38392  0.09514  1.0000
  S   S211      1.0  0.72478  0.41828  0.08314  1.0000
  S   S212      1.0  0.77012  0.38667  0.11079  1.0000
  Fe  Fe103     1.0  0.69681  0.34482  0.07983  1.0000
  S   S213      1.0  0.68152  0.37597  0.06643  1.0000
  S   S214      1.0  0.67707  0.30235  0.07916  1.0000
  Fe  Fe104     1.0  0.72373  0.40072  0.05670  1.0000
  S   S215      1.0  0.73990  0.42704  0.02714  1.0000
  Fe  Fe105     1.0  0.68394  0.39021  0.09394  1.0000
  S   S216      1.0  0.64888  0.39939  0.10760  1.0000
  S   S217      1.0  0.73913  0.36843  0.06770  1.0000
  S   S218      1.0  0.69587  0.35721  0.10833  1.0000
  H   H965      1.0  0.55289  0.40117  0.15030  1.0000
  H   H966      1.0  0.77264  0.46814  0.07868  1.0000
  H   H967      1.0  0.79330  0.39875  0.01728  1.0000
  H   H968      1.0  0.61973  0.33571  0.07017  1.0000
  C   C825      1.0  0.49065  0.20640  0.09537  1.0000
  H   H969      1.0  0.57879  0.30409  0.06533  1.0000
  H   H970      1.0  0.49435  0.22719  0.09697  1.0000
  H   H971      1.0  0.64381  0.38430  0.03098  1.0000
  H   H972      1.0  0.60455  0.36079  0.07027  1.0000
  H   H973      1.0  0.52605  0.34912  0.06959  1.0000
  S   S219      1.0  0.53110  0.46201  0.04726  1.0000
  Fe  Fe106     1.0  0.50649  0.25790  0.04836  1.0000
  C   C826      1.0  0.62449  0.30744  0.03633  1.0000
  C   C827      1.0  0.64911  0.32640  0.03341  1.0000
  C   C828      1.0  0.66599  0.32369  0.04585  1.0000
  C   C829      1.0  0.65827  0.30224  0.06139  1.0000
  C   C830      1.0  0.63439  0.28224  0.06355  1.0000
  C   C831      1.0  0.61751  0.28478  0.05094  1.0000
  H   H974      1.0  0.65499  0.34343  0.02177  1.0000
  H   H975      1.0  0.68491  0.33842  0.04365  1.0000
  H   H976      1.0  0.62843  0.26544  0.07544  1.0000
  H   H977      1.0  0.59878  0.26968  0.05299  1.0000
  H   H978      1.0  0.57963  0.14218  0.13481  1.0000
  H   H979      1.0  0.60714  0.13174  0.12673  1.0000
  H   H980      1.0  0.83117  0.44432  0.14106  1.0000
  S   S220      1.0  0.56836  0.08424  0.19258  1.0000
  C   C832      1.0  0.80914  0.39545  0.18469  1.0000
  C   C833      1.0  0.61440  0.43308  0.05968  1.0000
  C   C834      1.0  0.59810  0.41432  0.07578  1.0000
  C   C835      1.0  0.60878  0.40451  0.09066  1.0000
  C   C836      1.0  0.63592  0.41200  0.08888  1.0000
  C   C837      1.0  0.65246  0.42929  0.07214  1.0000
  C   C838      1.0  0.64167  0.44018  0.05766  1.0000
  H   H981      1.0  0.57722  0.40725  0.07679  1.0000
  H   H982      1.0  0.59601  0.39081  0.10342  1.0000
  H   H983      1.0  0.48587  0.18848  0.13315  1.0000
  H   H984      1.0  0.50237  0.37443  0.00482  1.0000
  H   H985      1.0  0.63985  0.37181  0.99174  1.0000
  C   C839      1.0  0.71607  0.36876  0.99810  1.0000
  C   C840      1.0  0.72250  0.38238  0.01281  1.0000
  C   C841      1.0  0.73087  0.40990  0.00897  1.0000
  H   H986      1.0  0.66357  0.24474  0.09364  1.0000
  H   H987      1.0  0.68907  0.22361  0.11253  1.0000
  H   H988      1.0  0.71002  0.34743  0.00113  1.0000
  H   H989      1.0  0.72184  0.37162  0.02697  1.0000
  H   H990      1.0  0.51622  0.13545  0.11869  1.0000
  C   C842      1.0  0.50102  0.99966  0.17259  1.0000
  C   C843      1.0  0.79932  0.45898  0.13699  1.0000
  C   C844      1.0  0.77437  0.38377  0.21295  1.0000
  C   C845      1.0  0.80412  0.41903  0.12780  1.0000
  C   C846      1.0  0.78132  0.41499  0.12033  1.0000
  C   C847      1.0  0.76785  0.43336  0.12074  1.0000
  C   C848      1.0  0.77678  0.45525  0.12915  1.0000
  C   C849      1.0  0.51058  0.33186  0.07795  1.0000
  Fe  Fe107     1.0  0.50238  0.42229  0.04813  1.0000
  H   H991      1.0  0.75010  0.43029  0.11520  1.0000
  H   H992      1.0  0.59470  0.46639  0.15578  1.0000
  C   C850      1.0  0.89403  0.42846  0.21651  1.0000
  H   H993      1.0  0.77857  0.42912  0.05431  1.0000
  C   C851      1.0  0.61081  0.27618  0.11651  1.0000
  H   H994      1.0  0.89441  0.43614  0.20158  1.0000
  H   H995      1.0  0.93463  0.43053  0.21085  1.0000
  C   C852      1.0  0.54210  0.17801  0.07503  1.0000
  H   H996      1.0  0.61355  0.37234  0.02329  1.0000
  C   C853      1.0  0.72721  0.37253  0.15829  1.0000
  H   H997      1.0  0.58599  0.11682  0.15016  1.0000
  Fe  Fe108     1.0  0.51833  0.13680  0.15949  1.0000
  S   S221      1.0  0.52657  0.10021  0.15345  1.0000
  H   H998      1.0  0.63378  0.29593  0.98823  1.0000
  S   S222      1.0  0.84331  0.42838  0.22424  1.0000
  H   H999      1.0  0.80531  0.43390  0.20236  1.0000
  C   C854      1.0  0.73228  0.42380  0.99046  1.0000
  S   S223      1.0  0.49894  0.22499  0.03237  1.0000
  H   H1000     1.0  0.77260  0.43196  0.20090  1.0000
  C   C855      1.0  0.54094  0.17572  0.11463  1.0000
  C   C856      1.0  0.55613  0.19862  0.10105  1.0000
  H   H1001     1.0  0.79775  0.44056  0.17910  1.0000
  H   H1002     1.0  0.61036  0.01878  0.19336  1.0000
  H   H1003     1.0  0.81619  0.40535  0.16916  1.0000
  H   H1004     1.0  0.76754  0.35096  0.18310  1.0000
  C   C857      1.0  0.48115  0.34198  0.02756  1.0000
  C   C858      1.0  0.86157  0.48253  0.09691  1.0000
  C   C859      1.0  0.60434  0.42528  0.14241  1.0000
  C   C860      1.0  0.81959  0.47381  0.03972  1.0000
  Fe  Fe109     1.0  0.52471  0.25574  0.00679  1.0000
  N   N57       1.0  0.58437  0.43777  0.13805  1.0000
  C   C861      1.0  0.56985  0.01670  0.19729  1.0000
  C   C862      1.0  0.79009  0.42766  0.19378  1.0000
  N   N58       1.0  0.78411  0.39938  0.19286  1.0000
  H   H1005     1.0  0.78338  0.42636  0.07869  1.0000
  C   C863      1.0  0.49403  0.35325  0.00833  1.0000
  S   S224      1.0  0.50803  0.35978  0.10661  1.0000
  C   C864      1.0  0.76439  0.39050  0.18110  1.0000
  C   C865      1.0  0.75819  0.36461  0.17740  1.0000
  C   C866      1.0  0.75063  0.40682  0.17321  1.0000
  H   H1006     1.0  0.49508  0.41077  0.15130  1.0000
  C   C867      1.0  0.73220  0.39774  0.16213  1.0000
  H   H1007     1.0  0.81486  0.40512  0.12721  1.0000
  C   C868      1.0  0.50315  0.30932  0.07014  1.0000
  H   H1008     1.0  0.75418  0.42693  0.17493  1.0000
  H   H1009     1.0  0.62284  0.44019  0.14338  1.0000
  H   H1010     1.0  0.73639  0.33649  0.16270  1.0000
  C   C869      1.0  0.79536  0.40392  0.00175  1.0000
  H   H1011     1.0  0.87883  0.45639  0.08437  1.0000
  H   H1012     1.0  0.67353  0.43497  0.07068  1.0000
  C   C870      1.0  0.49289  0.02160  0.16765  1.0000
  Fe  Fe110     1.0  0.48844  0.11054  0.20071  1.0000
  H   H1013     1.0  0.56854  0.21749  0.07090  1.0000
  H   H1014     1.0  0.56638  0.33137  0.06373  1.0000
  H   H1015     1.0  0.62119  0.40221  0.03280  1.0000
  N   N59       1.0  0.58169  0.32346  0.08932  1.0000
  S   S225      1.0  0.56177  0.24859  0.01190  1.0000
  H   H1016     1.0  0.57308  0.03184  0.18453  1.0000
  H   H1017     1.0  0.50706  0.04116  0.16420  1.0000
  H   H1018     1.0  0.65367  0.44352  0.01247  1.0000
  C   C871      1.0  0.65359  0.22685  0.10458  1.0000
  H   H1019     1.0  0.67647  0.42533  0.01405  1.0000
  H   H1020     1.0  0.73853  0.44512  0.98746  1.0000
  S   S226      1.0  0.48403  0.41489  0.07965  1.0000
  H   H1021     1.0  0.54782  0.30085  0.07987  1.0000
  H   H1022     1.0  0.71371  0.36601  0.14903  1.0000
  N   N60       1.0  0.64199  0.40641  0.00366  1.0000
  C   C872      1.0  0.55872  0.07524  0.21795  1.0000
  H   H1023     1.0  0.52144  0.00239  0.17278  1.0000
  H   H1024     1.0  0.63103  0.45246  0.10949  1.0000
  C   C873      1.0  0.49950  0.43183  0.14661  1.0000
  H   H1025     1.0  0.49406  0.42904  0.11779  1.0000
  C   C874      1.0  0.81320  0.44106  0.13593  1.0000
  H   H1026     1.0  0.98017  0.38711  0.22424  1.0000
  C   C875      1.0  0.48338  0.28670  0.08100  1.0000
  C   C876      1.0  0.49906  0.44220  0.12755  1.0000
  H   H1027     1.0  0.56396  0.35401  0.09201  1.0000
  H   H1028     1.0  0.51249  0.30960  0.05562  1.0000
  H   H1029     1.0  0.61890  0.12460  0.16779  1.0000
  C   C877      1.0  0.74011  0.35597  0.16596  1.0000
  H   H1030     1.0  0.58098  0.16947  0.15855  1.0000
  C   C878      1.0  0.50543  0.46939  0.12112  1.0000
  H   H1031     1.0  0.80741  0.37436  0.18575  1.0000
  C   C879      1.0  0.52776  0.15331  0.10831  1.0000
  C   C880      1.0  0.59579  0.13586  0.13953  1.0000
  H   H1032     1.0  0.57110  0.43520  0.16863  1.0000
  H   H1033     1.0  0.56495  0.40686  0.12452  1.0000
  C   C881      1.0  0.79344  0.43468  0.06334  1.0000
  C   C882      1.0  0.56938  0.05887  0.22887  1.0000
  C   C883      1.0  0.61346  0.19299  0.12216  1.0000
  H   H1034     1.0  0.72241  0.41071  0.15585  1.0000
  S   S227      1.0  0.53867  0.18107  0.05086  1.0000
  H   H1035     1.0  0.56025  0.41676  0.99857  1.0000
  C   C884      1.0  0.55686  0.19971  0.08129  1.0000
  H   H1036     1.0  0.59235  0.18555  0.12450  1.0000
  C   C885      1.0  0.66791  0.21486  0.11525  1.0000
  S   S228      1.0  0.53747  0.17632  0.13933  1.0000
  H   H1037     1.0  0.65442  0.45452  0.04517  1.0000
  H   H1038     1.0  0.53110  0.09672  0.21927  1.0000
  H   H1039     1.0  0.58957  0.23863  0.13553  1.0000
  H   H1040     1.0  0.60903  0.41416  0.13125  1.0000
  Fe  Fe111     1.0  0.53667  0.22124  0.03935  1.0000
  S   S229      1.0  0.52907  0.28916  0.02221  1.0000
  C   C886      1.0  0.56595  0.33623  0.10092  1.0000
  C   C887      1.0  0.58435  0.30048  0.10198  1.0000
  C   C888      1.0  0.60907  0.29829  0.10457  1.0000
  C   C889      1.0  0.56168  0.27930  0.11219  1.0000
  C   C890      1.0  0.56366  0.25738  0.12422  1.0000
  H   H1041     1.0  0.54556  0.32305  0.10728  1.0000
  H   H1042     1.0  0.57506  0.34241  0.11307  1.0000
  H   H1043     1.0  0.61826  0.35208  0.09039  1.0000
  H   H1044     1.0  0.62747  0.31322  0.09738  1.0000
  H   H1045     1.0  0.54223  0.27955  0.11091  1.0000
  H   H1046     1.0  0.54612  0.24128  0.13177  1.0000
  C   C891      1.0  0.56806  0.31456  0.07395  1.0000
  S   S230      1.0  0.53034  0.13419  0.18803  1.0000
  Fe  Fe112     1.0  0.50382  0.45342  0.20734  1.0000
  H   H1047     1.0  0.61532  0.22517  0.09965  1.0000
  H   H1048     1.0  0.60844  0.17815  0.17001  1.0000
  Fe  Fe113     1.0  0.51474  0.45291  0.07934  1.0000
  H   H1049     1.0  0.50805  0.20085  0.09789  1.0000
  Fe  Fe114     1.0  0.85782  0.46203  0.19864  1.0000
  C   C892      1.0  0.62738  0.17997  0.13312  1.0000
  Fe  Fe115     1.0  0.53519  0.09600  0.18320  1.0000
  C   C893      1.0  0.52840  0.15446  0.08847  1.0000
  C   C894      1.0  0.59648  0.16240  0.16373  1.0000
  H   H1050     1.0  0.58881  0.40169  0.01691  1.0000
  H   H1051     1.0  0.52549  0.45014  0.00773  1.0000
  C   C895      1.0  0.60722  0.34382  0.07966  1.0000
  S   S231      1.0  0.50681  0.48219  0.09671  1.0000
  H   H1052     1.0  0.56675  0.21583  0.10579  1.0000
  S   S232      1.0  0.49405  0.07200  0.19797  1.0000
  H   H1053     1.0  0.76600  0.46912  0.12983  1.0000
  C   C896      1.0  0.62643  0.21588  0.10801  1.0000
  H   H1054     1.0  0.82008  0.44365  0.99913  1.0000
  H   H1055     1.0  0.66744  0.18353  0.13704  1.0000
  Fe  Fe116     1.0  0.51497  0.39632  0.08433  1.0000
  C   C897      1.0  0.82330  0.48788  0.08571  1.0000
  S   S233      1.0  0.54244  0.25231  0.05718  1.0000
  C   C898      1.0  0.78388  0.47500  0.06342  1.0000
  H   H1056     1.0  0.64350  0.13770  0.14596  1.0000
  S   S234      1.0  0.51147  0.43487  0.18186  1.0000
  S   S235      1.0  0.52913  0.45760  0.22938  1.0000
  H   H1057     1.0  0.51734  0.13747  0.08363  1.0000
  C   C899      1.0  0.65464  0.39017  0.99318  1.0000
  H   H1058     1.0  0.64254  0.15613  0.16512  1.0000
  H   H1059     1.0  0.91618  0.48041  0.22997  1.0000
  Fe  Fe117     1.0  0.56448  0.28006  0.02909  1.0000
  C   C900      1.0  0.63044  0.14315  0.15702  1.0000
  H   H1060     1.0  0.59730  0.41075  0.15644  1.0000
  H   H1061     1.0  0.58630  0.14492  0.17574  1.0000
  C   C901      1.0  0.62944  0.39062  0.02352  1.0000
  H   H1062     1.0  0.56116  0.45765  0.15350  1.0000
  H   H1063     1.0  0.66889  0.38420  0.00090  1.0000
  C   C902      1.0  0.58818  0.25582  0.12636  1.0000
  C   C903      1.0  0.65514  0.19174  0.12933  1.0000
  H   H1064     1.0  0.78866  0.39024  0.22227  1.0000
  H   H1065     1.0  0.48968  0.20649  0.07997  1.0000
  C   C904      1.0  0.82447  0.47024  0.07301  1.0000
  H   H1066     1.0  0.84771  0.44603  0.06328  1.0000
  Fe  Fe118     1.0  0.48458  0.07997  0.16886  1.0000
  Fe  Fe119     1.0  0.84284  0.48835  0.16393  1.0000
  C   C905      1.0  0.81026  0.42921  0.99152  1.0000
  C   C906      1.0  0.56074  0.41657  0.13673  1.0000
  C   C907      1.0  0.53899  0.08352  0.22728  1.0000
  H   H1067     1.0  0.80583  0.46975  0.02967  1.0000
  N   N61       1.0  0.80560  0.46367  0.06019  1.0000
  H   H1068     1.0  0.58497  0.05274  0.22184  1.0000
  H   H1069     1.0  0.48595  0.48405  0.05394  1.0000
  C   C908      1.0  0.58682  0.99057  0.21901  1.0000
  H   H1070     1.0  0.82489  0.40352  0.19250  1.0000
  C   C909      1.0  0.59087  0.00948  0.20232  1.0000
  C   C910      1.0  0.62406  0.48070  0.08901  1.0000
  H   H1071     1.0  0.97453  0.47139  0.12216  1.0000
  C   C911      1.0  0.59318  0.45794  0.11983  1.0000
  C   C912      1.0  0.96066  0.48401  0.14772  1.0000
  C   C913      1.0  0.57680  0.47269  0.11432  1.0000
  C   C914      1.0  0.57766  0.44981  0.15463  1.0000
  H   H1072     1.0  0.80781  0.42430  0.05985  1.0000
  C   C915      1.0  0.86340  0.46532  0.08457  1.0000
  C   C916      1.0  0.84531  0.45938  0.07266  1.0000
  C   C917      1.0  0.61730  0.46275  0.10669  1.0000
  H   H1073     1.0  0.54453  0.42420  0.13410  1.0000
  H   H1074     1.0  0.52951  0.01210  0.20429  1.0000
  C   C918      1.0  0.97868  0.47636  0.13569  1.0000
  H   H1075     1.0  0.87535  0.48681  0.10637  1.0000
  C   C919      1.0  0.49551  0.33748  0.99427  1.0000
  S   S236      1.0  0.80966  0.48611  0.14802  1.0000
  C   C920      1.0  0.49038  0.42319  0.00298  1.0000
  Fe  Fe120     1.0  0.89897  0.48851  0.16184  1.0000
  H   H1076     1.0  0.83488  0.46458  0.03578  1.0000
  C   C921      1.0  0.58013  0.41924  0.99138  1.0000
  C   C922      1.0  0.49856  0.33172  0.09672  1.0000
  H   H1077     1.0  0.77113  0.36241  0.21363  1.0000
  C   C923      1.0  0.87091  0.42171  0.23051  1.0000
  H   H1078     1.0  0.55795  0.46975  0.12333  1.0000
  H   H1079     1.0  0.76949  0.46890  0.05410  1.0000
  C   C924      1.0  0.62339  0.41447  0.99297  1.0000
  S   S237      1.0  0.93230  0.48664  0.13994  1.0000
  H   H1080     1.0  0.49665  0.00291  0.23113  1.0000
  H   H1081     1.0  0.48149  0.29655  0.99074  1.0000
  C   C925      1.0  0.66259  0.43032  0.00534  1.0000
  C   C926      1.0  0.51233  0.47574  0.15317  1.0000
  C   C927      1.0  0.51174  0.48618  0.13403  1.0000
  H   H1082     1.0  0.64217  0.48347  0.07894  1.0000
  C   C928      1.0  0.48221  0.30995  0.00054  1.0000
  H   H1083     1.0  0.67462  0.44195  0.99099  1.0000
  H   H1084     1.0  0.77070  0.36575  0.00009  1.0000
  C   C929      1.0  0.78260  0.38533  0.99203  1.0000
  H   H1085     1.0  0.51805  0.48878  0.16291  1.0000
  S   S238      1.0  0.88323  0.11216  0.41009  1.0000
  Fe  Fe121     1.0  0.74592  0.02614  0.40280  1.0000
  S   S239      1.0  0.70603  0.01620  0.42204  1.0000
  S   S240      1.0  0.77105  0.06856  0.39033  1.0000
  N   N62       1.0  0.85726  0.09048  0.47845  1.0000
  H   H1086     1.0  0.97791  0.33401  0.32387  1.0000
  C   C930      1.0  0.62995  0.00689  0.34566  1.0000
  C   C931      1.0  0.75893  0.04973  0.47761  1.0000
  C   C932      1.0  0.86042  0.45148  0.29741  1.0000
  H   H1087     1.0  0.85670  0.44371  0.31284  1.0000
  C   C933      1.0  0.48712  0.44347  0.32969  1.0000
  H   H1088     1.0  0.82035  0.43429  0.29528  1.0000
  H   H1089     1.0  0.74068  0.03368  0.45544  1.0000
  C   C934      1.0  0.87021  0.47110  0.25764  1.0000
  H   H1090     1.0  0.79256  0.02880  0.37509  1.0000
  H   H1091     1.0  0.83348  0.02733  0.32904  1.0000
  H   H1092     1.0  0.86151  0.29774  0.35590  1.0000
  H   H1093     1.0  0.88576  0.36502  0.38981  1.0000
  H   H1094     1.0  0.53106  0.01552  0.40904  1.0000
  H   H1095     1.0  0.89643  0.38292  0.36550  1.0000
  H   H1096     1.0  0.90642  0.35473  0.37278  1.0000
  Fe  Fe122     1.0  0.90395  0.15332  0.41368  1.0000
  H   H1097     1.0  0.53237  0.48112  0.29034  1.0000
  H   H1098     1.0  0.93771  0.22012  0.46869  1.0000
  C   C935      1.0  0.88579  0.46672  0.28749  1.0000
  H   H1099     1.0  0.82636  0.10775  0.47792  1.0000
  C   C936      1.0  0.91196  0.45721  0.33527  1.0000
  H   H1100     1.0  0.94904  0.45051  0.33548  1.0000
  H   H1101     1.0  0.78498  0.99439  0.37514  1.0000
  S   S241      1.0  0.62056  0.02192  0.32559  1.0000
  Fe  Fe123     1.0  0.53897  0.01650  0.29917  1.0000
  S   S242      1.0  0.52460  0.04596  0.28264  1.0000
  H   H1102     1.0  0.82135  0.06814  0.35577  1.0000
  S   S243      1.0  0.54760  0.02210  0.32809  1.0000
  S   S244      1.0  0.88675  0.17505  0.43360  1.0000
  C   C937      1.0  0.91644  0.41499  0.24100  1.0000
  H   H1103     1.0  0.92953  0.33039  0.35698  1.0000
  Fe  Fe124     1.0  0.91411  0.21182  0.41293  1.0000
  C   C938      1.0  0.52918  0.07481  0.24716  1.0000
  C   C939      1.0  0.53899  0.05767  0.25798  1.0000
  S   S245      1.0  0.48585  0.40665  0.27673  1.0000
  C   C940      1.0  0.60756  0.04522  0.37084  1.0000
  C   C941      1.0  0.50462  0.45070  0.31190  1.0000
  H   H1104     1.0  0.51363  0.08118  0.25401  1.0000
  Fe  Fe125     1.0  0.49149  0.43922  0.25145  1.0000
  H   H1105     1.0  0.80421  0.03481  0.44621  1.0000
  S   S246      1.0  0.94559  0.41243  0.24728  1.0000
  S   S247      1.0  0.90856  0.37662  0.30153  1.0000
  H   H1106     1.0  0.88961  0.34070  0.34353  1.0000
  H   H1107     1.0  0.85587  0.32823  0.40881  1.0000
  H   H1108     1.0  0.85550  0.33588  0.34280  1.0000
  H   H1109     1.0  0.90351  0.23271  0.37065  1.0000
  C   C942      1.0  0.88970  0.36262  0.37462  1.0000
  C   C943      1.0  0.80092  0.01231  0.37579  1.0000
  H   H1110     1.0  0.85254  0.40580  0.26056  1.0000
  H   H1111     1.0  0.87804  0.47010  0.33539  1.0000
  H   H1112     1.0  0.89285  0.40043  0.26987  1.0000
  C   C944      1.0  0.91985  0.29574  0.34490  1.0000
  H   H1113     1.0  0.85421  0.10818  0.35837  1.0000
  H   H1114     1.0  0.90562  0.06482  0.37202  1.0000
  C   C945      1.0  0.88740  0.06525  0.36788  1.0000
  C   C946      1.0  0.84945  0.28712  0.41172  1.0000
  C   C947      1.0  0.83963  0.06447  0.47716  1.0000
  C   C948      1.0  0.84404  0.35514  0.37391  1.0000
  S   S248      1.0  0.73211  0.99681  0.38428  1.0000
  C   C949      1.0  0.85778  0.29585  0.37141  1.0000
  H   H1115     1.0  0.87760  0.36817  0.34020  1.0000
  H   H1116     1.0  0.84925  0.11564  0.45507  1.0000
  H   H1117     1.0  0.89615  0.10687  0.36678  1.0000
  C   C950      1.0  0.65502  0.01808  0.34923  1.0000
  H   H1118     1.0  0.96369  0.27023  0.38884  1.0000
  Fe  Fe126     1.0  0.94401  0.40103  0.27900  1.0000
  H   H1119     1.0  0.63535  0.02590  0.40728  1.0000
  C   C951      1.0  0.73316  0.00383  0.48115  1.0000
  H   H1120     1.0  0.66845  0.03583  0.33959  1.0000
  C   C952      1.0  0.87038  0.41100  0.24968  1.0000
  Fe  Fe127     1.0  0.95987  0.19074  0.40857  1.0000
  S   S249      1.0  0.96997  0.37897  0.28942  1.0000
  C   C953      1.0  0.81617  0.02128  0.34126  1.0000
  C   C954      1.0  0.85496  0.31260  0.40094  1.0000
  H   H1121     1.0  0.80195  0.00279  0.33941  1.0000
  C   C955      1.0  0.93721  0.47822  0.26149  1.0000
  H   H1122     1.0  0.92160  0.30542  0.39066  1.0000
  C   C956      1.0  0.84456  0.04202  0.36143  1.0000
  H   H1123     1.0  0.64602  0.05921  0.37703  1.0000
  C   C957      1.0  0.83998  0.44617  0.28756  1.0000
  H   H1124     1.0  0.61278  0.05900  0.35706  1.0000
  C   C958      1.0  0.85107  0.10101  0.40614  1.0000
  C   C959      1.0  0.83859  0.07376  0.40919  1.0000
  C   C960      1.0  0.81358  0.06376  0.40526  1.0000
  C   C961      1.0  0.80110  0.08087  0.39758  1.0000
  C   C962      1.0  0.81354  0.10821  0.39455  1.0000
  C   C963      1.0  0.83834  0.11830  0.39907  1.0000
  H   H1125     1.0  0.84847  0.06030  0.41445  1.0000
  H   H1126     1.0  0.80445  0.04282  0.40756  1.0000
  H   H1127     1.0  0.80405  0.12161  0.38855  1.0000
  H   H1128     1.0  0.84792  0.13937  0.39652  1.0000
  H   H1129     1.0  0.85012  0.99652  0.35073  1.0000
  S   S250      1.0  0.94663  0.38527  0.33334  1.0000
  C   C964      1.0  0.66257  0.00670  0.36549  1.0000
  C   C965      1.0  0.83265  0.99392  0.36213  1.0000
  N   N63       1.0  0.86641  0.34516  0.36934  1.0000
  Fe  Fe128     1.0  0.92280  0.40687  0.31900  1.0000
  H   H1130     1.0  0.56719  0.03678  0.25719  1.0000
  Fe  Fe129     1.0  0.57944  0.00443  0.32104  1.0000
  S   S251      1.0  0.75942  0.99901  0.42250  1.0000
  C   C966      1.0  0.85196  0.27044  0.38237  1.0000
  S   S252      1.0  0.90542  0.25018  0.40693  1.0000
  C   C967      1.0  0.62025  0.02654  0.39910  1.0000
  C   C968      1.0  0.85858  0.08977  0.36003  1.0000
  H   H1131     1.0  0.93052  0.45795  0.25868  1.0000
  H   H1132     1.0  0.85875  0.13137  0.47383  1.0000
  C   C969      1.0  0.84485  0.45606  0.26774  1.0000
  H   H1133     1.0  0.51921  0.99737  0.25857  1.0000
  H   H1134     1.0  0.50757  0.07851  0.30829  1.0000
  S   S253      1.0  0.89507  0.42465  0.33408  1.0000
  C   C970      1.0  0.90927  0.25401  0.36770  1.0000
  H   H1135     1.0  0.90086  0.47055  0.29586  1.0000
  C   C971      1.0  0.93870  0.46479  0.33561  1.0000
  S   S254      1.0  0.93697  0.15243  0.42884  1.0000
  C   C972      1.0  0.62635  0.04528  0.38202  1.0000
  S   S255      1.0  0.92300  0.31266  0.32119  1.0000
  H   H1136     1.0  0.91014  0.25769  0.33714  1.0000
  C   C973      1.0  0.91297  0.26816  0.34878  1.0000
  S   S256      1.0  0.92834  0.19001  0.39151  1.0000
  C   C974      1.0  0.48482  0.46255  0.34021  1.0000
  H   H1137     1.0  0.82604  0.34238  0.37037  1.0000
  H   H1138     1.0  0.87417  0.02424  0.36901  1.0000
  C   C975      1.0  0.91205  0.26740  0.38287  1.0000
  N   N64       1.0  0.82416  0.01774  0.36015  1.0000
  H   H1139     1.0  0.84674  0.28364  0.42734  1.0000
  H   H1140     1.0  0.84836  0.37560  0.36553  1.0000
  H   H1141     1.0  0.68170  0.01569  0.36841  1.0000
  H   H1142     1.0  0.59228  0.99344  0.41828  1.0000
  Fe  Fe130     1.0  0.97900  0.40881  0.30790  1.0000
  C   C976      1.0  0.82919  0.06107  0.46037  1.0000
  H   H1143     1.0  0.76698  0.06960  0.46903  1.0000
  H   H1144     1.0  0.83933  0.35587  0.38945  1.0000
  C   C977      1.0  0.58256  0.02650  0.37676  1.0000
  H   H1145     1.0  0.89761  0.11426  0.46700  1.0000
  C   C978      1.0  0.89323  0.40797  0.25497  1.0000
  S   S257      1.0  0.57347  0.00301  0.29083  1.0000
  C   C979      1.0  0.92358  0.30917  0.35996  1.0000
  C   C980      1.0  0.59525  0.00779  0.40522  1.0000
  H   H1146     1.0  0.87252  0.47777  0.24228  1.0000
  C   C981      1.0  0.86897  0.04199  0.36619  1.0000
  C   C982      1.0  0.89157  0.47675  0.26724  1.0000
  S   S258      1.0  0.95618  0.43296  0.29539  1.0000
  Fe  Fe131     1.0  0.93542  0.35709  0.31374  1.0000
  H   H1147     1.0  0.84475  0.24654  0.41077  1.0000
  H   H1148     1.0  0.79317  0.99603  0.47283  1.0000
  C   C983      1.0  0.74411  0.02940  0.46990  1.0000
  H   H1149     1.0  0.83364  0.07726  0.44824  1.0000
  H   H1150     1.0  0.80594  0.00885  0.39025  1.0000
  C   C984      1.0  0.87254  0.34743  0.34807  1.0000
  C   C985      1.0  0.55932  0.04984  0.24889  1.0000
  H   H1151     1.0  0.85156  0.25410  0.37520  1.0000
  C   C986      1.0  0.83990  0.06665  0.35852  1.0000
  C   C987      1.0  0.91934  0.29501  0.37895  1.0000
  H   H1152     1.0  0.80613  0.03643  0.33973  1.0000
  C   C988      1.0  0.84808  0.26612  0.40244  1.0000
  H   H1153     1.0  0.82902  0.45167  0.25999  1.0000
  Fe  Fe132     1.0  0.92121  0.17646  0.44735  1.0000
  S   S259      1.0  0.94727  0.21490  0.42850  1.0000
  C   C989      1.0  0.85972  0.31784  0.38042  1.0000
  H   H1154     1.0  0.93922  0.47640  0.27679  1.0000
  S   S260      1.0  0.91380  0.16306  0.47965  1.0000
  C   C990      1.0  0.97381  0.26152  0.37816  1.0000
  C   C991      1.0  0.89872  0.47581  0.33562  1.0000
  C   C992      1.0  0.88221  0.08906  0.36480  1.0000
  C   C993      1.0  0.80647  0.01476  0.47386  1.0000
  C   C994      1.0  0.93860  0.21361  0.48352  1.0000
  C   C995      1.0  0.51961  0.47707  0.30437  1.0000
  H   H1155     1.0  0.95730  0.48827  0.25248  1.0000
  C   C996      1.0  0.81266  0.03663  0.45890  1.0000
  H   H1156     1.0  0.56913  0.02662  0.36712  1.0000
  C   C997      1.0  0.57547  0.00739  0.39428  1.0000
  H   H1157     1.0  0.49828  0.08800  0.28625  1.0000
  C   C998      1.0  0.88352  0.09492  0.46654  1.0000
  H   H1158     1.0  0.50650  0.43574  0.30381  1.0000
  H   H1159     1.0  0.50167  0.10942  0.30350  1.0000
  C   C999      1.0  0.84736  0.11210  0.47102  1.0000
  H   H1160     1.0  0.89185  0.07931  0.47165  1.0000
  H   H1161     1.0  0.96183  0.25782  0.36704  1.0000
  C   C1000     1.0  0.49469  0.08857  0.30191  1.0000
  H   H1162     1.0  0.97681  0.29079  0.34024  1.0000
  S   S261      1.0  0.48573  0.47771  0.25467  1.0000
  H   H1163     1.0  0.52869  0.01061  0.38498  1.0000
  H   H1164     1.0  0.97318  0.24178  0.38577  1.0000
  C   C1001     1.0  0.52852  0.00059  0.39979  1.0000
  H   H1165     1.0  0.88277  0.09490  0.45107  1.0000
  C   C1002     1.0  0.50006  0.48893  0.33299  1.0000
  Fe  Fe133     1.0  0.93727  0.18708  0.59341  1.0000
  S   S262      1.0  0.93279  0.22660  0.58357  1.0000
  S   S263      1.0  0.89965  0.15324  0.60575  1.0000
  C   C1003     1.0  0.64258  0.99998  0.57544  1.0000
  H   H1166     1.0  0.94214  0.47578  0.69505  1.0000
  H   H1167     1.0  0.92857  0.13543  0.57553  1.0000
  H   H1168     1.0  0.67171  0.07035  0.50815  1.0000
  C   C1004     1.0  0.54089  0.46257  0.68798  1.0000
  Fe  Fe134     1.0  0.81985  0.04752  0.56303  1.0000
  S   S264      1.0  0.80275  0.07945  0.55500  1.0000
  S   S265      1.0  0.86347  0.06057  0.56135  1.0000
  N   N65       1.0  0.51916  0.48172  0.66290  1.0000
  S   S266      1.0  0.74707  0.03240  0.55978  1.0000
  H   H1169     1.0  0.69898  0.02598  0.64187  1.0000
  Fe  Fe135     1.0  0.78284  0.05353  0.53661  1.0000
  S   S267      1.0  0.78021  0.07000  0.50652  1.0000
  Fe  Fe136     1.0  0.76855  0.05563  0.57895  1.0000
  S   S268      1.0  0.74854  0.07405  0.60027  1.0000
  S   S269      1.0  0.80257  0.02317  0.54255  1.0000
  S   S270      1.0  0.78719  0.02531  0.58872  1.0000
  H   H1170     1.0  0.92698  0.34479  0.61513  1.0000
  H   H1171     1.0  0.51023  0.10854  0.72031  1.0000
  C   C1005     1.0  0.66442  0.05611  0.52232  1.0000
  H   H1172     1.0  0.55995  0.44959  0.71000  1.0000
  C   C1006     1.0  0.78128  0.13340  0.55497  1.0000
  C   C1007     1.0  0.71834  0.00624  0.62459  1.0000
  N   N66       1.0  0.68112  0.03905  0.52501  1.0000
  C   C1008     1.0  0.94934  0.23216  0.49426  1.0000
  C   C1009     1.0  0.68616  0.00197  0.54831  1.0000
  C   C1010     1.0  0.93515  0.40491  0.72243  1.0000
  H   H1173     1.0  0.85914  0.12344  0.55375  1.0000
  Fe  Fe137     1.0  0.57209  0.07493  0.64860  1.0000
  S   S271      1.0  0.56899  0.07282  0.61788  1.0000
  S   S272      1.0  0.57212  0.10960  0.66254  1.0000
  H   H1174     1.0  0.96755  0.30724  0.71732  1.0000
  H   H1175     1.0  0.70335  0.00208  0.53841  1.0000
  H   H1176     1.0  0.50922  0.06586  0.63149  1.0000
  Fe  Fe138     1.0  0.59961  0.05251  0.61850  1.0000
  S   S273      1.0  0.63128  0.05855  0.59222  1.0000
  Fe  Fe139     1.0  0.54018  0.03252  0.63078  1.0000
  S   S274      1.0  0.60533  0.05819  0.64817  1.0000
  S   S275      1.0  0.54073  0.03607  0.66150  1.0000
  C   C1011     1.0  0.54072  0.10280  0.67658  1.0000
  C   C1012     1.0  0.53720  0.11212  0.69370  1.0000
  C   C1013     1.0  0.77931  0.12965  0.53635  1.0000
  H   H1177     1.0  0.96769  0.31456  0.63581  1.0000
  H   H1178     1.0  0.72228  0.04553  0.52482  1.0000
  C   C1014     1.0  0.70818  0.05658  0.52374  1.0000
  C   C1015     1.0  0.76330  0.04435  0.49636  1.0000
  H   H1179     1.0  0.85900  0.20236  0.53739  1.0000
  H   H1180     1.0  0.62595  0.99967  0.58613  1.0000
  H   H1181     1.0  0.95616  0.26477  0.69479  1.0000
  C   C1016     1.0  0.48923  0.05798  0.62990  1.0000
  C   C1017     1.0  0.93967  0.19714  0.52229  1.0000
  H   H1182     1.0  0.55362  0.12604  0.69721  1.0000
  H   H1183     1.0  0.84353  0.15319  0.51431  1.0000
  C   C1018     1.0  0.69599  0.00865  0.63568  1.0000
  C   C1019     1.0  0.51275  0.10223  0.70671  1.0000
  H   H1184     1.0  0.71598  0.07115  0.50975  1.0000
  H   H1185     1.0  0.95479  0.38984  0.61186  1.0000
  H   H1186     1.0  0.51453  0.05823  0.73209  1.0000
  S   S276      1.0  0.96557  0.18982  0.56644  1.0000
  H   H1187     1.0  0.69450  0.01299  0.50894  1.0000
  C   C1020     1.0  0.51937  0.08553  0.67172  1.0000
  C   C1021     1.0  0.96467  0.39388  0.69841  1.0000
  C   C1022     1.0  0.50051  0.45457  0.66619  1.0000
  H   H1188     1.0  0.80587  0.14602  0.57410  1.0000
  C   C1023     1.0  0.95448  0.28431  0.68893  1.0000
  C   C1024     1.0  0.71634  0.07169  0.59788  1.0000
  C   C1025     1.0  0.69771  0.07163  0.61380  1.0000
  C   C1026     1.0  0.67153  0.06807  0.61223  1.0000
  C   C1027     1.0  0.66410  0.06503  0.59464  1.0000
  C   C1028     1.0  0.68311  0.06665  0.57852  1.0000
  C   C1029     1.0  0.70909  0.06975  0.58014  1.0000
  H   H1189     1.0  0.70348  0.07399  0.62739  1.0000
  H   H1190     1.0  0.65720  0.06787  0.62452  1.0000
  H   H1191     1.0  0.67769  0.06546  0.56477  1.0000
  H   H1192     1.0  0.72361  0.07108  0.56761  1.0000
  S   S277      1.0  0.96319  0.27154  0.61693  1.0000
  C   C1030     1.0  0.96237  0.37779  0.60337  1.0000
  H   H1193     1.0  0.88963  0.19746  0.53994  1.0000
  C   C1031     1.0  0.85540  0.16546  0.56930  1.0000
  C   C1032     1.0  0.75295  0.01859  0.50735  1.0000
  C   C1033     1.0  0.89058  0.12678  0.59386  1.0000
  C   C1034     1.0  0.86459  0.10977  0.59887  1.0000
  C   C1035     1.0  0.85621  0.08934  0.58903  1.0000
  C   C1036     1.0  0.87402  0.08525  0.57449  1.0000
  C   C1037     1.0  0.90021  0.10178  0.56980  1.0000
  C   C1038     1.0  0.90843  0.12268  0.57933  1.0000
  H   H1194     1.0  0.85074  0.11269  0.61021  1.0000
  H   H1195     1.0  0.83598  0.07669  0.59276  1.0000
  H   H1196     1.0  0.91405  0.09872  0.55854  1.0000
  C   C1039     1.0  0.87036  0.18840  0.53619  1.0000
  Fe  Fe140     1.0  0.96355  0.23048  0.55767  1.0000
  H   H1197     1.0  0.66422  0.06807  0.53367  1.0000
  C   C1040     1.0  0.56387  0.01539  0.73067  1.0000
  H   H1198     1.0  0.75623  0.01424  0.52183  1.0000
  C   C1041     1.0  0.80585  0.14443  0.55924  1.0000
  H   H1199     1.0  0.52646  0.44319  0.69095  1.0000
  H   H1200     1.0  0.93783  0.28674  0.69882  1.0000
  H   H1201     1.0  0.88979  0.14957  0.54958  1.0000
  H   H1202     1.0  0.54361  0.06089  0.70430  1.0000
  H   H1203     1.0  0.84143  0.04195  0.50483  1.0000
  H   H1204     1.0  0.80027  0.13348  0.50751  1.0000
  C   C1042     1.0  0.81718  0.01714  0.49022  1.0000
  H   H1205     1.0  0.92214  0.15784  0.51813  1.0000
  H   H1206     1.0  0.76373  0.12687  0.56639  1.0000
  C   C1043     1.0  0.95514  0.47967  0.70558  1.0000
  H   H1207     1.0  0.95880  0.33435  0.68973  1.0000
  S   S278      1.0  0.50227  0.01511  0.62159  1.0000
  H   H1208     1.0  0.54348  0.47844  0.63728  1.0000
  C   C1044     1.0  0.73769  0.99844  0.49983  1.0000
  C   C1045     1.0  0.67216  0.01967  0.54365  1.0000
  C   C1046     1.0  0.55609  0.05035  0.70949  1.0000
  H   H1209     1.0  0.98027  0.47148  0.67202  1.0000
  N   N67       1.0  0.85579  0.16227  0.54899  1.0000
  H   H1210     1.0  0.87433  0.14243  0.52988  1.0000
  C   C1047     1.0  0.80188  0.13706  0.52185  1.0000
  N   N68       1.0  0.97933  0.30594  0.68728  1.0000
  H   H1211     1.0  0.94191  0.31446  0.59715  1.0000
  H   H1212     1.0  0.95162  0.46055  0.71544  1.0000
  H   H1213     1.0  0.58959  0.07583  0.68789  1.0000
  H   H1214     1.0  0.84580  0.14629  0.57974  1.0000
  H   H1215     1.0  0.61965  0.05245  0.69790  1.0000
  C   C1048     1.0  0.92941  0.17861  0.51150  1.0000
  H   H1216     1.0  0.84517  0.17965  0.57299  1.0000
  C   C1049     1.0  0.59942  0.04600  0.70566  1.0000
  C   C1050     1.0  0.82654  0.14820  0.52593  1.0000
  C   C1051     1.0  0.97194  0.39237  0.73102  1.0000
  C   C1052     1.0  0.94243  0.40149  0.70359  1.0000
  H   H1217     1.0  0.87100  0.07955  0.50441  1.0000
  H   H1218     1.0  0.52180  0.07940  0.65811  1.0000
  H   H1219     1.0  0.97009  0.33156  0.66536  1.0000
  C   C1053     1.0  0.49203  0.08323  0.70237  1.0000
  H   H1220     1.0  0.87559  0.17299  0.57206  1.0000
  Fe  Fe141     1.0  0.96642  0.24250  0.59778  1.0000
  Fe  Fe142     1.0  0.76825  0.00378  0.56743  1.0000
  C   C1054     1.0  0.50152  0.01242  0.72010  1.0000
  S   S279      1.0  0.90770  0.41509  0.72876  1.0000
  Fe  Fe143     1.0  0.57353  0.01923  0.65851  1.0000
  H   H1221     1.0  0.76031  0.12040  0.53326  1.0000
  H   H1222     1.0  0.94873  0.28385  0.67465  1.0000
  H   H1223     1.0  0.93096  0.40491  0.69299  1.0000
  C   C1055     1.0  0.87040  0.14369  0.54535  1.0000
  H   H1224     1.0  0.87493  0.18724  0.52071  1.0000
  H   H1225     1.0  0.50393  0.02992  0.70878  1.0000
  C   C1056     1.0  0.58243  0.05909  0.69998  1.0000
  H   H1226     1.0  0.51069  0.44032  0.66248  1.0000
  C   C1057     1.0  0.94977  0.22396  0.51371  1.0000
  C   C1058     1.0  0.82932  0.15204  0.54481  1.0000
  H   H1227     1.0  0.84058  0.08719  0.50844  1.0000
  H   H1228     1.0  0.95697  0.25291  0.48755  1.0000
  C   C1059     1.0  0.97498  0.33107  0.67989  1.0000
  C   C1060     1.0  0.86013  0.09240  0.49858  1.0000
  C   C1061     1.0  0.59019  0.02427  0.72102  1.0000
  C   C1062     1.0  0.92857  0.18679  0.49218  1.0000
  H   H1229     1.0  0.61036  0.99647  0.64512  1.0000
  C   C1063     1.0  0.54022  0.48392  0.67401  1.0000
  C   C1064     1.0  0.54592  0.02817  0.72508  1.0000
  C   C1065     1.0  0.83372  0.04151  0.49184  1.0000
  H   H1230     1.0  0.87177  0.11266  0.49946  1.0000
  H   H1231     1.0  0.57827  0.10603  0.71804  1.0000
  C   C1066     1.0  0.65159  0.01370  0.65993  1.0000
  H   H1232     1.0  0.70905  0.06763  0.53565  1.0000
  H   H1233     1.0  0.81238  0.00012  0.50188  1.0000
  C   C1067     1.0  0.56024  0.46588  0.69901  1.0000
  C   C1068     1.0  0.57322  0.10357  0.73363  1.0000
  S   S280      1.0  0.57035  0.01187  0.62890  1.0000
  C   C1069     1.0  0.95429  0.33478  0.59516  1.0000
  C   C1070     1.0  0.94605  0.35186  0.60539  1.0000
  H   H1234     1.0  0.93927  0.19058  0.53730  1.0000
  S   S281      1.0  0.96304  0.24741  0.52702  1.0000
  H   H1235     1.0  0.68788  0.03884  0.49442  1.0000
  H   H1236     1.0  0.65997  0.03298  0.64953  1.0000
  H   H1237     1.0  0.64384  0.04425  0.52262  1.0000
  H   H1238     1.0  0.97609  0.43310  0.59597  1.0000
  H   H1239     1.0  0.63792  0.01290  0.62531  1.0000
  C   C1071     1.0  0.68114  0.02497  0.50876  1.0000
  C   C1072     1.0  0.64987  0.01792  0.55773  1.0000
  H   H1240     1.0  0.63812  0.03074  0.55580  1.0000
  C   C1073     1.0  0.49509  0.07568  0.68459  1.0000
  H   H1241     1.0  0.63303  0.01425  0.66873  1.0000
  H   H1242     1.0  0.73724  0.02129  0.62268  1.0000
  H   H1243     1.0  0.66506  0.01231  0.66997  1.0000
  S   S282      1.0  0.96887  0.20255  0.60963  1.0000
  H   H1244     1.0  0.48969  0.44756  0.68148  1.0000
  C   C1074     1.0  0.97922  0.38896  0.71223  1.0000
  H   H1245     1.0  0.97019  0.39131  0.68385  1.0000
  H   H1246     1.0  0.50677  0.99737  0.71273  1.0000
  H   H1247     1.0  0.66122  0.01128  0.50932  1.0000
  H   H1248     1.0  0.51537  0.48791  0.63306  1.0000
  H   H1249     1.0  0.48529  0.45339  0.65728  1.0000
  H   H1250     1.0  0.60330  0.01370  0.72509  1.0000
  C   C1075     1.0  0.62866  0.99475  0.63689  1.0000
  C   C1076     1.0  0.97894  0.34348  0.58292  1.0000
  H   H1251     1.0  0.55383  0.13296  0.73249  1.0000
  N   N69       1.0  0.64677  0.99129  0.64980  1.0000
  S   S283      1.0  0.48218  0.39209  0.69978  1.0000
  C   C1077     1.0  0.48111  0.03394  0.62413  1.0000
  Fe  Fe144     1.0  0.91665  0.47845  0.77339  1.0000
  S   S284      1.0  0.91925  0.45799  0.80239  1.0000
  H   H1252     1.0  0.55852  0.11884  0.81712  1.0000
  Fe  Fe145     1.0  0.90910  0.42991  0.75638  1.0000
  S   S285      1.0  0.91026  0.40490  0.78386  1.0000
  H   H1253     1.0  0.54067  0.43299  0.83986  1.0000
  Fe  Fe146     1.0  0.88517  0.42542  0.79870  1.0000
  S   S286      1.0  0.85279  0.39927  0.82358  1.0000
  Fe  Fe147     1.0  0.94409  0.43933  0.78527  1.0000
  C   C1078     1.0  0.93539  0.43196  0.84678  1.0000
  S   S287      1.0  0.88043  0.44735  0.77083  1.0000
  S   S288      1.0  0.94488  0.46292  0.75670  1.0000
  H   H1254     1.0  0.57615  0.43874  0.96396  1.0000
  Fe  Fe148     1.0  0.54638  0.42511  0.88036  1.0000
  S   S289      1.0  0.54290  0.40703  0.91127  1.0000
  S   S290      1.0  0.58498  0.43557  0.85997  1.0000
  H   H1255     1.0  0.53222  0.32397  0.97316  1.0000
  C   C1079     1.0  0.50683  0.29292  0.90071  1.0000
  S   S291      1.0  0.50873  0.41405  0.74453  1.0000
  Fe  Fe149     1.0  0.51649  0.43090  0.91756  1.0000
  H   H1256     1.0  0.49327  0.28001  0.91352  1.0000
  Fe  Fe150     1.0  0.50711  0.37692  0.90756  1.0000
  H   H1257     1.0  0.63027  0.23641  0.92789  1.0000
  S   S292      1.0  0.52258  0.45135  0.88664  1.0000
  S   S293      1.0  0.51267  0.39326  0.87610  1.0000
  Fe  Fe151     1.0  0.69477  0.42756  0.90902  1.0000
  S   S294      1.0  0.71668  0.42600  0.88033  1.0000
  S   S295      1.0  0.66627  0.44946  0.91487  1.0000
  C   C1080     1.0  0.53175  0.48755  0.79731  1.0000
  S   S296      1.0  0.73608  0.38039  0.90416  1.0000
  H   H1258     1.0  0.94515  0.40382  0.75046  1.0000
  Fe  Fe152     1.0  0.74977  0.42454  0.89508  1.0000
  S   S297      1.0  0.79192  0.44916  0.88185  1.0000
  Fe  Fe153     1.0  0.70136  0.38226  0.89139  1.0000
  S   S298      1.0  0.68325  0.36166  0.86952  1.0000
  S   S299      1.0  0.72951  0.43122  0.92277  1.0000
  S   S300      1.0  0.67746  0.38398  0.91926  1.0000
  Fe  Fe154     1.0  0.55178  0.24775  0.86187  1.0000
  S   S301      1.0  0.58403  0.23470  0.84730  1.0000
  S   S302      1.0  0.54596  0.28581  0.84996  1.0000
  Fe  Fe155     1.0  0.59245  0.22751  0.87711  1.0000
  S   S303      1.0  0.63053  0.23823  0.88721  1.0000
  S   S304      1.0  0.56260  0.24373  0.89078  1.0000
  C   C1081     1.0  0.59445  0.33889  0.96766  1.0000
  S   S305      1.0  0.52073  0.20807  0.86895  1.0000
  C   C1082     1.0  0.66848  0.32739  0.87532  1.0000
  C   C1083     1.0  0.67757  0.31121  0.88772  1.0000
  C   C1084     1.0  0.66621  0.28368  0.89108  1.0000
  C   C1085     1.0  0.64520  0.27251  0.88259  1.0000
  C   C1086     1.0  0.63570  0.28882  0.87067  1.0000
  C   C1087     1.0  0.64761  0.31619  0.86679  1.0000
  H   H1259     1.0  0.69378  0.31981  0.89426  1.0000
  H   H1260     1.0  0.67357  0.27105  0.90033  1.0000
  H   H1261     1.0  0.61956  0.28032  0.86404  1.0000
  H   H1262     1.0  0.64062  0.32867  0.85711  1.0000
  H   H1263     1.0  0.51741  0.26890  0.93735  1.0000
  C   C1088     1.0  0.48772  0.48931  0.85090  1.0000
  C   C1089     1.0  0.95949  0.39957  0.84580  1.0000
  C   C1090     1.0  0.48341  0.27161  0.83278  1.0000
  C   C1091     1.0  0.51364  0.32029  0.89881  1.0000
  C   C1092     1.0  0.53094  0.33675  0.88208  1.0000
  C   C1093     1.0  0.54078  0.32610  0.86711  1.0000
  C   C1094     1.0  0.53407  0.29881  0.86904  1.0000
  C   C1095     1.0  0.51725  0.28217  0.88591  1.0000
  N   N70       1.0  0.93355  0.40390  0.84811  1.0000
  H   H1264     1.0  0.53741  0.35773  0.88079  1.0000
  H   H1265     1.0  0.55403  0.33904  0.85417  1.0000
  H   H1266     1.0  0.77273  0.46597  0.83577  1.0000
  C   C1096     1.0  0.59525  0.34502  0.92738  1.0000
  C   C1097     1.0  0.60857  0.44085  0.87436  1.0000
  C   C1098     1.0  0.63054  0.43257  0.87047  1.0000
  C   C1099     1.0  0.64832  0.43511  0.88290  1.0000
  C   C1100     1.0  0.64445  0.44642  0.89900  1.0000
  C   C1101     1.0  0.62263  0.45497  0.90271  1.0000
  C   C1102     1.0  0.60460  0.45195  0.89053  1.0000
  H   H1267     1.0  0.63359  0.42380  0.85806  1.0000
  H   H1268     1.0  0.66506  0.42845  0.87991  1.0000
  H   H1269     1.0  0.62844  0.22064  0.95218  1.0000
  H   H1270     1.0  0.54092  0.38215  0.95613  1.0000
  C   C1103     1.0  0.93762  0.48551  0.84349  1.0000
  H   H1271     1.0  0.72622  0.42105  0.96179  1.0000
  H   H1272     1.0  0.51533  0.06666  0.79687  1.0000
  H   H1273     1.0  0.80488  0.46737  0.93992  1.0000
  C   C1104     1.0  0.52974  0.37464  0.97136  1.0000
  C   C1105     1.0  0.54254  0.47311  0.81020  1.0000
  H   H1274     1.0  0.57036  0.25492  0.93850  1.0000
  C   C1106     1.0  0.58220  0.32034  0.94039  1.0000
  H   H1275     1.0  0.52704  0.40725  0.82809  1.0000
  C   C1107     1.0  0.80244  0.45994  0.81518  1.0000
  C   C1108     1.0  0.83773  0.41369  0.84042  1.0000
  C   C1109     1.0  0.84607  0.44088  0.83952  1.0000
  C   C1110     1.0  0.83232  0.45164  0.85262  1.0000
  C   C1111     1.0  0.80994  0.43530  0.86632  1.0000
  C   C1112     1.0  0.80225  0.40808  0.86755  1.0000
  C   C1113     1.0  0.81634  0.39731  0.85481  1.0000
  H   H1276     1.0  0.86265  0.45365  0.82846  1.0000
  H   H1277     1.0  0.83845  0.47273  0.85166  1.0000
  H   H1278     1.0  0.78550  0.39527  0.87831  1.0000
  H   H1279     1.0  0.81038  0.37622  0.85583  1.0000
  C   C1114     1.0  0.64608  0.31308  0.95784  1.0000
  C   C1115     1.0  0.52876  0.43474  0.79470  1.0000
  H   H1280     1.0  0.84100  0.44983  0.93377  1.0000
  C   C1116     1.0  0.52862  0.16390  0.82217  1.0000
  H   H1281     1.0  0.61725  0.38608  0.92665  1.0000
  H   H1282     1.0  0.92532  0.39622  0.87919  1.0000
  S   S306      1.0  0.71090  0.36497  0.96109  1.0000
  H   H1283     1.0  0.52224  0.39076  0.97486  1.0000
  C   C1117     1.0  0.50736  0.13286  0.88973  1.0000
  H   H1284     1.0  0.59458  0.25137  0.91967  1.0000
  C   C1118     1.0  0.62428  0.35955  0.89571  1.0000
  N   N71       1.0  0.55305  0.09457  0.79569  1.0000
  C   C1119     1.0  0.56361  0.12035  0.80119  1.0000
  C   C1120     1.0  0.52408  0.08523  0.80170  1.0000
  C   C1121     1.0  0.56281  0.07537  0.80689  1.0000
  C   C1122     1.0  0.56044  0.09754  0.77446  1.0000
  C   C1123     1.0  0.57411  0.08210  0.76569  1.0000
  C   C1124     1.0  0.55321  0.11585  0.76185  1.0000
  C   C1125     1.0  0.51021  0.99533  0.75031  1.0000
  C   C1126     1.0  0.96051  0.47925  0.83858  1.0000
  H   H1285     1.0  0.91757  0.36709  0.86909  1.0000
  H   H1286     1.0  0.76238  0.39947  0.93946  1.0000
  H   H1287     1.0  0.51163  0.26103  0.88728  1.0000
  H   H1288     1.0  0.58775  0.45857  0.89355  1.0000
  H   H1289     1.0  0.48438  0.09976  0.92376  1.0000
  H   H1290     1.0  0.58083  0.45971  0.79072  1.0000
  H   H1291     1.0  0.59101  0.07345  0.73913  1.0000
  C   C1127     1.0  0.51121  0.04022  0.74314  1.0000
  C   C1128     1.0  0.61690  0.26854  0.97106  1.0000
  H   H1292     1.0  0.55726  0.07409  0.82276  1.0000
  H   H1293     1.0  0.58018  0.06745  0.77402  1.0000
  H   H1294     1.0  0.54236  0.12798  0.76743  1.0000
  C   C1129     1.0  0.58908  0.43178  0.97195  1.0000
  C   C1130     1.0  0.50030  0.14302  0.80201  1.0000
  H   H1295     1.0  0.51618  0.13849  0.90215  1.0000
  S   S307      1.0  0.98036  0.43145  0.79189  1.0000
  N   N72       1.0  0.75218  0.37881  0.82790  1.0000
  C   C1131     1.0  0.72667  0.37796  0.82265  1.0000
  C   C1132     1.0  0.76283  0.36125  0.81742  1.0000
  C   C1133     1.0  0.74738  0.36766  0.84890  1.0000
  C   C1134     1.0  0.76981  0.40648  0.82340  1.0000
  C   C1135     1.0  0.79444  0.41533  0.81013  1.0000
  C   C1136     1.0  0.76234  0.42566  0.83228  1.0000
  H   H1296     1.0  0.56692  0.20267  0.96361  1.0000
  H   H1297     1.0  0.66618  0.40080  0.97849  1.0000
  H   H1298     1.0  0.77276  0.37685  0.96581  1.0000
  H   H1299     1.0  0.72941  0.38691  0.80710  1.0000
  H   H1300     1.0  0.71296  0.35739  0.82549  1.0000
  H   H1301     1.0  0.71619  0.38870  0.83126  1.0000
  H   H1302     1.0  0.76598  0.36785  0.80146  1.0000
  H   H1303     1.0  0.74919  0.34059  0.82123  1.0000
  H   H1304     1.0  0.78180  0.36051  0.82110  1.0000
  H   H1305     1.0  0.73915  0.37944  0.85796  1.0000
  H   H1306     1.0  0.73304  0.34732  0.85294  1.0000
  H   H1307     1.0  0.76579  0.36680  0.85332  1.0000
  H   H1308     1.0  0.80230  0.40227  0.80296  1.0000
  H   H1309     1.0  0.74395  0.42046  0.84251  1.0000
  S   S308      1.0  0.49188  0.16918  0.76896  1.0000
  H   H1310     1.0  0.89662  0.38667  0.86895  1.0000
  H   H1311     1.0  0.89568  0.47044  0.85294  1.0000
  C   C1137     1.0  0.51329  0.22986  0.93235  1.0000
  C   C1138     1.0  0.78402  0.39208  0.97215  1.0000
  C   C1139     1.0  0.71785  0.38263  0.97947  1.0000
  C   C1140     1.0  0.51268  0.44233  0.96346  1.0000
  H   H1312     1.0  0.90060  0.39544  0.83397  1.0000
  H   H1313     1.0  0.82926  0.44792  0.79623  1.0000
  Fe  Fe156     1.0  0.71373  0.38723  0.93109  1.0000
  C   C1141     1.0  0.51991  0.33152  0.96425  1.0000
  S   S309      1.0  0.54483  0.16042  0.84134  1.0000
  Fe  Fe157     1.0  0.53495  0.20255  0.89655  1.0000
  H   H1314     1.0  0.51058  0.15147  0.87935  1.0000
  H   H1315     1.0  0.61648  0.38013  0.96118  1.0000
  S   S310      1.0  0.56562  0.18589  0.88502  1.0000
  C   C1142     1.0  0.77854  0.45190  0.82833  1.0000
  C   C1143     1.0  0.61640  0.22459  0.94157  1.0000
  H   H1316     1.0  0.89309  0.42444  0.85517  1.0000
  C   C1144     1.0  0.58241  0.24239  0.93444  1.0000
  C   C1145     1.0  0.60726  0.36658  0.93557  1.0000
  H   H1317     1.0  0.51725  0.08145  0.81768  1.0000
  H   H1318     1.0  0.50861  0.12221  0.82712  1.0000
  C   C1146     1.0  0.52941  0.42827  0.82846  1.0000
  H   H1319     1.0  0.55416  0.05506  0.80451  1.0000
  H   H1320     1.0  0.59438  0.33636  0.98302  1.0000
  C   C1147     1.0  0.91358  0.46547  0.84984  1.0000
  H   H1321     1.0  0.91908  0.37300  0.83284  1.0000
  H   H1322     1.0  0.50495  0.33806  0.81635  1.0000
  C   C1148     1.0  0.95025  0.40080  0.73601  1.0000
  H   H1323     1.0  0.48880  0.08197  0.90525  1.0000
  H   H1324     1.0  0.52308  0.47963  0.78601  1.0000
  H   H1325     1.0  0.93213  0.40561  0.81822  1.0000
  H   H1326     1.0  0.55794  0.99806  0.74212  1.0000
  S   S311      1.0  0.51803  0.26644  0.97704  1.0000
  H   H1327     1.0  0.58460  0.08118  0.80313  1.0000
  H   H1328     1.0  0.50481  0.31429  0.96161  1.0000
  H   H1329     1.0  0.78962  0.38738  0.93343  1.0000
  H   H1330     1.0  0.49012  0.03391  0.75053  1.0000
  N   N73       1.0  0.50826  0.34934  0.97370  1.0000
  H   H1331     1.0  0.56868  0.22336  0.93295  1.0000
  S   S312      1.0  0.52574  0.45667  0.93898  1.0000
  H   H1332     1.0  0.51550  0.31919  0.83447  1.0000
  C   C1149     1.0  0.63229  0.29285  0.97373  1.0000
  H   H1333     1.0  0.59419  0.30907  0.90343  1.0000
  H   H1334     1.0  0.97167  0.40873  0.83100  1.0000
  H   H1335     1.0  0.82894  0.43885  0.91361  1.0000
  C   C1150     1.0  0.51059  0.20392  0.94060  1.0000
  H   H1336     1.0  0.62214  0.44635  0.94793  1.0000
  C   C1151     1.0  0.61417  0.26410  0.95229  1.0000
  C   C1152     1.0  0.91236  0.43909  0.85129  1.0000
  H   H1337     1.0  0.65579  0.32462  0.92686  1.0000
  C   C1153     1.0  0.50521  0.16743  0.78985  1.0000
  H   H1338     1.0  0.49229  0.27114  0.84575  1.0000
  Fe  Fe158     1.0  0.55374  0.19434  0.85668  1.0000
  H   H1339     1.0  0.57187  0.30292  0.93571  1.0000
  H   H1340     1.0  0.58599  0.32745  0.88389  1.0000
  H   H1341     1.0  0.63415  0.37977  0.89755  1.0000
  H   H1342     1.0  0.56303  0.31538  0.90641  1.0000
  N   N74       1.0  0.59654  0.34876  0.90627  1.0000
  C   C1154     1.0  0.58438  0.32402  0.89986  1.0000
  C   C1155     1.0  0.58041  0.08525  0.74556  1.0000
  H   H1343     1.0  0.55565  0.13552  0.79469  1.0000
  C   C1156     1.0  0.57000  0.44583  0.80466  1.0000
  N   N75       1.0  0.59839  0.23844  0.94898  1.0000
  C   C1157     1.0  0.95954  0.45294  0.84008  1.0000
  H   H1344     1.0  0.62616  0.36110  0.87980  1.0000
  H   H1345     1.0  0.51525  0.09970  0.79547  1.0000
  H   H1346     1.0  0.58344  0.37115  0.88460  1.0000
  H   H1347     1.0  0.63574  0.34682  0.90066  1.0000
  H   H1348     1.0  0.50955  0.42970  0.83332  1.0000
  N   N76       1.0  0.80004  0.42607  0.94035  1.0000
  H   H1349     1.0  0.53224  0.34139  0.94960  1.0000
  H   H1350     1.0  0.54553  0.20613  0.81364  1.0000
  C   C1158     1.0  0.78340  0.40527  0.93217  1.0000
  C   C1159     1.0  0.48832  0.42253  0.96932  1.0000
  C   C1160     1.0  0.82744  0.43298  0.92952  1.0000
  Fe  Fe159     1.0  0.50626  0.45472  0.74376  1.0000
  H   H1351     1.0  0.58536  0.12836  0.79650  1.0000
  C   C1161     1.0  0.64450  0.30911  0.93922  1.0000
  H   H1352     1.0  0.82386  0.45596  0.96427  1.0000
  C   C1162     1.0  0.53278  0.18854  0.81050  1.0000
  C   C1163     1.0  0.51522  0.24879  0.94380  1.0000
  C   C1164     1.0  0.81031  0.44173  0.80607  1.0000
  C   C1165     1.0  0.58292  0.36777  0.90043  1.0000
  H   H1353     1.0  0.57084  0.42586  0.80340  1.0000
  H   H1354     1.0  0.59213  0.38753  0.90347  1.0000
  H   H1355     1.0  0.56202  0.36054  0.90821  1.0000
  H   H1356     1.0  0.61962  0.46398  0.91498  1.0000
  C   C1166     1.0  0.51223  0.14123  0.81794  1.0000
  H   H1357     1.0  0.79000  0.45504  0.92141  1.0000
  C   C1167     1.0  0.52128  0.19026  0.79422  1.0000
  H   H1358     1.0  0.52509  0.20922  0.78489  1.0000
  C   C1168     1.0  0.60687  0.36344  0.95539  1.0000
  C   C1169     1.0  0.58212  0.31743  0.96017  1.0000
  C   C1170     1.0  0.79128  0.44956  0.93680  1.0000
  H   H1359     1.0  0.53836  0.44632  0.77976  1.0000
  C   C1171     1.0  0.61496  0.43609  0.96294  1.0000
  C   C1172     1.0  0.55390  0.48603  0.82414  1.0000
  C   C1173     1.0  0.51453  0.24187  0.96353  1.0000
  C   C1174     1.0  0.57993  0.22096  0.96674  1.0000
  S   S313      1.0  0.51034  0.18100  0.92578  1.0000
  H   H1360     1.0  0.51355  0.23526  0.91716  1.0000
  C   C1175     1.0  0.79868  0.41788  0.96131  1.0000
  H   H1361     1.0  0.65827  0.33174  0.95998  1.0000
  C   C1176     1.0  0.72550  0.41017  0.97582  1.0000
  H   H1362     1.0  0.77158  0.44591  0.94592  1.0000
  H   H1363     1.0  0.50736  0.17669  0.96687  1.0000
  C   C1177     1.0  0.50641  0.31821  0.82162  1.0000
  C   C1178     1.0  0.92071  0.39397  0.83271  1.0000
  S   S314      1.0  0.48409  0.09673  0.76504  1.0000
  H   H1364     1.0  0.95754  0.37827  0.84766  1.0000
  C   C1179     1.0  0.81213  0.43610  0.97157  1.0000
  N   N77       1.0  0.54256  0.44597  0.80938  1.0000
  C   C1180     1.0  0.48817  0.35445  0.96335  1.0000
  H   H1365     1.0  0.52063  0.31441  0.81037  1.0000
  H   H1366     1.0  0.52856  0.41413  0.79469  1.0000
  H   H1367     1.0  0.58106  0.45171  0.81601  1.0000
  C   C1181     1.0  0.62882  0.28506  0.93644  1.0000
  C   C1182     1.0  0.52603  0.45224  0.97733  1.0000
  H   H1368     1.0  0.60549  0.20545  0.93831  1.0000
  H   H1369     1.0  0.83492  0.41597  0.93200  1.0000
  C   C1183     1.0  0.48412  0.01556  0.81854  1.0000
  H   H1370     1.0  0.62873  0.28285  0.92172  1.0000
  H   H1371     1.0  0.57242  0.29836  0.96981  1.0000
  C   C1184     1.0  0.63197  0.42788  0.97327  1.0000
  H   H1372     1.0  0.52317  0.04595  0.75400  1.0000
  C   C1185     1.0  0.91760  0.38787  0.86718  1.0000
  H   H1373     1.0  0.65205  0.43252  0.96567  1.0000
  H   H1374     1.0  0.78458  0.41207  0.91649  1.0000
  H   H1375     1.0  0.50784  0.43388  0.79767  1.0000
  H   H1376     1.0  0.51878  0.12186  0.88222  1.0000
  H   H1377     1.0  0.54478  0.46777  0.97280  1.0000
  C   C1186     1.0  0.55955  0.11876  0.74177  1.0000
  H   H1378     1.0  0.97794  0.44969  0.83531  1.0000
  H   H1379     1.0  0.97069  0.40771  0.85646  1.0000
  Fe  Fe160     1.0  0.48788  0.41721  0.88564  1.0000
  H   H1380     1.0  0.56282  0.47643  0.83427  1.0000
  C   C1187     1.0  0.51163  0.21587  0.97194  1.0000
  H   H1381     1.0  0.52103  0.99892  0.76214  1.0000
  C   C1188     1.0  0.50948  0.19680  0.96046  1.0000
  S   S315      1.0  0.54211  0.48759  0.74432  1.0000
  C   C1189     1.0  0.49102  0.99411  0.81349  1.0000
  H   H1382     1.0  0.56683  0.23108  0.97344  1.0000
  H   H1383     1.0  0.81519  0.48019  0.81236  1.0000
  S   S316      1.0  0.50083  0.33376  0.91743  1.0000
  H   H1384     1.0  0.49668  0.26648  0.82163  1.0000
  H   H1385     1.0  0.49968  0.47652  0.84969  1.0000
  H   H1386     1.0  0.48742  0.12544  0.79905  1.0000
  H   H1387     1.0  0.54389  0.37223  0.98060  1.0000
  H   H1388     1.0  0.49686  0.36422  0.94793  1.0000
  H   H1389     1.0  0.59032  0.21414  0.97765  1.0000
  H   H1390     1.0  0.48572  0.30092  0.86307  1.0000
  H   H1391     1.0  0.48505  0.29226  0.79641  1.0000
  H   H1392     1.0  0.49372  0.02612  0.82847  1.0000
  H   H1393     1.0  0.60758  0.25347  0.98394  1.0000
  N   N78       1.0  0.51779  0.01906  0.73458  1.0000
  H   H1394     1.0  0.95801  0.60381  0.14362  1.0000
  C   C1190     1.0  0.88558  0.55651  0.22191  1.0000
  H   H1395     1.0  0.48949  0.52637  0.06538  1.0000
  H   H1396     1.0  0.51676  0.50725  0.12912  1.0000
  N   N79       1.0  0.96893  0.57359  0.16014  1.0000
  H   H1397     1.0  0.50583  0.93956  0.22347  1.0000
  H   H1398     1.0  0.60321  0.98506  0.22298  1.0000
  H   H1399     1.0  0.85645  0.51809  0.22779  1.0000
  H   H1400     1.0  0.59545  0.57698  0.23166  1.0000
  H   H1401     1.0  0.93920  0.53768  0.17575  1.0000
  H   H1402     1.0  0.48459  0.57549  0.17952  1.0000
  C   C1191     1.0  0.48277  0.97429  0.17748  1.0000
  Fe  Fe161     1.0  0.87791  0.52127  0.18669  1.0000
  C   C1192     1.0  0.86674  0.53407  0.23395  1.0000
  S   S317      1.0  0.89810  0.49133  0.19280  1.0000
  H   H1403     1.0  0.48143  0.52210  0.03430  1.0000
  H   H1404     1.0  0.48107  0.80191  0.22240  1.0000
  C   C1193     1.0  0.53978  0.98546  0.22587  1.0000
  H   H1405     1.0  0.93149  0.57338  0.15356  1.0000
  S   S318      1.0  0.49887  0.49314  0.20644  1.0000
  S   S319      1.0  0.49322  0.94735  0.18483  1.0000
  S   S320      1.0  0.88166  0.52073  0.15505  1.0000
  H   H1406     1.0  0.97107  0.54211  0.18136  1.0000
  H   H1407     1.0  0.49961  0.55503  0.16733  1.0000
  C   C1194     1.0  0.89864  0.57717  0.23005  1.0000
  H   H1408     1.0  0.95056  0.56001  0.19061  1.0000
  H   H1409     1.0  0.82949  0.49552  0.03684  1.0000
  C   C1195     1.0  0.97386  0.56058  0.14372  1.0000
  S   S321      1.0  0.89306  0.55921  0.19670  1.0000
  Fe  Fe162     1.0  0.52102  0.49586  0.23054  1.0000
  C   C1196     1.0  0.58378  0.49063  0.09665  1.0000
  H   H1410     1.0  0.94265  0.50981  0.22834  1.0000
  H   H1411     1.0  0.95549  0.54603  0.14202  1.0000
  C   C1197     1.0  0.84172  0.49394  0.09735  1.0000
  C   C1198     1.0  0.95700  0.55248  0.17772  1.0000
  H   H1412     1.0  0.94276  0.59504  0.16891  1.0000
  H   H1413     1.0  0.57043  0.50096  0.09261  1.0000
  H   H1414     1.0  0.91317  0.59462  0.22082  1.0000
  S   S322      1.0  0.55500  0.53146  0.23057  1.0000
  C   C1199     1.0  0.94957  0.58712  0.15633  1.0000
  H   H1415     1.0  0.79124  0.49693  0.05996  1.0000
  C   C1200     1.0  0.56170  0.97866  0.23063  1.0000
  H   H1416     1.0  0.80811  0.49697  0.08727  1.0000
  H   H1417     1.0  0.91034  0.51158  0.23110  1.0000
  C   C1201     1.0  0.60727  0.49444  0.08393  1.0000
  H   H1418     1.0  0.61228  0.50774  0.06997  1.0000
  H   H1419     1.0  0.97278  0.60290  0.18836  1.0000
  H   H1420     1.0  0.84010  0.50697  0.10728  1.0000
  H   H1421     1.0  0.49080  0.97804  0.21657  1.0000
  C   C1202     1.0  0.49256  0.98150  0.23133  1.0000
  H   H1422     1.0  0.48324  0.57137  0.13857  1.0000
  H   H1423     1.0  0.95220  0.49609  0.17463  1.0000
  H   H1424     1.0  0.86727  0.61938  0.22868  1.0000
  H   H1425     1.0  0.94772  0.57008  0.23351  1.0000
  S   S323      1.0  0.83724  0.49217  0.19507  1.0000
  H   H1426     1.0  0.48147  0.90389  0.16168  1.0000
  C   C1203     1.0  0.48110  0.55546  0.17619  1.0000
  C   C1204     1.0  0.96609  0.49042  0.16520  1.0000
  H   H1427     1.0  0.97249  0.49635  0.33757  1.0000
  H   H1428     1.0  0.63506  0.65286  0.43888  1.0000
  Fe  Fe163     1.0  0.92500  0.80266  0.40061  1.0000
  S   S324      1.0  0.91836  0.75910  0.40468  1.0000
  S   S325      1.0  0.89191  0.81984  0.40405  1.0000
  Fe  Fe164     1.0  0.94855  0.76747  0.42298  1.0000
  C   C1205     1.0  0.54368  0.97089  0.41968  1.0000
  H   H1429     1.0  0.75207  0.73779  0.45976  1.0000
  S   S326      1.0  0.95255  0.81014  0.42100  1.0000
  H   H1430     1.0  0.64785  0.68037  0.44950  1.0000
  Fe  Fe165     1.0  0.70123  0.74509  0.37242  1.0000
  S   S327      1.0  0.73214  0.78251  0.35556  1.0000
  S   S328      1.0  0.68106  0.71208  0.35832  1.0000
  Fe  Fe166     1.0  0.71342  0.75708  0.41116  1.0000
  S   S329      1.0  0.74560  0.79518  0.39754  1.0000
  H   H1431     1.0  0.73600  0.82714  0.45477  1.0000
  Fe  Fe167     1.0  0.71739  0.80160  0.37886  1.0000
  S   S330      1.0  0.70584  0.83841  0.37304  1.0000
  Fe  Fe168     1.0  0.75763  0.77300  0.37562  1.0000
  S   S331      1.0  0.79788  0.77042  0.36505  1.0000
  S   S332      1.0  0.68423  0.76480  0.39412  1.0000
  S   S333      1.0  0.72782  0.73437  0.39088  1.0000
  Fe  Fe169     1.0  0.54536  0.96255  0.30399  1.0000
  C   C1206     1.0  0.92630  0.51785  0.26368  1.0000
  Fe  Fe170     1.0  0.53434  0.62525  0.30001  1.0000
  S   S334      1.0  0.54851  0.61319  0.32680  1.0000
  S   S335      1.0  0.55867  0.62874  0.27068  1.0000
  Fe  Fe171     1.0  0.50574  0.59118  0.33885  1.0000
  H   H1432     1.0  0.93891  0.83432  0.33989  1.0000
  Fe  Fe172     1.0  0.53969  0.64801  0.33630  1.0000
  S   S336      1.0  0.56167  0.67941  0.35096  1.0000
  S   S337      1.0  0.71269  0.97859  0.47256  1.0000
  S   S338      1.0  0.52897  0.66196  0.30844  1.0000
  Fe  Fe173     1.0  0.93895  0.57123  0.32395  1.0000
  S   S339      1.0  0.94020  0.57249  0.29253  1.0000
  Fe  Fe174     1.0  0.71880  0.98682  0.44024  1.0000
  Fe  Fe175     1.0  0.91483  0.61550  0.32436  1.0000
  S   S340      1.0  0.91423  0.62037  0.29261  1.0000
  S   S341      1.0  0.89532  0.63671  0.34397  1.0000
  Fe  Fe176     1.0  0.90011  0.57610  0.29850  1.0000
  S   S342      1.0  0.86746  0.55031  0.28736  1.0000
  Fe  Fe177     1.0  0.95443  0.61634  0.28949  1.0000
  C   C1207     1.0  0.63052  0.71448  0.43040  1.0000
  S   S343      1.0  0.89745  0.57123  0.33054  1.0000
  H   H1433     1.0  0.97072  0.71827  0.32852  1.0000
  C   C1208     1.0  0.56804  0.65240  0.39842  1.0000
  H   H1434     1.0  0.79415  0.58879  0.30632  1.0000
  H   H1435     1.0  0.61271  0.71116  0.44168  1.0000
  H   H1436     1.0  0.49757  0.50302  0.34168  1.0000
  C   C1209     1.0  0.78841  0.78236  0.43867  1.0000
  H   H1437     1.0  0.97467  0.50861  0.29169  1.0000
  H   H1438     1.0  0.62355  0.64453  0.40989  1.0000
  H   H1439     1.0  0.51957  0.93422  0.24427  1.0000
  N   N80       1.0  0.91871  0.49260  0.25707  1.0000
  H   H1440     1.0  0.87002  0.63620  0.31097  1.0000
  C   C1210     1.0  0.63183  0.67118  0.44222  1.0000
  H   H1441     1.0  0.56677  0.51997  0.29016  1.0000
  H   H1442     1.0  0.48604  0.93240  0.24745  1.0000
  H   H1443     1.0  0.58093  0.70900  0.29010  1.0000
  H   H1444     1.0  0.71933  0.79512  0.43491  1.0000
  C   C1211     1.0  0.55368  0.55862  0.24105  1.0000
  C   C1212     1.0  0.90377  0.76440  0.33990  1.0000
  H   H1445     1.0  0.52667  0.96746  0.26505  1.0000
  C   C1213     1.0  0.72913  0.80628  0.46108  1.0000
  H   H1446     1.0  0.94787  0.60418  0.25299  1.0000
  H   H1447     1.0  0.84433  0.83174  0.40170  1.0000
  H   H1448     1.0  0.94676  0.53019  0.25655  1.0000
  C   C1214     1.0  0.89322  0.57526  0.25015  1.0000
  C   C1215     1.0  0.87436  0.55292  0.26217  1.0000
  C   C1216     1.0  0.86095  0.53242  0.25403  1.0000
  H   H1449     1.0  0.75797  0.88118  0.45879  1.0000
  H   H1450     1.0  0.90310  0.59137  0.25635  1.0000
  H   H1451     1.0  0.59363  0.97505  0.35534  1.0000
  H   H1452     1.0  0.84543  0.65159  0.30679  1.0000
  H   H1453     1.0  0.80046  0.75285  0.41459  1.0000
  H   H1454     1.0  0.53549  0.53604  0.33509  1.0000
  H   H1455     1.0  0.94749  0.66454  0.43408  1.0000
  H   H1456     1.0  0.58788  0.62408  0.39466  1.0000
  C   C1217     1.0  0.58801  0.64158  0.40029  1.0000
  S   S344      1.0  0.76669  0.94254  0.39842  1.0000
  H   H1457     1.0  0.63942  0.92706  0.29141  1.0000
  C   C1218     1.0  0.55559  0.60146  0.25946  1.0000
  C   C1219     1.0  0.53143  0.58209  0.26065  1.0000
  C   C1220     1.0  0.53044  0.56064  0.25136  1.0000
  H   H1458     1.0  0.54843  0.98064  0.37117  1.0000
  H   H1459     1.0  0.51357  0.58381  0.26849  1.0000
  H   H1460     1.0  0.51190  0.54564  0.25231  1.0000
  C   C1221     1.0  0.64751  0.70258  0.35726  1.0000
  C   C1222     1.0  0.63140  0.71695  0.36340  1.0000
  C   C1223     1.0  0.60506  0.70940  0.36150  1.0000
  C   C1224     1.0  0.59459  0.68733  0.35368  1.0000
  C   C1225     1.0  0.61047  0.67244  0.34816  1.0000
  C   C1226     1.0  0.63691  0.68021  0.34978  1.0000
  H   H1461     1.0  0.63935  0.73421  0.36917  1.0000
  H   H1462     1.0  0.59279  0.72088  0.36594  1.0000
  H   H1463     1.0  0.60239  0.65496  0.34270  1.0000
  H   H1464     1.0  0.64926  0.66889  0.34519  1.0000
  C   C1227     1.0  0.74924  0.91312  0.39222  1.0000
  C   C1228     1.0  0.76079  0.89328  0.39077  1.0000
  C   C1229     1.0  0.74740  0.86995  0.38537  1.0000
  C   C1230     1.0  0.72255  0.86655  0.38111  1.0000
  C   C1231     1.0  0.71098  0.88636  0.38269  1.0000
  C   C1232     1.0  0.72417  0.90949  0.38838  1.0000
  H   H1465     1.0  0.78018  0.89600  0.39371  1.0000
  H   H1466     1.0  0.75655  0.85490  0.38403  1.0000
  H   H1467     1.0  0.69171  0.88373  0.37954  1.0000
  H   H1468     1.0  0.71508  0.92463  0.38953  1.0000
  C   C1233     1.0  0.94150  0.71829  0.35256  1.0000
  Fe  Fe178     1.0  0.95302  0.77026  0.37992  1.0000
  C   C1234     1.0  0.93788  0.68236  0.33515  1.0000
  C   C1235     1.0  0.91340  0.66813  0.34707  1.0000
  C   C1236     1.0  0.90291  0.67916  0.36165  1.0000
  C   C1237     1.0  0.91691  0.70415  0.36444  1.0000
  H   H1469     1.0  0.74677  0.94686  0.45346  1.0000
  H   H1470     1.0  0.94612  0.67411  0.32384  1.0000
  H   H1471     1.0  0.88391  0.66827  0.37087  1.0000
  H   H1472     1.0  0.90853  0.71254  0.37559  1.0000
  C   C1238     1.0  0.86572  0.80599  0.39333  1.0000
  C   C1239     1.0  0.86568  0.78511  0.38403  1.0000
  C   C1240     1.0  0.84443  0.77399  0.37576  1.0000
  C   C1241     1.0  0.82317  0.78371  0.37673  1.0000
  C   C1242     1.0  0.82299  0.80436  0.38629  1.0000
  C   C1243     1.0  0.84431  0.81553  0.39453  1.0000
  H   H1473     1.0  0.88210  0.77770  0.38306  1.0000
  H   H1474     1.0  0.84455  0.75799  0.36841  1.0000
  H   H1475     1.0  0.80678  0.81214  0.38687  1.0000
  C   C1244     1.0  0.80626  0.60699  0.31005  1.0000
  C   C1245     1.0  0.67674  0.73642  0.29705  1.0000
  C   C1246     1.0  0.66661  0.74829  0.31095  1.0000
  H   H1476     1.0  0.66912  0.71053  0.27780  1.0000
  H   H1477     1.0  0.69774  0.74009  0.29345  1.0000
  H   H1478     1.0  0.67963  0.76089  0.31820  1.0000
  H   H1479     1.0  0.84630  0.51510  0.26330  1.0000
  H   H1480     1.0  0.97318  0.69314  0.43479  1.0000
  C   C1247     1.0  0.93402  0.64961  0.40101  1.0000
  S   S345      1.0  0.70206  0.73823  0.44294  1.0000
  S   S346      1.0  0.55161  0.93129  0.28824  1.0000
  S   S347      1.0  0.49799  0.62462  0.35077  1.0000
  H   H1481     1.0  0.88790  0.65532  0.24444  1.0000
  H   H1482     1.0  0.55951  0.96396  0.24338  1.0000
  H   H1483     1.0  0.58707  0.89594  0.33530  1.0000
  C   C1248     1.0  0.65794  0.90548  0.34819  1.0000
  H   H1484     1.0  0.92523  0.69078  0.41571  1.0000
  C   C1249     1.0  0.82815  0.75242  0.46274  1.0000
  H   H1485     1.0  0.87150  0.85859  0.35145  1.0000
  C   C1250     1.0  0.91225  0.50201  0.33601  1.0000
  H   H1486     1.0  0.85986  0.58772  0.31174  1.0000
  H   H1487     1.0  0.60687  0.95479  0.38394  1.0000
  H   H1488     1.0  0.83403  0.82165  0.46978  1.0000
  C   C1251     1.0  0.64507  0.98399  0.37813  1.0000
  S   S348      1.0  0.49230  0.60057  0.31131  1.0000
  C   C1252     1.0  0.95179  0.70738  0.33786  1.0000
  C   C1253     1.0  0.63939  0.90645  0.33680  1.0000
  C   C1254     1.0  0.86378  0.63619  0.27277  1.0000
  H   H1489     1.0  0.54743  0.89252  0.26503  1.0000
  S   S349      1.0  0.70323  0.95397  0.42536  1.0000
  C   C1255     1.0  0.80939  0.75247  0.42760  1.0000
  H   H1490     1.0  0.50948  0.86292  0.25555  1.0000
  H   H1491     1.0  0.81259  0.73303  0.43064  1.0000
  H   H1492     1.0  0.95031  0.83956  0.46395  1.0000
  H   H1493     1.0  0.60116  0.95780  0.30010  1.0000
  H   H1494     1.0  0.92087  0.64771  0.41448  1.0000
  S   S350      1.0  0.55353  0.96292  0.33377  1.0000
  H   H1495     1.0  0.55259  0.64349  0.39124  1.0000
  C   C1256     1.0  0.96676  0.67838  0.42574  1.0000
  C   C1257     1.0  0.61947  0.91774  0.30078  1.0000
  H   H1496     1.0  0.65287  0.97346  0.32691  1.0000
  C   C1258     1.0  0.84048  0.59575  0.25483  1.0000
  Fe  Fe179     1.0  0.69346  0.98432  0.40540  1.0000
  N   N81       1.0  0.54896  0.98747  0.40003  1.0000
  H   H1497     1.0  0.63566  0.96998  0.29915  1.0000
  H   H1498     1.0  0.63090  0.72942  0.41772  1.0000
  C   C1259     1.0  0.57840  0.59963  0.24866  1.0000
  C   C1260     1.0  0.93880  0.50943  0.33692  1.0000
  C   C1261     1.0  0.62030  0.97249  0.37426  1.0000
  C   C1262     1.0  0.48114  0.87717  0.27103  1.0000
  H   H1499     1.0  0.58689  0.92615  0.34257  1.0000
  C   C1263     1.0  0.89667  0.81988  0.46466  1.0000
  C   C1264     1.0  0.65355  0.95403  0.33237  1.0000
  H   H1500     1.0  0.94377  0.71505  0.39441  1.0000
  C   C1265     1.0  0.59409  0.70501  0.27827  1.0000
  S   S351      1.0  0.65288  0.96971  0.39920  1.0000
  H   H1501     1.0  0.58796  0.70538  0.41832  1.0000
  H   H1502     1.0  0.57378  0.91756  0.32194  1.0000
  C   C1266     1.0  0.51783  0.49707  0.31479  1.0000
  C   C1267     1.0  0.60842  0.65357  0.40893  1.0000
  N   N82       1.0  0.83468  0.61032  0.30548  1.0000
  C   C1268     1.0  0.73756  0.88127  0.46353  1.0000
  H   H1503     1.0  0.70427  0.73145  0.48335  1.0000
  H   H1504     1.0  0.61663  0.89647  0.30567  1.0000
  H   H1505     1.0  0.56304  0.55167  0.28327  1.0000
  H   H1506     1.0  0.83411  0.58423  0.33179  1.0000
  H   H1507     1.0  0.59704  0.61466  0.24738  1.0000
  H   H1508     1.0  0.88206  0.75682  0.34191  1.0000
  C   C1269     1.0  0.52414  0.91061  0.28193  1.0000
  H   H1509     1.0  0.65973  0.88669  0.35442  1.0000
  C   C1270     1.0  0.95771  0.67112  0.39444  1.0000
  H   H1510     1.0  0.58636  0.65480  0.29559  1.0000
  C   C1271     1.0  0.58877  0.68751  0.41376  1.0000
  C   C1272     1.0  0.84856  0.63308  0.31334  1.0000
  H   H1511     1.0  0.90195  0.51630  0.33612  1.0000
  N   N83       1.0  0.63165  0.68953  0.42466  1.0000
  C   C1273     1.0  0.65684  0.69577  0.41071  1.0000
  S   S352      1.0  0.95646  0.61504  0.32069  1.0000
  C   C1274     1.0  0.83754  0.75133  0.47989  1.0000
  C   C1275     1.0  0.60955  0.67702  0.41584  1.0000
  C   C1276     1.0  0.51487  0.54040  0.30404  1.0000
  H   H1512     1.0  0.66077  0.67803  0.40678  1.0000
  N   N84       1.0  0.73718  0.90655  0.46901  1.0000
  C   C1277     1.0  0.96488  0.75863  0.46456  1.0000
  C   C1278     1.0  0.58986  0.91707  0.32979  1.0000
  S   S353      1.0  0.51007  0.97589  0.30978  1.0000
  H   H1513     1.0  0.52555  0.56190  0.29914  1.0000
  H   H1514     1.0  0.94209  0.80434  0.46520  1.0000
  H   H1515     1.0  0.77041  0.93079  0.44669  1.0000
  C   C1279     1.0  0.56839  0.67525  0.40515  1.0000
  H   H1516     1.0  0.87182  0.82405  0.44449  1.0000
  Fe  Fe180     1.0  0.48795  0.63615  0.32217  1.0000
  C   C1280     1.0  0.54607  0.96970  0.38613  1.0000
  H   H1517     1.0  0.49568  0.92452  0.29772  1.0000
  C   C1281     1.0  0.80343  0.75609  0.46209  1.0000
  H   H1518     1.0  0.69791  0.89968  0.46396  1.0000
  S   S354      1.0  0.95582  0.54194  0.33809  1.0000
  C   C1282     1.0  0.67186  0.95279  0.34391  1.0000
  C   C1283     1.0  0.87334  0.82163  0.45958  1.0000
  C   C1284     1.0  0.71128  0.76112  0.45762  1.0000
  C   C1285     1.0  0.78925  0.75932  0.47946  1.0000
  H   H1519     1.0  0.80205  0.62398  0.30193  1.0000
  S   S355      1.0  0.95960  0.75015  0.35484  1.0000
  C   C1286     1.0  0.84362  0.61353  0.28433  1.0000
  H   H1520     1.0  0.58780  0.67521  0.31304  1.0000
  H   H1521     1.0  0.58074  0.69098  0.27143  1.0000
  N   N85       1.0  0.79240  0.75656  0.44440  1.0000
  C   C1287     1.0  0.83901  0.58657  0.31578  1.0000
  H   H1522     1.0  0.65696  0.70863  0.39702  1.0000
  S   S356      1.0  0.94361  0.74109  0.45157  1.0000
  C   C1288     1.0  0.55203  0.53027  0.28869  1.0000
  H   H1523     1.0  0.90820  0.61431  0.39524  1.0000
  S   S357      1.0  0.49167  0.54904  0.35499  1.0000
  H   H1524     1.0  0.91799  0.86404  0.35211  1.0000
  C   C1289     1.0  0.83222  0.59340  0.27470  1.0000
  H   H1525     1.0  0.68417  0.97071  0.34705  1.0000
  H   H1526     1.0  0.96437  0.82027  0.47872  1.0000
  C   C1290     1.0  0.62668  0.68508  0.26897  1.0000
  C   C1291     1.0  0.50647  0.87656  0.26456  1.0000
  N   N86       1.0  0.91552  0.78948  0.32540  1.0000
  C   C1292     1.0  0.94449  0.79727  0.32324  1.0000
  C   C1293     1.0  0.94509  0.70460  0.40865  1.0000
  C   C1294     1.0  0.90966  0.78479  0.30639  1.0000
  C   C1295     1.0  0.90419  0.80937  0.33174  1.0000
  C   C1296     1.0  0.87746  0.80677  0.33179  1.0000
  C   C1297     1.0  0.91863  0.83085  0.33903  1.0000
  C   C1298     1.0  0.86609  0.82474  0.33837  1.0000
  C   C1299     1.0  0.90688  0.84837  0.34597  1.0000
  H   H1527     1.0  0.55311  0.68389  0.40313  1.0000
  H   H1528     1.0  0.95047  0.79856  0.33732  1.0000
  H   H1529     1.0  0.95259  0.78236  0.31788  1.0000
  H   H1530     1.0  0.95454  0.81651  0.31297  1.0000
  H   H1531     1.0  0.91154  0.74870  0.33569  1.0000
  H   H1532     1.0  0.73976  0.92286  0.43900  1.0000
  C   C1300     1.0  0.92661  0.63030  0.39019  1.0000
  H   H1533     1.0  0.91611  0.80367  0.29553  1.0000
  H   H1534     1.0  0.91976  0.77150  0.30061  1.0000
  H   H1535     1.0  0.88844  0.77502  0.30722  1.0000
  H   H1536     1.0  0.86472  0.79027  0.32747  1.0000
  H   H1537     1.0  0.68807  0.92781  0.36094  1.0000
  H   H1538     1.0  0.84544  0.82191  0.33872  1.0000
  H   H1539     1.0  0.50366  0.53379  0.29294  1.0000
  H   H1540     1.0  0.83710  0.98888  0.37664  1.0000
  C   C1301     1.0  0.67402  0.92861  0.35183  1.0000
  S   S358      1.0  0.49263  0.97327  0.36638  1.0000
  H   H1541     1.0  0.55681  0.95854  0.42048  1.0000
  C   C1302     1.0  0.65994  0.71933  0.28820  1.0000
  H   H1542     1.0  0.56093  0.95930  0.38591  1.0000
  H   H1543     1.0  0.91223  0.82091  0.45290  1.0000
  H   H1544     1.0  0.81682  0.97611  0.36094  1.0000
  H   H1545     1.0  0.62703  0.88792  0.33474  1.0000
  C   C1303     1.0  0.63965  0.74330  0.31598  1.0000
  H   H1546     1.0  0.60383  0.72374  0.26738  1.0000
  N   N87       1.0  0.61375  0.69397  0.28533  1.0000
  H   H1547     1.0  0.54190  0.52379  0.27705  1.0000
  H   H1548     1.0  0.80716  0.79889  0.43611  1.0000
  C   C1304     1.0  0.61646  0.95814  0.30885  1.0000
  C   C1305     1.0  0.71117  0.75235  0.47713  1.0000
  H   H1549     1.0  0.64770  0.72366  0.43660  1.0000
  H   H1550     1.0  0.52327  0.95686  0.42385  1.0000
  H   H1551     1.0  0.82877  0.76824  0.42340  1.0000
  N   N88       1.0  0.53310  0.52529  0.30727  1.0000
  C   C1306     1.0  0.57748  0.57831  0.23968  1.0000
  H   H1552     1.0  0.63180  0.75212  0.32712  1.0000
  H   H1553     1.0  0.82727  0.56803  0.31226  1.0000
  C   C1307     1.0  0.86038  0.61808  0.24396  1.0000
  H   H1554     1.0  0.61288  0.66533  0.45287  1.0000
  C   C1308     1.0  0.52790  0.89321  0.27002  1.0000
  C   C1309     1.0  0.63225  0.71352  0.29323  1.0000
  H   H1555     1.0  0.61202  0.67121  0.26291  1.0000
  C   C1310     1.0  0.85209  0.82033  0.47376  1.0000
  C   C1311     1.0  0.62264  0.72592  0.30751  1.0000
  Fe  Fe181     1.0  0.74277  0.96883  0.40565  1.0000
  C   C1312     1.0  0.96615  0.60223  0.24628  1.0000
  C   C1313     1.0  0.54832  0.53576  0.32148  1.0000
  H   H1556     1.0  0.91324  0.52953  0.26024  1.0000
  H   H1557     1.0  0.77056  0.76268  0.48001  1.0000
  H   H1558     1.0  0.72715  0.86415  0.47574  1.0000
  H   H1559     1.0  0.92489  0.51486  0.27958  1.0000
  H   H1560     1.0  0.61234  0.96890  0.32036  1.0000
  C   C1314     1.0  0.88070  0.84536  0.34561  1.0000
  H   H1561     1.0  0.81742  0.57523  0.28257  1.0000
  C   C1315     1.0  0.70933  0.90467  0.47529  1.0000
  H   H1562     1.0  0.97728  0.54158  0.28061  1.0000
  H   H1563     1.0  0.61393  0.66203  0.30707  1.0000
  H   H1564     1.0  0.60485  0.91868  0.29156  1.0000
  H   H1565     1.0  0.67388  0.70614  0.41656  1.0000
  N   N89       1.0  0.61609  0.93115  0.31715  1.0000
  H   H1566     1.0  0.77392  0.78595  0.44979  1.0000
  H   H1567     1.0  0.63972  0.67398  0.27363  1.0000
  H   H1568     1.0  0.63818  0.70202  0.25692  1.0000
  H   H1569     1.0  0.60182  0.72148  0.31288  1.0000
  C   C1316     1.0  0.76675  0.73537  0.44821  1.0000
  C   C1317     1.0  0.59986  0.67049  0.30093  1.0000
  H   H1570     1.0  0.75784  0.73512  0.43518  1.0000
  C   C1318     1.0  0.72968  0.79758  0.48042  1.0000
  C   C1319     1.0  0.71992  0.78812  0.44973  1.0000
  S   S359      1.0  0.95733  0.81349  0.37421  1.0000
  H   H1571     1.0  0.78075  0.78366  0.42511  1.0000
  H   H1572     1.0  0.52626  0.95450  0.38975  1.0000
  H   H1573     1.0  0.70720  0.92354  0.47835  1.0000
  H   H1574     1.0  0.97777  0.65397  0.35168  1.0000
  H   H1575     1.0  0.76878  0.71563  0.45277  1.0000
  H   H1576     1.0  0.84181  0.62993  0.32930  1.0000
  H   H1577     1.0  0.79907  0.60544  0.32577  1.0000
  C   C1320     1.0  0.87201  0.63823  0.25291  1.0000
  H   H1578     1.0  0.56116  0.55656  0.31574  1.0000
  H   H1579     1.0  0.49338  0.96635  0.26776  1.0000
  H   H1580     1.0  0.50034  0.53822  0.31741  1.0000
  C   C1321     1.0  0.49881  0.91140  0.28833  1.0000
  H   H1581     1.0  0.56093  0.52374  0.32537  1.0000
  C   C1322     1.0  0.63658  0.93078  0.32854  1.0000
  H   H1582     1.0  0.84070  0.75038  0.45022  1.0000
  H   H1583     1.0  0.72751  0.87750  0.45131  1.0000
  H   H1584     1.0  0.87397  0.65236  0.27875  1.0000
  C   C1323     1.0  0.74909  0.92770  0.45137  1.0000
  H   H1585     1.0  0.94984  0.71946  0.41781  1.0000
  C   C1324     1.0  0.89939  0.81692  0.48427  1.0000
  C   C1325     1.0  0.94597  0.82010  0.47374  1.0000
  C   C1326     1.0  0.94257  0.63171  0.37262  1.0000
  H   H1586     1.0  0.93651  0.61694  0.36412  1.0000
  C   C1327     1.0  0.97332  0.67223  0.37624  1.0000
  C   C1328     1.0  0.92195  0.49878  0.23570  1.0000
  C   C1329     1.0  0.51317  0.97599  0.25821  1.0000
  C   C1330     1.0  0.95197  0.49074  0.33681  1.0000
  C   C1331     1.0  0.50588  0.94335  0.23835  1.0000
  H   H1587     1.0  0.90832  0.76698  0.35429  1.0000
  H   H1588     1.0  0.83217  0.57967  0.24794  1.0000
  H   H1589     1.0  0.85643  0.74854  0.48008  1.0000
  C   C1332     1.0  0.96612  0.58295  0.23532  1.0000
  Fe  Fe182     1.0  0.52098  0.98050  0.33828  1.0000
  C   C1333     1.0  0.61277  0.98390  0.35810  1.0000
  H   H1590     1.0  0.54617  0.98322  0.43080  1.0000
  C   C1334     1.0  0.96583  0.65262  0.36566  1.0000
  N   N90       1.0  0.96517  0.69119  0.40629  1.0000
  N   N91       1.0  0.51326  0.97198  0.23814  1.0000
  H   H1591     1.0  0.50835  0.98615  0.40491  1.0000
  H   H1592     1.0  0.98090  0.66714  0.42461  1.0000
  H   H1593     1.0  0.74554  0.95107  0.48426  1.0000
  S   S360      1.0  0.51050  0.59149  0.66128  1.0000
  H   H1594     1.0  0.90951  0.52394  0.70044  1.0000
  H   H1595     1.0  0.78769  0.76071  0.50962  1.0000
  Fe  Fe183     1.0  0.95431  0.81577  0.55809  1.0000
  S   S361      1.0  0.95451  0.78126  0.54453  1.0000
  S   S362      1.0  0.92107  0.83291  0.55778  1.0000
  C   C1335     1.0  0.67868  0.98409  0.56603  1.0000
  H   H1596     1.0  0.73389  0.98321  0.60702  1.0000
  C   C1336     1.0  0.91309  0.60601  0.69854  1.0000
  H   H1597     1.0  0.91247  0.77310  0.49352  1.0000
  S   S363      1.0  0.95118  0.56896  0.67683  1.0000
  C   C1337     1.0  0.82282  0.75400  0.49676  1.0000
  H   H1598     1.0  0.53146  0.97143  0.66523  1.0000
  Fe  Fe184     1.0  0.78032  0.78500  0.54753  1.0000
  S   S364      1.0  0.76567  0.79801  0.57401  1.0000
  S   S365      1.0  0.80959  0.76301  0.54838  1.0000
  Fe  Fe185     1.0  0.74790  0.80861  0.52383  1.0000
  S   S366      1.0  0.73061  0.82383  0.54848  1.0000
  S   S367      1.0  0.74233  0.82117  0.49374  1.0000
  Fe  Fe186     1.0  0.77142  0.83618  0.55396  1.0000
  S   S368      1.0  0.79560  0.87482  0.55953  1.0000
  Fe  Fe187     1.0  0.72610  0.78413  0.56635  1.0000
  S   S369      1.0  0.69186  0.76309  0.59163  1.0000
  S   S370      1.0  0.78912  0.82406  0.52793  1.0000
  S   S371      1.0  0.74033  0.76792  0.54114  1.0000
  H   H1599     1.0  0.62578  0.94930  0.65852  1.0000
  H   H1600     1.0  0.90334  0.78401  0.51531  1.0000
  H   H1601     1.0  0.54703  0.69627  0.63672  1.0000
  H   H1602     1.0  0.52166  0.50443  0.71088  1.0000
  S   S372      1.0  0.50794  0.54094  0.62713  1.0000
  H   H1603     1.0  0.49943  0.56869  0.72482  1.0000
  Fe  Fe188     1.0  0.52685  0.58001  0.63437  1.0000
  C   C1338     1.0  0.54305  0.96751  0.69272  1.0000
  C   C1339     1.0  0.92195  0.53284  0.70965  1.0000
  H   H1604     1.0  0.58489  0.58250  0.72457  1.0000
  Fe  Fe189     1.0  0.57380  0.63059  0.62130  1.0000
  S   S373      1.0  0.56152  0.64644  0.64705  1.0000
  S   S374      1.0  0.60868  0.65112  0.59633  1.0000
  Fe  Fe190     1.0  0.55257  0.60525  0.66402  1.0000
  S   S375      1.0  0.56635  0.60045  0.69191  1.0000
  S   S376      1.0  0.56827  0.59045  0.63870  1.0000
  S   S377      1.0  0.96906  0.80166  0.58418  1.0000
  H   H1605     1.0  0.65789  0.67715  0.64836  1.0000
  H   H1606     1.0  0.65438  0.79175  0.56805  1.0000
  S   S378      1.0  0.95991  0.72550  0.58285  1.0000
  H   H1607     1.0  0.82176  0.89581  0.59060  1.0000
  H   H1608     1.0  0.59384  0.49293  0.70549  1.0000
  C   C1340     1.0  0.63578  0.77708  0.57543  1.0000
  H   H1609     1.0  0.96721  0.67639  0.59774  1.0000
  H   H1610     1.0  0.65122  0.96929  0.59328  1.0000
  C   C1341     1.0  0.54090  0.54655  0.70206  1.0000
  C   C1342     1.0  0.55880  0.56861  0.70594  1.0000
  H   H1611     1.0  0.94857  0.49261  0.71451  1.0000
  H   H1612     1.0  0.94351  0.89128  0.61813  1.0000
  H   H1613     1.0  0.87436  0.91271  0.61670  1.0000
  C   C1343     1.0  0.93128  0.63175  0.69123  1.0000
  H   H1614     1.0  0.97732  0.58338  0.70764  1.0000
  H   H1615     1.0  0.96130  0.66238  0.69979  1.0000
  H   H1616     1.0  0.83212  0.89032  0.61290  1.0000
  H   H1617     1.0  0.87740  0.81180  0.51357  1.0000
  H   H1618     1.0  0.57534  0.68328  0.60301  1.0000
  H   H1619     1.0  0.92840  0.60998  0.65934  1.0000
  H   H1620     1.0  0.78298  0.88799  0.51723  1.0000
  C   C1344     1.0  0.66879  0.73207  0.59257  1.0000
  C   C1345     1.0  0.66999  0.71894  0.57723  1.0000
  C   C1346     1.0  0.65139  0.69417  0.57858  1.0000
  C   C1347     1.0  0.63143  0.68238  0.59521  1.0000
  C   C1348     1.0  0.63011  0.69557  0.61048  1.0000
  C   C1349     1.0  0.64871  0.72035  0.60914  1.0000
  H   H1621     1.0  0.68506  0.72793  0.56426  1.0000
  H   H1622     1.0  0.65244  0.68408  0.56669  1.0000
  H   H1623     1.0  0.61513  0.68643  0.62347  1.0000
  H   H1624     1.0  0.64767  0.73040  0.62105  1.0000
  H   H1625     1.0  0.54280  0.51134  0.63762  1.0000
  H   H1626     1.0  0.64712  0.96250  0.67397  1.0000
  S   S379      1.0  0.74198  0.96156  0.57296  1.0000
  H   H1627     1.0  0.90157  0.59557  0.68947  1.0000
  H   H1628     1.0  0.62254  0.97787  0.62969  1.0000
  H   H1629     1.0  0.48726  0.49737  0.66097  1.0000
  H   H1630     1.0  0.69112  0.94931  0.61057  1.0000
  C   C1350     1.0  0.62777  0.75303  0.56979  1.0000
  C   C1351     1.0  0.96017  0.56634  0.71362  1.0000
  H   H1631     1.0  0.72060  0.76375  0.50350  1.0000
  C   C1352     1.0  0.75714  0.93769  0.56915  1.0000
  C   C1353     1.0  0.74163  0.91222  0.56868  1.0000
  C   C1354     1.0  0.75322  0.89274  0.56573  1.0000
  C   C1355     1.0  0.78037  0.89861  0.56348  1.0000
  C   C1356     1.0  0.79590  0.92405  0.56409  1.0000
  C   C1357     1.0  0.78433  0.94363  0.56677  1.0000
  H   H1632     1.0  0.72059  0.90758  0.57050  1.0000
  H   H1633     1.0  0.74112  0.87320  0.56530  1.0000
  H   H1634     1.0  0.81694  0.92879  0.56216  1.0000
  C   C1358     1.0  0.94359  0.62956  0.72296  1.0000
  C   C1359     1.0  0.92602  0.88996  0.61233  1.0000
  C   C1360     1.0  0.91876  0.78860  0.50198  1.0000
  C   C1361     1.0  0.92056  0.87502  0.59837  1.0000
  S   S380      1.0  0.53346  0.61864  0.61478  1.0000
  C   C1362     1.0  0.50384  0.49898  0.66856  1.0000
  H   H1635     1.0  0.97761  0.52970  0.68927  1.0000
  H   H1636     1.0  0.64052  0.63985  0.63291  1.0000
  H   H1637     1.0  0.91350  0.91504  0.62951  1.0000
  H   H1638     1.0  0.94555  0.64002  0.64205  1.0000
  C   C1363     1.0  0.87711  0.81498  0.49835  1.0000
  C   C1364     1.0  0.89029  0.81287  0.55526  1.0000
  C   C1365     1.0  0.88470  0.78582  0.55601  1.0000
  C   C1366     1.0  0.85994  0.77060  0.55380  1.0000
  C   C1367     1.0  0.84052  0.78228  0.55115  1.0000
  C   C1368     1.0  0.84613  0.80931  0.55043  1.0000
  C   C1369     1.0  0.87103  0.82456  0.55219  1.0000
  H   H1639     1.0  0.89929  0.77651  0.55852  1.0000
  H   H1640     1.0  0.85574  0.74969  0.55440  1.0000
  H   H1641     1.0  0.83141  0.81859  0.54831  1.0000
  H   H1642     1.0  0.87545  0.84553  0.55101  1.0000
  H   H1643     1.0  0.64019  0.74918  0.55796  1.0000
  C   C1370     1.0  0.95385  0.55595  0.73357  1.0000
  C   C1371     1.0  0.94393  0.55518  0.70169  1.0000
  C   C1372     1.0  0.53512  0.95519  0.71233  1.0000
  H   H1644     1.0  0.56456  0.73004  0.63444  1.0000
  H   H1645     1.0  0.78705  0.93071  0.52674  1.0000
  C   C1373     1.0  0.97761  0.69111  0.60490  1.0000
  H   H1646     1.0  0.84950  0.91997  0.59453  1.0000
  C   C1374     1.0  0.77724  0.92577  0.51513  1.0000
  C   C1375     1.0  0.56575  0.54056  0.73310  1.0000
  N   N92       1.0  0.56379  0.71724  0.60713  1.0000
  C   C1376     1.0  0.54108  0.72628  0.60462  1.0000
  C   C1377     1.0  0.55913  0.69145  0.60119  1.0000
  C   C1378     1.0  0.56453  0.71265  0.62801  1.0000
  C   C1379     1.0  0.58835  0.73761  0.59589  1.0000
  C   C1380     1.0  0.60453  0.73342  0.57987  1.0000
  C   C1381     1.0  0.59668  0.76272  0.60081  1.0000
  C   C1382     1.0  0.62019  0.78200  0.59083  1.0000
  H   H1647     1.0  0.54212  0.74462  0.61006  1.0000
  H   H1648     1.0  0.53996  0.73024  0.58910  1.0000
  H   H1649     1.0  0.52219  0.71117  0.61271  1.0000
  H   H1650     1.0  0.55681  0.69287  0.58593  1.0000
  H   H1651     1.0  0.54081  0.67646  0.61006  1.0000
  H   H1652     1.0  0.83725  0.81535  0.50422  1.0000
  H   H1653     1.0  0.97229  0.76063  0.51080  1.0000
  H   H1654     1.0  0.58228  0.70747  0.63041  1.0000
  C   C1383     1.0  0.94263  0.63006  0.65741  1.0000
  H   H1655     1.0  0.58523  0.76753  0.61260  1.0000
  H   H1656     1.0  0.62661  0.80074  0.59520  1.0000
  N   N93       1.0  0.85692  0.88460  0.58843  1.0000
  C   C1384     1.0  0.86556  0.89648  0.56746  1.0000
  C   C1385     1.0  0.84095  0.85649  0.59108  1.0000
  C   C1386     1.0  0.83947  0.89833  0.59709  1.0000
  C   C1387     1.0  0.88032  0.88654  0.59700  1.0000
  C   C1388     1.0  0.88651  0.90174  0.61120  1.0000
  C   C1389     1.0  0.89813  0.87335  0.59078  1.0000
  C   C1390     1.0  0.67094  0.98939  0.63826  1.0000
  C   C1391     1.0  0.90906  0.90331  0.61871  1.0000
  H   H1657     1.0  0.95595  0.63826  0.73233  1.0000
  H   H1658     1.0  0.87730  0.88617  0.55958  1.0000
  H   H1659     1.0  0.84860  0.89575  0.56041  1.0000
  H   H1660     1.0  0.87788  0.91753  0.56493  1.0000
  H   H1661     1.0  0.85148  0.84507  0.58336  1.0000
  H   H1662     1.0  0.82269  0.85429  0.58538  1.0000
  H   H1663     1.0  0.83508  0.84664  0.60665  1.0000
  H   H1664     1.0  0.89499  0.86172  0.57985  1.0000
  H   H1665     1.0  0.72903  0.97875  0.50864  1.0000
  C   C1392     1.0  0.57106  0.56551  0.72152  1.0000
  C   C1393     1.0  0.49246  0.93114  0.70708  1.0000
  Fe  Fe191     1.0  0.52059  0.63136  0.64206  1.0000
  C   C1394     1.0  0.50043  0.94341  0.68748  1.0000
  C   C1395     1.0  0.71649  0.98488  0.61567  1.0000
  H   H1666     1.0  0.48241  0.98735  0.68301  1.0000
  H   H1667     1.0  0.95432  0.68240  0.65080  1.0000
  C   C1396     1.0  0.48298  0.55948  0.71864  1.0000
  H   H1668     1.0  0.53135  0.54889  0.69004  1.0000
  H   H1669     1.0  0.54865  0.95938  0.72190  1.0000
  Fe  Fe192     1.0  0.97237  0.76881  0.56918  1.0000
  C   C1397     1.0  0.85395  0.81690  0.49312  1.0000
  N   N94       1.0  0.73694  0.71012  0.60164  1.0000
  C   C1398     1.0  0.73833  0.72100  0.58105  1.0000
  C   C1399     1.0  0.74432  0.73288  0.61124  1.0000
  C   C1400     1.0  0.75684  0.69649  0.60261  1.0000
  C   C1401     1.0  0.71046  0.69112  0.61047  1.0000
  C   C1402     1.0  0.69993  0.66912  0.60222  1.0000
  C   C1403     1.0  0.69462  0.69342  0.62749  1.0000
  C   C1404     1.0  0.67502  0.65090  0.61029  1.0000
  C   C1405     1.0  0.66991  0.67481  0.63560  1.0000
  C   C1406     1.0  0.66009  0.65369  0.62698  1.0000
  H   H1670     1.0  0.72320  0.73079  0.57975  1.0000
  H   H1671     1.0  0.75780  0.73591  0.57416  1.0000
  H   H1672     1.0  0.73536  0.70578  0.57211  1.0000
  H   H1673     1.0  0.73020  0.74420  0.61071  1.0000
  H   H1674     1.0  0.76404  0.74708  0.60397  1.0000
  H   H1675     1.0  0.74523  0.72649  0.62658  1.0000
  H   H1676     1.0  0.75382  0.68042  0.59437  1.0000
  H   H1677     1.0  0.77710  0.71031  0.59635  1.0000
  H   H1678     1.0  0.75614  0.68756  0.61784  1.0000
  H   H1679     1.0  0.71073  0.66597  0.58932  1.0000
  H   H1680     1.0  0.70057  0.70966  0.63464  1.0000
  H   H1681     1.0  0.66690  0.63481  0.60336  1.0000
  H   H1682     1.0  0.83018  0.75322  0.51002  1.0000
  C   C1407     1.0  0.91602  0.52199  0.72957  1.0000
  C   C1408     1.0  0.66977  0.96789  0.62887  1.0000
  H   H1683     1.0  0.60014  0.71493  0.57511  1.0000
  H   H1684     1.0  0.89329  0.62803  0.66971  1.0000
  H   H1685     1.0  0.91840  0.83120  0.51612  1.0000
  C   C1409     1.0  0.97599  0.76645  0.49523  1.0000
  H   H1686     1.0  0.61616  0.96826  0.67455  1.0000
  C   C1410     1.0  0.63350  0.96678  0.66479  1.0000
  H   H1687     1.0  0.97502  0.51234  0.67044  1.0000
  C   C1411     1.0  0.76650  0.94327  0.50586  1.0000
  H   H1688     1.0  0.93378  0.86469  0.59327  1.0000
  C   C1412     1.0  0.53524  0.52148  0.71394  1.0000
  C   C1413     1.0  0.95319  0.67246  0.66587  1.0000
  C   C1414     1.0  0.69228  0.96575  0.61776  1.0000
  H   H1689     1.0  0.79638  0.96325  0.56715  1.0000
  C   C1415     1.0  0.90825  0.64760  0.66810  1.0000
  N   N95       1.0  0.93396  0.64539  0.67107  1.0000
  C   C1416     1.0  0.54777  0.51850  0.72944  1.0000
  C   C1417     1.0  0.91013  0.59272  0.71751  1.0000
  H   H1690     1.0  0.90046  0.65796  0.67872  1.0000
  H   H1691     1.0  0.69012  0.97121  0.56935  1.0000
  H   H1692     1.0  0.94782  0.68527  0.67545  1.0000
  C   C1418     1.0  0.52550  0.96197  0.68038  1.0000
  H   H1693     1.0  0.65139  0.95269  0.62992  1.0000
  C   C1419     1.0  0.93249  0.83503  0.50220  1.0000
  H   H1694     1.0  0.59411  0.53062  0.68108  1.0000
  S   S381      1.0  0.49568  0.65805  0.64018  1.0000
  H   H1695     1.0  0.76771  0.96162  0.51056  1.0000
  C   C1420     1.0  0.94649  0.64321  0.70409  1.0000
  H   H1696     1.0  0.97342  0.67223  0.66658  1.0000
  H   H1697     1.0  0.96152  0.62732  0.65953  1.0000
  H   H1698     1.0  0.56063  0.52576  0.66170  1.0000
  H   H1699     1.0  0.51599  0.52016  0.66488  1.0000
  C   C1421     1.0  0.50965  0.93739  0.71959  1.0000
  C   C1422     1.0  0.79885  0.75822  0.49650  1.0000
  H   H1700     1.0  0.90979  0.65876  0.65330  1.0000
  C   C1423     1.0  0.77503  0.90179  0.50963  1.0000
  C   C1424     1.0  0.65691  0.98309  0.57956  1.0000
  H   H1701     1.0  0.48715  0.93864  0.67778  1.0000
  H   H1702     1.0  0.48513  0.52062  0.72683  1.0000
  C   C1425     1.0  0.56027  0.50843  0.67163  1.0000
  C   C1426     1.0  0.57962  0.51144  0.68265  1.0000
  H   H1703     1.0  0.89673  0.57274  0.72259  1.0000
  H   H1704     1.0  0.93668  0.78663  0.50681  1.0000
  C   C1427     1.0  0.75378  0.93700  0.49085  1.0000
  H   H1705     1.0  0.95141  0.83493  0.50630  1.0000
  N   N96       1.0  0.92380  0.81526  0.49027  1.0000
  C   C1428     1.0  0.97698  0.71701  0.60040  1.0000
  H   H1706     1.0  0.49564  0.49390  0.68440  1.0000
  H   H1707     1.0  0.93517  0.85528  0.49431  1.0000
  C   C1429     1.0  0.72050  0.77058  0.48852  1.0000
  H   H1708     1.0  0.94467  0.73314  0.49219  1.0000
  H   H1709     1.0  0.76115  0.87634  0.49123  1.0000
  C   C1430     1.0  0.76229  0.89530  0.49463  1.0000
  H   H1710     1.0  0.69977  0.88932  0.48873  1.0000
  C   C1431     1.0  0.92542  0.60441  0.72967  1.0000
  C   C1432     1.0  0.57947  0.49026  0.69642  1.0000
  S   S382      1.0  0.57483  0.98988  0.68365  1.0000
  C   C1433     1.0  0.53078  0.49016  0.64187  1.0000
  C   C1434     1.0  0.75131  0.91285  0.48469  1.0000
  C   C1435     1.0  0.96047  0.75085  0.48469  1.0000
  H   H1711     1.0  0.48908  0.98919  0.75724  1.0000
  C   C1436     1.0  0.53240  0.51327  0.79838  1.0000
  C   C1437     1.0  0.93171  0.53387  0.74159  1.0000
  H   H1712     1.0  0.50211  0.50279  0.87512  1.0000
  H   H1713     1.0  0.48405  0.50006  0.96912  1.0000
  C   C1438     1.0  0.54355  0.52529  0.81231  1.0000
  H   H1714     1.0  0.56318  0.52115  0.83590  1.0000
  S   S383      1.0  0.48752  0.95389  0.79420  1.0000
  H   H1715     1.0  0.54414  0.54529  0.81299  1.0000
  H   H1716     1.0  0.96616  0.56505  0.74280  1.0000
  H   H1717     1.0  0.52459  0.52407  0.78807  1.0000
  H   H1718     1.0  0.48982  0.67203  0.93292  1.0000
  S   S384      1.0  0.92333  0.52187  0.76669  1.0000
  H   H1719     1.0  0.48221  0.70943  0.94616  1.0000
  C   C1439     1.0  0.55427  0.51169  0.82517  1.0000
  H   H1720     1.0  0.51337  0.97805  0.74489  1.0000
  C   C1440     1.0  0.48901  0.50399  0.86530  1.0000
  H   H1721     1.0  0.92373  0.59357  0.74412  1.0000
  H   H1722     1.0  0.57556  0.53841  0.74500  1.0000
  H   H1723     1.0  0.97911  0.49491  0.83301  1.0000
  H   H1724     1.0  0.50591  0.98805  0.81951  1.0000
  H   H1725     1.0  0.49610  0.50113  0.94415  1.0000
  H   H1726     1.0  0.93844  0.50596  0.84179  1.0000
  H   H1727     1.0  0.89895  0.50482  0.73572  1.0000
  H   H1728     1.0  0.50359  0.92783  0.73473  1.0000
