data_image0
_chemical_formula_structural       NC3H2SFeHCSC3HCH2CH2CFeSC2HSHCH6SCH4NCH2NHCH6CSH3CHSH2C4SHC2H8C2HCH2CHFeHC2HCH2CSC5H2C2NHC2HSHCHCH3CHCH2SHCSH2SHSCHFeSCHCHFeSCHCSH3C4HC3H2SH3CH2SCHSCSCH3CHCH2CH2C5HCSFe2H2CHCHSCHCSH2C2FeC7HC2HC2H2C2HCHCHC2SC3FeH3FeNC3HCH5CHC3HFeCHCHFeCHCHCH2C2H4CHCHNC2S2CNC2FeC3H2S2CHCNSC2HCH3CFeH4C2SH4C2H3CSC2SFeC2FeH8C2HCH3CSHSH3C2H4CSCFeC2HS2FeC2HSCH2CSHC3H4FeS2C2HCH2CH4SCH4FeCH2SH3NS2HCFeH4C2HC2HSHFeCHSHNCH4SC2HC2H2CH5CH4CHC2HC3H3CH4C2H5SCHCH3CFeCFeHCFeCHNH2CHC2H3SHC2HC2HNH2SC2HFeHC2HCHSH3C4HSCHSH2CHCSNC3NC2HCSCH2C3H2FeHCH2S2C4HCFeHCHCSNSHCH2CHFeSHCHNCH2C2SH3CHCHC6HCSNCHC2FeHCFeH3CHSCH2C2H4CHCFeSCSFeH2CHC4HSC2FeHC2SH3SC3H3C3H2CH3FeH2SNC2HCHC4HC3HCH2C2H2CHSCHCHSHC2HCH2S2C2SHCFeC2HNFeC2HFeCH3CH3SH2C4NCSCHCSHC5H2C4FeSCH2CHC2H2CH4CNH8CHCH3CHCSFeCSCHCH3CNCHCSH3CHFeH2SH4C3HC2H2C3S2CFeHCNSCHCNH5CHCHFeHC2H3CHFeHCHC2HFeSCH2SCSHCHCHCFeHSCHC2H3SHSHCSCHCSCH2CH3SH2CHSCHCH2C2HFeCHNH5S2CHNCFeHC3SHCH2CHC2HC3HC2HCSHC4HCHC2NFeCH3C2FeHSHCH4CHCH2CHFeH2CFeSC3H3CH3CHCHCFeCS2HCFeH2CH3CH2CS2HSHCHCH7CSH2SH2CHCSCH6CHSH2CSC3HNS2C4HCSHCHCHCHCHSHSFeH2SH3CH2C2FeCHCH3CHFeH3CH2SCH3C2FeHCNCH3SCFeHSHFeCHC2HSCHCHSC2HC4H2S2C3HNSH2CH2NHSCHCFeHCHCSHFeHCH3SH3CFeHSC2HSHNCSHCHCFeCHCHCNH2CH3CHCFeHFeH6FeC2SHC3H2C2HCHC2HNCH4SH2FeHC3SH2SCH2C2HCFeHCHC2H3C2H2CH3CSCFeSH4C2FeH4CSFeCSC2NFeC3H2SHNC3HC2H3CSCSH2CSHCH2CHCH2CH2SC3FeC5SC2HSCH2CHCH2CHFeHCHCFeCH4CSH4CH2CH3FeCH2CHCHSFeCSHC6H5SH2SFeCHC3NH2FeNHCHC2H2CHFeHCHC4HS2FeH2CFeCFeCHCH2C2H4FeC2HC2H3SH5SH5CHNHSCH2FeHCH2CHSH2SH2CSHNCHC2HSHCHC4HC2HCHC5H2C2HCNFeCH2CH2SHC2H4CHC2H4C2HCFeCH2C5NCHCHFeHCHSC2HC2HC2S3C3SHSCHFeHSC3H2C2HC3H3CHC2H3CH2CSHC2SCHNC2HCHCHCHCFeC2HCHCSHC3H3CHCH2CFeHC3H2CH2CH2FeHCHSH4C2HFeHSHCHCH2CHC2SN2H3CHCSH3C2SC5SH3C2H2CSHSCHCSC2SH3NHSC2HCH3C2H2CHCFeCH3CFeH5NHFeH2NH4SHC2FeH3NC3H2SCH3SHCN2C2H2C3HC4H2FeSHCH2CH2CHCHCH2C3S2H4CH6SH3CHC4HCHCH2FeCHSCHCHCSCHC2HCHCSHSC3H2C3H2CHCFeHCH3CH2CH3C3HSHC3HFeH2SHSH2CNHC3H2C3HCHCHC2H3SFeH3C2HSHCH2CH2CHCH5C8HSFeSHCHCHFeHFeCH5NCSH2CSCHC2SCHSHC4HC2HSCH2CHSNH2C5H2FeHCHSH2C2HNSCH2C4H2SH2C2SHCHSNH3SH3SHCSH2C3H3CHFeCH2CHC2SHCH2C3H5FeSFeHC3H2CH4CHCNH2C3H3C2HC2H4CH2CH3C2HFe2CSFeHC3H2C2HC2H3C2FeH2CH7C4HFeCH2SHSNHNCH2C2H2CHNSHCS2HCH2CHC2NC2H2SCHS2CH2CHC2H2CH3CH3SHCH2CH2CHFeHC3H2SHCH4SCH4CH2CSH4S3CH2C2FeH2FeH2SCHCFeHCSC2SNHSC2H2C5HC2HC2S3FeC3NH2C2H4C2H2SH4C3HCH2CHC4HFeH3SC2SHFeSC2HC2HC4H5CFeHCSH3SCH4FeCHCFeCFeH3C5HCHCFeSHSHFeH2FeHCH2CH2CHC2H2C2HCSH2SC2H4CFeHFeH2S3HS2HSFeH4CHC4S2HC2HCHFeH4C3SC2H2C2H2C2FeH2SCHC2HCH2C2H3SHFeSCH2CH2C3HCSFeCFeC3NHSCHFeC2HC2HSHC3HSH3C3HCH3SHCHC2HCHSHSHCSH4C2FeCSC2SCH2C2SHC2HC3SHC3SH2C3H2C3H3CHC2H4CH2CHC2SHSHC2HCH4CHFeH3CH2SNHCH4SHCH2CFeNCNFeNH2CSCH3C3NCNHSC2FeHCH2C5HNHS2H3NH2C2HC2HCSHC2H2C2HCHCHC2H2CH4C2S2CFeSCHCHC2HCH2
_chemical_formula_sum              "N72 C1080 H1296 S288 Fe144"
_cell_length_a       39.2947
_cell_length_b       45.0015
_cell_length_c       24.0688
_cell_angle_alpha    76.3526
_cell_angle_beta     79.0436
_cell_angle_gamma    107.269

_space_group_name_H-M_alt    "P 1"
_space_group_IT_number       1

loop_
  _space_group_symop_operation_xyz
  'x, y, z'

loop_
  _atom_site_type_symbol
  _atom_site_label
  _atom_site_symmetry_multiplicity
  _atom_site_fract_x
  _atom_site_fract_y
  _atom_site_fract_z
  _atom_site_occupancy
  N   N1        1.0  0.38199  0.39266  0.07885  1.0000
  C   C1        1.0  0.20283  0.38833  0.38282  1.0000
  C   C2        1.0  0.36538  0.95036  0.38889  1.0000
  C   C3        1.0  0.32097  0.35617  0.37921  1.0000
  H   H1        1.0  0.53081  0.04246  0.15141  1.0000
  H   H2        1.0  0.53202  0.26362  0.08830  1.0000
  S   S1        1.0  0.20509  0.01851  0.07006  1.0000
  Fe  Fe1       1.0  0.42418  0.08810  0.32338  1.0000
  H   H3        1.0  0.34042  0.37578  0.38853  1.0000
  C   C4        1.0  0.20874  0.21851  0.39279  1.0000
  S   S2        1.0  0.49464  0.19676  0.16397  1.0000
  C   C5        1.0  0.51917  0.18596  0.43161  1.0000
  C   C6        1.0  0.32706  0.20062  0.39774  1.0000
  C   C7        1.0  0.39641  0.10146  0.06558  1.0000
  H   H4        1.0  0.10838  0.31588  0.38984  1.0000
  C   C8        1.0  0.49558  0.35993  0.47538  1.0000
  H   H5        1.0  0.22538  0.18517  0.16897  1.0000
  H   H6        1.0  0.57155  0.36568  0.01423  1.0000
  C   C9        1.0  0.15706  0.32089  0.45711  1.0000
  H   H7        1.0  0.58584  0.38454  0.22631  1.0000
  H   H8        1.0  0.17234  0.30604  0.32495  1.0000
  C   C10       1.0  0.19226  0.22559  0.34756  1.0000
  Fe  Fe2       1.0  0.39903  0.27449  0.35321  1.0000
  S   S3        1.0  0.26693  0.22406  0.23205  1.0000
  C   C11       1.0  0.54213  0.93433  0.24531  1.0000
  C   C12       1.0  0.47012  0.35673  0.10441  1.0000
  H   H9        1.0  0.26343  0.12316  0.44284  1.0000
  S   S4        1.0  0.47287  0.10387  0.24345  1.0000
  H   H10       1.0  0.58108  0.11711  0.19005  1.0000
  C   C13       1.0  0.55013  0.28446  0.46314  1.0000
  H   H11       1.0  0.36892  0.13297  0.20742  1.0000
  H   H12       1.0  0.32253  0.37311  0.09887  1.0000
  H   H13       1.0  0.23826  0.22268  0.38161  1.0000
  H   H14       1.0  0.59085  0.05539  0.08233  1.0000
  H   H15       1.0  0.58870  0.38865  0.14943  1.0000
  H   H16       1.0  0.46930  0.97060  0.17110  1.0000
  S   S5        1.0  0.37320  0.22232  0.35558  1.0000
  C   C14       1.0  0.19976  0.36012  0.36436  1.0000
  H   H17       1.0  0.57070  0.25506  0.31516  1.0000
  H   H18       1.0  0.30423  0.08231  0.19564  1.0000
  H   H19       1.0  0.42155  0.19636  0.19521  1.0000
  H   H20       1.0  0.16988  0.95073  0.10050  1.0000
  N   N2        1.0  0.21989  0.97641  0.40555  1.0000
  C   C15       1.0  0.26339  0.38944  0.29913  1.0000
  H   H21       1.0  0.45955  0.98506  0.34410  1.0000
  H   H22       1.0  0.26533  0.20852  0.01035  1.0000
  N   N3        1.0  0.36337  0.09260  0.17197  1.0000
  H   H23       1.0  0.41842  0.27334  0.10196  1.0000
  C   C16       1.0  0.38946  0.18662  0.05016  1.0000
  H   H24       1.0  0.52546  0.06628  0.20156  1.0000
  H   H25       1.0  0.14157  0.22549  0.32643  1.0000
  H   H26       1.0  0.33454  0.30389  0.99620  1.0000
  H   H27       1.0  0.45606  0.33157  0.04152  1.0000
  H   H28       1.0  0.44544  0.98320  0.08784  1.0000
  H   H29       1.0  0.23999  0.36459  0.10082  1.0000
  C   C17       1.0  0.22235  0.11383  0.26273  1.0000
  S   S6        1.0  0.46123  0.36624  0.31639  1.0000
  H   H30       1.0  0.57747  0.12947  0.11547  1.0000
  H   H31       1.0  0.13459  0.29655  0.47896  1.0000
  H   H32       1.0  0.39997  0.98453  0.09544  1.0000
  C   C18       1.0  0.36404  0.92940  0.26745  1.0000
  H   H33       1.0  0.27126  0.07415  0.00184  1.0000
  S   S7        1.0  0.12234  0.33805  0.03912  1.0000
  H   H34       1.0  0.16787  0.14864  0.42877  1.0000
  H   H35       1.0  0.57053  0.28125  0.43054  1.0000
  C   C19       1.0  0.55163  0.02726  0.47457  1.0000
  C   C20       1.0  0.52783  0.32802  0.00206  1.0000
  C   C21       1.0  0.58209  0.23118  0.06316  1.0000
  C   C22       1.0  0.42219  0.01171  0.33865  1.0000
  S   S8        1.0  0.37971  0.30844  0.39480  1.0000
  H   H36       1.0  0.20135  0.12487  0.18683  1.0000
  C   C23       1.0  0.28922  0.33402  0.42445  1.0000
  C   C24       1.0  0.58134  0.20932  0.44045  1.0000
  H   H37       1.0  0.13320  0.14942  0.32343  1.0000
  H   H38       1.0  0.54796  0.31605  0.11111  1.0000
  H   H39       1.0  0.54747  0.97388  0.16940  1.0000
  H   H40       1.0  0.31872  0.20584  0.15787  1.0000
  H   H41       1.0  0.40892  0.18146  0.01876  1.0000
  H   H42       1.0  0.54349  0.02057  0.23540  1.0000
  H   H43       1.0  0.23049  0.34224  0.30175  1.0000
  H   H44       1.0  0.09831  0.31072  0.17555  1.0000
  C   C25       1.0  0.55486  0.03804  0.41348  1.0000
  C   C26       1.0  0.51809  0.29389  0.20376  1.0000
  H   H45       1.0  0.32673  0.15657  0.37681  1.0000
  C   C27       1.0  0.30725  0.21470  0.43126  1.0000
  H   H46       1.0  0.17487  0.92005  0.02867  1.0000
  H   H47       1.0  0.48801  0.26440  0.29437  1.0000
  C   C28       1.0  0.35676  0.97871  0.37248  1.0000
  H   H48       1.0  0.51294  0.34794  0.39568  1.0000
  Fe  Fe3       1.0  0.20607  0.06852  0.06927  1.0000
  H   H49       1.0  0.38493  0.05565  0.20574  1.0000
  C   C29       1.0  0.55990  0.37653  0.41835  1.0000
  C   C30       1.0  0.11595  0.94133  0.48205  1.0000
  H   H50       1.0  0.50653  0.26222  0.42735  1.0000
  C   C31       1.0  0.24222  0.12690  0.29913  1.0000
  H   H51       1.0  0.37430  0.25202  0.23402  1.0000
  H   H52       1.0  0.15108  0.07358  0.38983  1.0000
  C   C32       1.0  0.41227  0.38055  0.08828  1.0000
  S   S9        1.0  0.20162  0.07107  0.28157  1.0000
  C   C33       1.0  0.30795  0.96079  0.08663  1.0000
  C   C34       1.0  0.56206  0.96230  0.19602  1.0000
  C   C35       1.0  0.59065  0.23453  0.38707  1.0000
  C   C36       1.0  0.46161  0.37706  0.13585  1.0000
  C   C37       1.0  0.39609  0.10976  0.11906  1.0000
  H   H53       1.0  0.20208  0.18334  0.00886  1.0000
  H   H54       1.0  0.40546  0.35066  0.02876  1.0000
  C   C38       1.0  0.34615  0.36500  0.10499  1.0000
  C   C39       1.0  0.23021  0.16895  0.20511  1.0000
  N   N4        1.0  0.39062  0.22750  0.17208  1.0000
  H   H55       1.0  0.31891  0.92047  0.06323  1.0000
  C   C40       1.0  0.38699  0.40658  0.01410  1.0000
  C   C41       1.0  0.27149  0.40127  0.48652  1.0000
  H   H56       1.0  0.11948  0.26693  0.20774  1.0000
  S   S10       1.0  0.18495  0.24740  0.18934  1.0000
  H   H57       1.0  0.19206  0.29530  0.38468  1.0000
  C   C42       1.0  0.58654  0.01602  0.27336  1.0000
  H   H58       1.0  0.41381  0.02267  0.15198  1.0000
  C   C43       1.0  0.56097  0.91863  0.27870  1.0000
  H   H59       1.0  0.41286  0.21782  0.24670  1.0000
  H   H60       1.0  0.32273  0.08093  0.12338  1.0000
  H   H61       1.0  0.43177  0.14175  0.15799  1.0000
  C   C44       1.0  0.30066  0.92792  0.28779  1.0000
  H   H62       1.0  0.44831  0.25146  0.11959  1.0000
  C   C45       1.0  0.15445  0.22009  0.36169  1.0000
  H   H63       1.0  0.58259  0.25784  0.18240  1.0000
  H   H64       1.0  0.34478  0.34534  0.08394  1.0000
  S   S11       1.0  0.22665  0.27826  0.47040  1.0000
  H   H65       1.0  0.34059  0.09366  0.26044  1.0000
  C   C46       1.0  0.42849  0.00849  0.17554  1.0000
  S   S12       1.0  0.19563  0.00209  0.21319  1.0000
  H   H66       1.0  0.14974  0.10013  0.32251  1.0000
  H   H67       1.0  0.21967  0.02560  0.38363  1.0000
  S   S13       1.0  0.45698  0.08317  0.38884  1.0000
  H   H68       1.0  0.44128  0.95987  0.24616  1.0000
  S   S14       1.0  0.47560  0.15417  0.45706  1.0000
  C   C47       1.0  0.23066  0.36192  0.32021  1.0000
  H   H69       1.0  0.26226  0.96476  0.44122  1.0000
  Fe  Fe4       1.0  0.40498  0.34547  0.30373  1.0000
  S   S15       1.0  0.29357  0.01173  0.11608  1.0000
  C   C48       1.0  0.14943  0.20230  0.46861  1.0000
  H   H70       1.0  0.34331  0.92682  0.40897  1.0000
  C   C49       1.0  0.17928  0.96165  0.41538  1.0000
  H   H71       1.0  0.10969  0.40666  0.12416  1.0000
  Fe  Fe5       1.0  0.47988  0.15473  0.24649  1.0000
  S   S16       1.0  0.41375  0.91722  0.39590  1.0000
  C   C50       1.0  0.09931  0.97512  0.99962  1.0000
  H   H72       1.0  0.15539  0.40608  0.12439  1.0000
  C   C51       1.0  0.29787  0.92898  0.08238  1.0000
  S   S17       1.0  0.55957  0.15291  0.00716  1.0000
  H   H73       1.0  0.18758  0.12020  0.40895  1.0000
  H   H74       1.0  0.54221  0.94220  0.09208  1.0000
  H   H75       1.0  0.43221  0.93227  0.20262  1.0000
  C   C52       1.0  0.24988  0.18186  0.24207  1.0000
  C   C53       1.0  0.32830  0.35209  0.32281  1.0000
  C   C54       1.0  0.56597  0.98468  0.01439  1.0000
  C   C55       1.0  0.40160  0.20225  0.09041  1.0000
  H   H76       1.0  0.41025  0.21624  0.44044  1.0000
  C   C56       1.0  0.20672  0.39878  0.20012  1.0000
  C   C57       1.0  0.13326  0.20799  0.42126  1.0000
  C   C58       1.0  0.30340  0.32647  0.31115  1.0000
  H   H77       1.0  0.56460  0.02543  0.38459  1.0000
  H   H78       1.0  0.11361  0.92749  0.34998  1.0000
  S   S18       1.0  0.15631  0.05046  0.14901  1.0000
  H   H79       1.0  0.17996  0.95313  0.32900  1.0000
  H   H80       1.0  0.10410  0.20318  0.43006  1.0000
  H   H81       1.0  0.18581  0.39257  0.24153  1.0000
  C   C59       1.0  0.27161  0.30452  0.35624  1.0000
  H   H82       1.0  0.49228  0.34781  0.11087  1.0000
  H   H83       1.0  0.31962  0.24005  0.42887  1.0000
  S   S19       1.0  0.42875  0.13938  0.32234  1.0000
  C   C60       1.0  0.36282  0.23808  0.20512  1.0000
  H   H84       1.0  0.50801  0.21181  0.35389  1.0000
  S   S20       1.0  0.16077  0.22753  0.04546  1.0000
  C   C61       1.0  0.27547  0.14868  0.43964  1.0000
  S   S21       1.0  0.25602  0.26093  0.07406  1.0000
  C   C62       1.0  0.14790  0.91719  0.05462  1.0000
  H   H85       1.0  0.12834  0.35750  0.38861  1.0000
  H   H86       1.0  0.23751  0.95661  0.33674  1.0000
  H   H87       1.0  0.32808  0.97681  0.37990  1.0000
  C   C63       1.0  0.21683  0.13488  0.21501  1.0000
  H   H88       1.0  0.44434  0.03530  0.32007  1.0000
  C   C64       1.0  0.53698  0.95699  0.05474  1.0000
  H   H89       1.0  0.33830  0.21686  0.23601  1.0000
  H   H90       1.0  0.35313  0.25424  0.17439  1.0000
  C   C65       1.0  0.49131  0.23443  0.23764  1.0000
  H   H91       1.0  0.42734  0.40376  0.15512  1.0000
  H   H92       1.0  0.10653  0.14924  0.39298  1.0000
  C   C66       1.0  0.31107  0.95520  0.23796  1.0000
  C   C67       1.0  0.45833  0.14145  0.01677  1.0000
  C   C68       1.0  0.23168  0.95520  0.44907  1.0000
  C   C69       1.0  0.31119  0.16764  0.40202  1.0000
  C   C70       1.0  0.22943  0.00924  0.41396  1.0000
  H   H93       1.0  0.51066  0.32052  0.04710  1.0000
  C   C71       1.0  0.14505  0.93477  0.09512  1.0000
  S   S22       1.0  0.45394  0.28979  0.37293  1.0000
  Fe  Fe6       1.0  0.43699  0.32732  0.40542  1.0000
  Fe  Fe7       1.0  0.20259  0.30217  0.16579  1.0000
  H   H94       1.0  0.33140  0.11971  0.13668  1.0000
  H   H95       1.0  0.19443  0.37874  0.03811  1.0000
  C   C72       1.0  0.45943  0.14947  0.06890  1.0000
  H   H96       1.0  0.18440  0.15136  0.35239  1.0000
  C   C73       1.0  0.49800  0.26436  0.24955  1.0000
  H   H97       1.0  0.27210  0.91675  0.31523  1.0000
  S   S23       1.0  0.41985  0.31013  0.26153  1.0000
  C   C74       1.0  0.13503  0.08800  0.37074  1.0000
  H   H98       1.0  0.26000  0.02143  0.40504  1.0000
  C   C75       1.0  0.19191  0.38456  0.99319  1.0000
  S   S24       1.0  0.37166  0.37472  0.27101  1.0000
  H   H99       1.0  0.28384  0.33718  0.46789  1.0000
  H   H100      1.0  0.43059  0.20832  0.08920  1.0000
  C   C76       1.0  0.59060  0.11594  0.14426  1.0000
  C   C77       1.0  0.50337  0.23404  0.17945  1.0000
  Fe  Fe8       1.0  0.46721  0.13588  0.37997  1.0000
  C   C78       1.0  0.40066  0.20526  0.21655  1.0000
  C   C79       1.0  0.43291  0.38863  0.12855  1.0000
  C   C80       1.0  0.56395  0.23552  0.35619  1.0000
  C   C81       1.0  0.32705  0.91494  0.30209  1.0000
  C   C82       1.0  0.24214  0.98064  0.34503  1.0000
  C   C83       1.0  0.52839  0.21113  0.37820  1.0000
  C   C84       1.0  0.12495  0.93622  0.38335  1.0000
  H   H101      1.0  0.14771  0.33843  0.47575  1.0000
  C   C85       1.0  0.54517  0.06492  0.39012  1.0000
  C   C86       1.0  0.53180  0.29334  0.14629  1.0000
  H   H102      1.0  0.13774  0.19131  0.17177  1.0000
  C   C87       1.0  0.18774  0.20710  0.45243  1.0000
  C   C88       1.0  0.35256  0.17824  0.04913  1.0000
  H   H103      1.0  0.45844  0.02082  0.15064  1.0000
  H   H104      1.0  0.59329  0.99145  0.02122  1.0000
  C   C89       1.0  0.23371  0.91881  0.13072  1.0000
  C   C90       1.0  0.16335  0.95119  0.37173  1.0000
  H   H105      1.0  0.27250  0.99190  0.33918  1.0000
  C   C91       1.0  0.10135  0.93117  0.43844  1.0000
  H   H106      1.0  0.48419  0.16800  0.06986  1.0000
  C   C92       1.0  0.11019  0.93165  0.12835  1.0000
  H   H107      1.0  0.23530  0.99707  0.31002  1.0000
  C   C93       1.0  0.42100  0.35903  0.05813  1.0000
  C   C94       1.0  0.42700  0.11734  0.01517  1.0000
  S   S25       1.0  0.52492  0.33163  0.21695  1.0000
  C   C95       1.0  0.51332  0.27299  0.46148  1.0000
  C   C96       1.0  0.41643  0.97171  0.11734  1.0000
  C   C97       1.0  0.32752  0.18513  0.08878  1.0000
  Fe  Fe9       1.0  0.47378  0.32704  0.28300  1.0000
  H   H108      1.0  0.30939  0.32275  0.26810  1.0000
  H   H109      1.0  0.54762  0.22114  0.00511  1.0000
  H   H110      1.0  0.35458  0.04510  0.16035  1.0000
  Fe  Fe10      1.0  0.26730  0.31433  0.06105  1.0000
  N   N5        1.0  0.16564  0.33052  0.39112  1.0000
  C   C98       1.0  0.16917  0.13393  0.39788  1.0000
  C   C99       1.0  0.12014  0.00425  0.00670  1.0000
  C   C100      1.0  0.53988  0.06742  0.15607  1.0000
  H   H111      1.0  0.18012  0.38919  0.41495  1.0000
  C   C101      1.0  0.34789  0.96961  0.20237  1.0000
  H   H112      1.0  0.40594  0.94584  0.11756  1.0000
  H   H113      1.0  0.38939  0.10430  0.23925  1.0000
  H   H114      1.0  0.37589  0.18360  0.24515  1.0000
  H   H115      1.0  0.34342  0.16639  0.01746  1.0000
  H   H116      1.0  0.47716  0.38363  0.16658  1.0000
  C   C102      1.0  0.59209  0.23685  0.18272  1.0000
  H   H117      1.0  0.22358  0.92983  0.44628  1.0000
  C   C103      1.0  0.11416  0.13322  0.36800  1.0000
  C   C104      1.0  0.42889  0.13401  0.11947  1.0000
  C   C105      1.0  0.13437  0.33784  0.37261  1.0000
  H   H118      1.0  0.22254  0.95941  0.15192  1.0000
  Fe  Fe11      1.0  0.24233  0.02427  0.12942  1.0000
  C   C106      1.0  0.57155  0.39271  0.45830  1.0000
  H   H119      1.0  0.21725  0.00802  0.46041  1.0000
  C   C107      1.0  0.56993  0.23933  0.01267  1.0000
  H   H120      1.0  0.52997  0.08256  0.12369  1.0000
  Fe  Fe12      1.0  0.19628  0.25568  0.09102  1.0000
  C   C108      1.0  0.25559  0.16261  0.47340  1.0000
  H   H121      1.0  0.58008  0.37726  0.38011  1.0000
  C   C109      1.0  0.27175  0.19552  0.46987  1.0000
  H   H122      1.0  0.14293  0.27961  0.39581  1.0000
  C   C110      1.0  0.25640  0.16082  0.28821  1.0000
  H   H123      1.0  0.28705  0.38984  0.26691  1.0000
  H   H124      1.0  0.46614  0.99097  0.46014  1.0000
  C   C111      1.0  0.44974  0.34762  0.06574  1.0000
  C   C112      1.0  0.50109  0.94979  0.04840  1.0000
  H   H125      1.0  0.18198  0.31940  0.47164  1.0000
  H   H126      1.0  0.26919  0.39241  0.44884  1.0000
  H   H127      1.0  0.20900  0.23551  0.30164  1.0000
  H   H128      1.0  0.52695  0.10299  0.40977  1.0000
  C   C113      1.0  0.53282  0.08127  0.42778  1.0000
  H   H129      1.0  0.14064  0.34604  0.32317  1.0000
  C   C114      1.0  0.36583  0.10669  0.22166  1.0000
  H   H130      1.0  0.56888  0.99246  0.30554  1.0000
  N   N6        1.0  0.58083  0.08137  0.14443  1.0000
  C   C115      1.0  0.24363  0.95106  0.13250  1.0000
  C   C116      1.0  0.40239  0.95251  0.37809  1.0000
  S   S26       1.0  0.51849  0.15452  0.30366  1.0000
  S   S27       1.0  0.37397  0.04504  0.33363  1.0000
  C   C117      1.0  0.49425  0.96973  0.00109  1.0000
  N   N7        1.0  0.13139  0.11228  0.40125  1.0000
  C   C118      1.0  0.20955  0.37445  0.17440  1.0000
  C   C119      1.0  0.38509  0.00949  0.34881  1.0000
  Fe  Fe13      1.0  0.50619  0.10217  0.30913  1.0000
  C   C120      1.0  0.43082  0.98323  0.35234  1.0000
  C   C121      1.0  0.33944  0.20098  0.12889  1.0000
  C   C122      1.0  0.26496  0.30774  0.41336  1.0000
  H   H131      1.0  0.41660  0.17828  0.44737  1.0000
  H   H132      1.0  0.24649  0.11081  0.33618  1.0000
  S   S28       1.0  0.54825  0.07829  0.31422  1.0000
  S   S29       1.0  0.46407  0.91681  0.10027  1.0000
  C   C123      1.0  0.37567  0.95739  0.21636  1.0000
  H   H133      1.0  0.35435  0.99029  0.16342  1.0000
  C   C124      1.0  0.57230  0.03246  0.23213  1.0000
  N   N8        1.0  0.41460  0.97351  0.17855  1.0000
  S   S30       1.0  0.24669  0.07556  0.12299  1.0000
  C   C125      1.0  0.52323  0.26359  0.13364  1.0000
  C   C126      1.0  0.11781  0.20117  0.09446  1.0000
  H   H134      1.0  0.29871  0.17835  0.08825  1.0000
  C   C127      1.0  0.42404  0.25726  0.13912  1.0000
  H   H135      1.0  0.20229  0.20284  0.48520  1.0000
  H   H136      1.0  0.37305  0.08262  0.06199  1.0000
  H   H137      1.0  0.27164  0.17081  0.31663  1.0000
  C   C128      1.0  0.16852  0.30170  0.37332  1.0000
  Fe  Fe14      1.0  0.19749  0.05337  0.20272  1.0000
  H   H138      1.0  0.33673  0.97671  0.07156  1.0000
  H   H139      1.0  0.25294  0.28445  0.34714  1.0000
  H   H140      1.0  0.56815  0.20650  0.09327  1.0000
  H   H141      1.0  0.56758  0.21569  0.18576  1.0000
  C   C129      1.0  0.52188  0.36023  0.42676  1.0000
  C   C130      1.0  0.44035  0.95844  0.20083  1.0000
  S   S31       1.0  0.26223  0.30921  0.15733  1.0000
  H   H142      1.0  0.47601  0.21174  0.27335  1.0000
  H   H143      1.0  0.33573  0.04401  0.23481  1.0000
  H   H144      1.0  0.51219  0.92398  0.25586  1.0000
  H   H145      1.0  0.29043  0.96508  0.22643  1.0000
  C   C131      1.0  0.32909  0.09400  0.15609  1.0000
  C   C132      1.0  0.54556  0.18533  0.46308  1.0000
  H   H146      1.0  0.42499  0.01097  0.22103  1.0000
  H   H147      1.0  0.34144  0.35382  0.15367  1.0000
  H   H148      1.0  0.38293  0.91820  0.28222  1.0000
  C   C133      1.0  0.35951  0.05781  0.19405  1.0000
  S   S32       1.0  0.17872  0.33358  0.20846  1.0000
  C   C134      1.0  0.37707  0.21047  0.13041  1.0000
  C   C135      1.0  0.11379  0.18677  0.15486  1.0000
  S   S33       1.0  0.20818  0.30935  0.06924  1.0000
  Fe  Fe15      1.0  0.24556  0.25527  0.17143  1.0000
  C   C136      1.0  0.23715  0.38294  0.12112  1.0000
  C   C137      1.0  0.28081  0.97199  0.11086  1.0000
  Fe  Fe16      1.0  0.15824  0.00040  0.15350  1.0000
  H   H149      1.0  0.43350  0.27183  0.16847  1.0000
  H   H150      1.0  0.32367  0.98029  0.48068  1.0000
  H   H151      1.0  0.46643  0.96427  0.99620  1.0000
  H   H152      1.0  0.58833  0.09475  0.04966  1.0000
  H   H153      1.0  0.14055  0.40888  0.05816  1.0000
  H   H154      1.0  0.14474  0.17162  0.00025  1.0000
  H   H155      1.0  0.37136  0.40847  0.15634  1.0000
  H   H156      1.0  0.11002  0.01112  0.04509  1.0000
  C   C138      1.0  0.59494  0.06314  0.18871  1.0000
  C   C139      1.0  0.41713  0.19733  0.46983  1.0000
  H   H157      1.0  0.38267  0.38768  0.99115  1.0000
  C   C140      1.0  0.10893  0.09447  0.46384  1.0000
  H   H158      1.0  0.23954  0.94821  0.98995  1.0000
  H   H159      1.0  0.44620  0.20892  0.47065  1.0000
  H   H160      1.0  0.10747  0.07034  0.37408  1.0000
  C   C141      1.0  0.15431  0.95638  0.47088  1.0000
  S   S34       1.0  0.10607  0.95693  0.17308  1.0000
  H   H161      1.0  0.40769  0.99782  0.46741  1.0000
  S   S35       1.0  0.44790  0.34003  0.48666  1.0000
  H   H162      1.0  0.36874  0.23463  0.48791  1.0000
  H   H163      1.0  0.59048  0.35278  0.84144  1.0000
  H   H164      1.0  0.58024  0.19437  0.88621  1.0000
  C   C142      1.0  0.56221  0.35365  0.98324  1.0000
  C   C143      1.0  0.55297  0.25459  0.71109  1.0000
  H   H165      1.0  0.13157  0.27861  0.79413  1.0000
  H   H166      1.0  0.46752  0.12773  0.76254  1.0000
  H   H167      1.0  0.27689  0.19952  0.63616  1.0000
  H   H168      1.0  0.55592  0.36288  0.68491  1.0000
  C   C144      1.0  0.46029  0.37176  0.72921  1.0000
  S   S36       1.0  0.20749  0.08299  0.67523  1.0000
  C   C145      1.0  0.28680  0.09873  0.97258  1.0000
  Fe  Fe17      1.0  0.41081  0.27439  0.82294  1.0000
  C   C146      1.0  0.25889  0.21158  0.96801  1.0000
  C   C147      1.0  0.49419  0.28918  0.54729  1.0000
  H   H169      1.0  0.23015  0.05406  0.93821  1.0000
  S   S37       1.0  0.21183  0.13784  0.52295  1.0000
  S   S38       1.0  0.58582  0.16550  0.71811  1.0000
  Fe  Fe18      1.0  0.55681  0.13117  0.81044  1.0000
  C   C148      1.0  0.15433  0.02414  0.96532  1.0000
  C   C149      1.0  0.10566  0.15424  0.54622  1.0000
  H   H170      1.0  0.52928  0.30770  0.87470  1.0000
  S   S39       1.0  0.27851  0.09311  0.56688  1.0000
  C   C150      1.0  0.27899  0.23366  0.86094  1.0000
  H   H171      1.0  0.17604  0.22828  0.84696  1.0000
  H   H172      1.0  0.34413  0.18722  0.86882  1.0000
  C   C151      1.0  0.52634  0.22310  0.73749  1.0000
  S   S40       1.0  0.24139  0.02451  0.67664  1.0000
  H   H173      1.0  0.36059  0.36296  0.78199  1.0000
  C   C152      1.0  0.09950  0.20653  0.54118  1.0000
  C   C153      1.0  0.41149  0.14682  0.74348  1.0000
  C   C154      1.0  0.40128  0.21297  0.60763  1.0000
  H   H174      1.0  0.11576  0.32146  0.70286  1.0000
  H   H175      1.0  0.49781  0.21967  0.75726  1.0000
  H   H176      1.0  0.16848  0.41148  0.66248  1.0000
  H   H177      1.0  0.56857  0.03827  0.69007  1.0000
  Fe  Fe19      1.0  0.18685  0.03086  0.67713  1.0000
  S   S41       1.0  0.53988  0.28832  0.71169  1.0000
  S   S42       1.0  0.22001  0.10739  0.98208  1.0000
  C   C155      1.0  0.38993  0.21017  0.55587  1.0000
  C   C156      1.0  0.35129  0.38872  0.56832  1.0000
  H   H178      1.0  0.59026  0.31455  0.59725  1.0000
  C   C157      1.0  0.53816  0.32067  0.90489  1.0000
  H   H179      1.0  0.21072  0.92227  0.74509  1.0000
  H   H180      1.0  0.21873  0.34304  0.93914  1.0000
  C   C158      1.0  0.15637  0.39761  0.71096  1.0000
  H   H181      1.0  0.23522  0.01679  0.93073  1.0000
  H   H182      1.0  0.12127  0.38983  0.57401  1.0000
  H   H183      1.0  0.33952  0.09291  0.96966  1.0000
  H   H184      1.0  0.30242  0.96180  0.78169  1.0000
  S   S43       1.0  0.58793  0.91823  0.66738  1.0000
  C   C159      1.0  0.48544  0.91851  0.90769  1.0000
  H   H185      1.0  0.16939  0.04658  0.97257  1.0000
  H   H186      1.0  0.44813  0.37941  0.89950  1.0000
  H   H187      1.0  0.36825  0.33569  0.61399  1.0000
  H   H188      1.0  0.50651  0.92400  0.93241  1.0000
  Fe  Fe20      1.0  0.22124  0.09449  0.57619  1.0000
  C   C160      1.0  0.52250  0.38148  0.73923  1.0000
  H   H189      1.0  0.43908  0.16388  0.71326  1.0000
  H   H190      1.0  0.18250  0.40583  0.83218  1.0000
  S   S44       1.0  0.47863  0.23302  0.87240  1.0000
  H   H191      1.0  0.24988  0.95590  0.74077  1.0000
  H   H192      1.0  0.23870  0.35437  0.55083  1.0000
  H   H193      1.0  0.38268  0.34863  0.67368  1.0000
  N   N9        1.0  0.47819  0.39818  0.80623  1.0000
  S   S45       1.0  0.30870  0.35768  0.98646  1.0000
  S   S46       1.0  0.59241  0.12811  0.87183  1.0000
  H   H194      1.0  0.33391  0.20039  0.77141  1.0000
  C   C161      1.0  0.16909  0.01506  0.91607  1.0000
  Fe  Fe21      1.0  0.18257  0.24306  0.68915  1.0000
  H   H195      1.0  0.46253  0.04069  0.82544  1.0000
  H   H196      1.0  0.25191  0.30183  0.80476  1.0000
  H   H197      1.0  0.13060  0.19971  0.88794  1.0000
  H   H198      1.0  0.37070  0.06608  0.82246  1.0000
  C   C162      1.0  0.23390  0.93196  0.91334  1.0000
  C   C163      1.0  0.20465  0.06890  0.84487  1.0000
  H   H199      1.0  0.14786  0.35714  0.64360  1.0000
  C   C164      1.0  0.53870  0.04341  0.51216  1.0000
  C   C165      1.0  0.38820  0.26280  0.60063  1.0000
  H   H200      1.0  0.39000  0.14907  0.72036  1.0000
  S   S47       1.0  0.53122  0.07680  0.83185  1.0000
  H   H201      1.0  0.52794  0.40500  0.83598  1.0000
  Fe  Fe22      1.0  0.45560  0.26547  0.91194  1.0000
  C   C166      1.0  0.37389  0.09239  0.80795  1.0000
  H   H202      1.0  0.50748  0.34093  0.63848  1.0000
  S   S48       1.0  0.53514  0.03088  0.58811  1.0000
  H   H203      1.0  0.44532  0.99291  0.78889  1.0000
  N   N10       1.0  0.37644  0.38632  0.60668  1.0000
  C   C167      1.0  0.57320  0.19992  0.71262  1.0000
  H   H204      1.0  0.31441  0.92099  0.51593  1.0000
  H   H205      1.0  0.19776  0.02019  0.79810  1.0000
  H   H206      1.0  0.33593  0.34102  0.67016  1.0000
  H   H207      1.0  0.23830  0.22242  0.81521  1.0000
  S   S49       1.0  0.46758  0.30269  0.82451  1.0000
  C   C168      1.0  0.39593  0.97789  0.51091  1.0000
  C   C169      1.0  0.37203  0.92868  0.62408  1.0000
  H   H208      1.0  0.41612  0.01338  0.58266  1.0000
  C   C170      1.0  0.41441  0.39647  0.56650  1.0000
  C   C171      1.0  0.25837  0.39061  0.59345  1.0000
  H   H209      1.0  0.32162  0.37719  0.59414  1.0000
  H   H210      1.0  0.20617  0.91487  0.93750  1.0000
  C   C172      1.0  0.42811  0.99276  0.82990  1.0000
  H   H211      1.0  0.58757  0.26279  0.57181  1.0000
  H   H212      1.0  0.13118  0.36192  0.91407  1.0000
  H   H213      1.0  0.18853  0.18398  0.81625  1.0000
  H   H214      1.0  0.47269  0.13446  0.66761  1.0000
  H   H215      1.0  0.41105  0.19552  0.63199  1.0000
  C   C173      1.0  0.45423  0.10732  0.61105  1.0000
  H   H216      1.0  0.42625  0.11107  0.97440  1.0000
  H   H217      1.0  0.46143  0.01126  0.57410  1.0000
  H   H218      1.0  0.16447  0.96299  0.50662  1.0000
  H   H219      1.0  0.13149  0.18726  0.62065  1.0000
  C   C174      1.0  0.43799  0.01973  0.85082  1.0000
  H   H220      1.0  0.40363  0.13911  0.54567  1.0000
  C   C175      1.0  0.18886  0.30319  0.87925  1.0000
  C   C176      1.0  0.37367  0.40638  0.64701  1.0000
  H   H221      1.0  0.30121  0.24765  0.82005  1.0000
  C   C177      1.0  0.58664  0.92746  0.90854  1.0000
  C   C178      1.0  0.25045  0.95618  0.60247  1.0000
  C   C179      1.0  0.30584  0.97740  0.85777  1.0000
  H   H222      1.0  0.51604  0.17162  0.75994  1.0000
  H   H223      1.0  0.48073  0.11877  0.57705  1.0000
  H   H224      1.0  0.47881  0.97342  0.52382  1.0000
  C   C180      1.0  0.34047  0.31699  0.94953  1.0000
  H   H225      1.0  0.25763  0.20612  0.49822  1.0000
  H   H226      1.0  0.38471  0.95463  0.50066  1.0000
  H   H227      1.0  0.21930  0.95338  0.49583  1.0000
  H   H228      1.0  0.57647  0.27691  0.93329  1.0000
  C   C181      1.0  0.32067  0.18775  0.74381  1.0000
  C   C182      1.0  0.57298  0.34603  0.88618  1.0000
  H   H229      1.0  0.31378  0.38247  0.68607  1.0000
  H   H230      1.0  0.54466  0.38978  0.75870  1.0000
  H   H231      1.0  0.57677  0.04403  0.75712  1.0000
  H   H232      1.0  0.37189  0.10017  0.84877  1.0000
  H   H233      1.0  0.34865  0.94448  0.93971  1.0000
  S   S50       1.0  0.28296  0.01778  0.52008  1.0000
  C   C183      1.0  0.50220  0.35363  0.67024  1.0000
  H   H234      1.0  0.57126  0.92989  0.95005  1.0000
  C   C184      1.0  0.32817  0.16244  0.89743  1.0000
  H   H235      1.0  0.37258  0.98273  0.53656  1.0000
  H   H236      1.0  0.23204  0.96568  0.62593  1.0000
  H   H237      1.0  0.51777  0.01271  0.92431  1.0000
  C   C185      1.0  0.39610  0.96554  0.86226  1.0000
  Fe  Fe23      1.0  0.54526  0.12738  0.94133  1.0000
  C   C186      1.0  0.41482  0.10166  0.70832  1.0000
  Fe  Fe24      1.0  0.55435  0.98883  0.61189  1.0000
  H   H238      1.0  0.16702  0.29666  0.97367  1.0000
  C   C187      1.0  0.41543  0.01973  0.90330  1.0000
  Fe  Fe25      1.0  0.25252  0.03976  0.57759  1.0000
  C   C188      1.0  0.40965  0.95055  0.60183  1.0000
  H   H239      1.0  0.17902  0.39144  0.72695  1.0000
  N   N11       1.0  0.20578  0.03631  0.87365  1.0000
  H   H240      1.0  0.19975  0.08217  0.87741  1.0000
  H   H241      1.0  0.43540  0.11741  0.83291  1.0000
  C   C189      1.0  0.14897  0.19425  0.57404  1.0000
  H   H242      1.0  0.36281  0.28377  0.91957  1.0000
  C   C190      1.0  0.14973  0.15988  0.96520  1.0000
  C   C191      1.0  0.28707  0.22964  0.91542  1.0000
  H   H243      1.0  0.32999  0.14340  0.78066  1.0000
  H   H244      1.0  0.33529  0.38509  0.85905  1.0000
  H   H245      1.0  0.20529  0.94771  0.79054  1.0000
  S   S51       1.0  0.51843  0.07310  0.97267  1.0000
  H   H246      1.0  0.57986  0.09899  0.65863  1.0000
  C   C192      1.0  0.12307  0.27866  0.93695  1.0000
  C   C193      1.0  0.15947  0.21009  0.89108  1.0000
  H   H247      1.0  0.43253  0.37185  0.74192  1.0000
  C   C194      1.0  0.28762  0.95810  0.82691  1.0000
  C   C195      1.0  0.17538  0.16693  0.86244  1.0000
  H   H248      1.0  0.36743  0.05341  0.63594  1.0000
  N   N12       1.0  0.22851  0.31626  0.87781  1.0000
  H   H249      1.0  0.13035  0.34685  0.80707  1.0000
  H   H250      1.0  0.43476  0.39363  0.59183  1.0000
  S   S52       1.0  0.54284  0.96279  0.70858  1.0000
  C   C196      1.0  0.55910  0.00470  0.96736  1.0000
  C   C197      1.0  0.25476  0.32407  0.81866  1.0000
  H   H251      1.0  0.26685  0.29986  0.91910  1.0000
  Fe  Fe26      1.0  0.48823  0.08045  0.90359  1.0000
  H   H252      1.0  0.43215  0.35352  0.85616  1.0000
  C   C198      1.0  0.53657  0.19582  0.73879  1.0000
  C   C199      1.0  0.35628  0.30543  0.90603  1.0000
  H   H253      1.0  0.31538  0.23996  0.91664  1.0000
  C   C200      1.0  0.38536  0.07873  0.69691  1.0000
  H   H254      1.0  0.44604  0.34554  0.66766  1.0000
  S   S53       1.0  0.18804  0.28827  0.61958  1.0000
  H   H255      1.0  0.42868  0.07891  0.55990  1.0000
  H   H256      1.0  0.15550  0.97612  0.87409  1.0000
  H   H257      1.0  0.22152  0.28731  0.96755  1.0000
  C   C201      1.0  0.40350  0.15888  0.56610  1.0000
  C   C202      1.0  0.58473  0.36293  0.92511  1.0000
  C   C203      1.0  0.23631  0.34674  0.89438  1.0000
  C   C204      1.0  0.11273  0.96558  0.95155  1.0000
  H   H258      1.0  0.10214  0.27106  0.97918  1.0000
  S   S54       1.0  0.30770  0.24364  0.69947  1.0000
  C   C205      1.0  0.14704  0.98513  0.91017  1.0000
  H   H259      1.0  0.38454  0.14670  0.61217  1.0000
  S   S55       1.0  0.53635  0.94264  0.58753  1.0000
  H   H260      1.0  0.14675  0.15292  0.86253  1.0000
  H   H261      1.0  0.19641  0.30701  0.78483  1.0000
  C   C206      1.0  0.13738  0.34592  0.69295  1.0000
  H   H262      1.0  0.11774  0.05784  0.60017  1.0000
  C   C207      1.0  0.21340  0.19957  0.91136  1.0000
  S   S56       1.0  0.39486  0.15475  0.89868  1.0000
  N   N13       1.0  0.42420  0.97680  0.54365  1.0000
  C   C208      1.0  0.22431  0.93614  0.77218  1.0000
  C   C209      1.0  0.58979  0.25882  0.68504  1.0000
  C   C210      1.0  0.52329  0.99715  0.96046  1.0000
  N   N14       1.0  0.12370  0.36779  0.72119  1.0000
  C   C211      1.0  0.15319  0.92315  0.68679  1.0000
  C   C212      1.0  0.58609  0.27076  0.97228  1.0000
  H   H263      1.0  0.16744  0.22035  0.56151  1.0000
  C   C213      1.0  0.28918  0.15140  0.91442  1.0000
  S   S57       1.0  0.24127  0.36244  0.66527  1.0000
  C   C214      1.0  0.34104  0.36276  0.87216  1.0000
  H   H264      1.0  0.33405  0.99461  0.83668  1.0000
  H   H265      1.0  0.53559  0.31096  0.58464  1.0000
  C   C215      1.0  0.40011  0.23886  0.62961  1.0000
  C   C216      1.0  0.12240  0.93015  0.79565  1.0000
  C   C217      1.0  0.48748  0.38482  0.75702  1.0000
  H   H266      1.0  0.28411  0.33407  0.81930  1.0000
  H   H267      1.0  0.25093  0.34305  0.78393  1.0000
  Fe  Fe27      1.0  0.48640  0.26860  0.78414  1.0000
  H   H268      1.0  0.35783  0.06729  0.72754  1.0000
  C   C218      1.0  0.38298  0.99282  0.93460  1.0000
  H   H269      1.0  0.23141  0.08521  0.81096  1.0000
  H   H270      1.0  0.27512  0.16747  0.89842  1.0000
  S   S58       1.0  0.22149  0.22876  0.62993  1.0000
  S   S59       1.0  0.37789  0.30470  0.79143  1.0000
  C   C219      1.0  0.24542  0.92280  0.62257  1.0000
  C   C220      1.0  0.42488  0.08473  0.60137  1.0000
  C   C221      1.0  0.52952  0.36613  0.69644  1.0000
  C   C222      1.0  0.32558  0.10932  0.95415  1.0000
  H   H271      1.0  0.44034  0.08565  0.80256  1.0000
  C   C223      1.0  0.16049  0.29346  0.93328  1.0000
  Fe  Fe28      1.0  0.42085  0.20941  0.86754  1.0000
  H   H272      1.0  0.15855  0.22356  0.92436  1.0000
  C   C224      1.0  0.39049  0.07051  0.64412  1.0000
  H   H273      1.0  0.16570  0.92067  0.64485  1.0000
  C   C225      1.0  0.10429  0.06594  0.56716  1.0000
  S   S60       1.0  0.22600  0.26971  0.72520  1.0000
  N   N15       1.0  0.12645  0.18970  0.53149  1.0000
  S   S61       1.0  0.19615  0.04237  0.57828  1.0000
  H   H274      1.0  0.26548  0.35676  0.89594  1.0000
  C   C226      1.0  0.29666  0.93073  0.54023  1.0000
  H   H275      1.0  0.45715  0.26798  0.50066  1.0000
  H   H276      1.0  0.34979  0.09494  0.79218  1.0000
  C   C227      1.0  0.22250  0.19689  0.96637  1.0000
  H   H277      1.0  0.16105  0.14057  0.98159  1.0000
  Fe  Fe29      1.0  0.56341  0.07422  0.89895  1.0000
  S   S62       1.0  0.39704  0.23926  0.91423  1.0000
  H   H278      1.0  0.19043  0.14957  0.87037  1.0000
  C   C228      1.0  0.45730  0.37065  0.86177  1.0000
  H   H279      1.0  0.49986  0.92591  0.85952  1.0000
  N   N16       1.0  0.40979  0.11247  0.76190  1.0000
  C   C229      1.0  0.28802  0.18720  0.66822  1.0000
  H   H280      1.0  0.34240  0.18147  0.50055  1.0000
  H   H281      1.0  0.21980  0.99859  0.84444  1.0000
  C   C230      1.0  0.28631  0.15510  0.67262  1.0000
  C   C231      1.0  0.30512  0.20352  0.70398  1.0000
  S   S63       1.0  0.12852  0.20970  0.75407  1.0000
  H   H282      1.0  0.22913  0.26784  0.91241  1.0000
  H   H283      1.0  0.35181  0.92976  0.59974  1.0000
  H   H284      1.0  0.09754  0.93650  0.52540  1.0000
  C   C232      1.0  0.37368  0.96538  0.91493  1.0000
  H   H285      1.0  0.16074  0.34121  0.70865  1.0000
  C   C233      1.0  0.17714  0.29882  0.82840  1.0000
  H   H286      1.0  0.24525  0.03916  0.79499  1.0000
  C   C234      1.0  0.44934  0.11596  0.66334  1.0000
  C   C235      1.0  0.13567  0.95677  0.74353  1.0000
  C   C236      1.0  0.15972  0.36729  0.98122  1.0000
  C   C237      1.0  0.46768  0.35646  0.68649  1.0000
  C   C238      1.0  0.25258  0.95123  0.94397  1.0000
  C   C239      1.0  0.36217  0.32118  0.84570  1.0000
  H   H287      1.0  0.46957  0.93517  0.91114  1.0000
  C   C240      1.0  0.35525  0.35026  0.82868  1.0000
  S   S64       1.0  0.38399  0.93190  0.83652  1.0000
  N   N17       1.0  0.17514  0.18424  0.90797  1.0000
  C   C241      1.0  0.13969  0.28319  0.83285  1.0000
  H   H288      1.0  0.36518  0.99323  0.97415  1.0000
  C   C242      1.0  0.26847  0.11989  0.95358  1.0000
  C   C243      1.0  0.23472  0.04080  0.90573  1.0000
  Fe  Fe30      1.0  0.26309  0.07810  0.66616  1.0000
  H   H289      1.0  0.59404  0.10373  0.72341  1.0000
  C   C244      1.0  0.15611  0.37521  0.92334  1.0000
  Fe  Fe31      1.0  0.59611  0.94720  0.57304  1.0000
  H   H290      1.0  0.09682  0.36665  0.80857  1.0000
  H   H291      1.0  0.33368  0.15409  0.57270  1.0000
  H   H292      1.0  0.16102  0.97369  0.64871  1.0000
  C   C245      1.0  0.24277  0.21890  0.85873  1.0000
  H   H293      1.0  0.43245  0.17010  0.56786  1.0000
  S   S65       1.0  0.51170  0.13526  0.87764  1.0000
  C   C246      1.0  0.51542  0.31188  0.96292  1.0000
  H   H294      1.0  0.23170  0.36601  0.86162  1.0000
  H   H295      1.0  0.47454  0.35609  0.87536  1.0000
  C   C247      1.0  0.31877  0.15561  0.74853  1.0000
  C   C248      1.0  0.10854  0.35131  0.78634  1.0000
  H   H296      1.0  0.43885  0.91916  0.72095  1.0000
  H   H297      1.0  0.46224  0.96224  0.62492  1.0000
  H   H298      1.0  0.40639  0.15584  0.78231  1.0000
  H   H299      1.0  0.30301  0.98817  0.94075  1.0000
  C   C249      1.0  0.21752  0.02281  0.82580  1.0000
  H   H300      1.0  0.40794  0.24027  0.66986  1.0000
  C   C250      1.0  0.23687  0.29182  0.92096  1.0000
  Fe  Fe32      1.0  0.52957  0.91701  0.68287  1.0000
  S   S66       1.0  0.13546  0.99511  0.74624  1.0000
  C   C251      1.0  0.11272  0.27292  0.88713  1.0000
  S   S67       1.0  0.42697  0.05318  0.93020  1.0000
  Fe  Fe33      1.0  0.23481  0.31397  0.65110  1.0000
  H   H301      1.0  0.27344  0.14291  0.64424  1.0000
  H   H302      1.0  0.26291  0.05574  0.87472  1.0000
  C   C252      1.0  0.25129  0.93431  0.85407  1.0000
  H   H303      1.0  0.42636  0.40332  0.79513  1.0000
  C   C253      1.0  0.15080  0.95322  0.68910  1.0000
  C   C254      1.0  0.28845  0.97380  0.91632  1.0000
  C   C255      1.0  0.43337  0.94641  0.63845  1.0000
  C   C256      1.0  0.30191  0.13935  0.71250  1.0000
  H   H304      1.0  0.51984  0.08326  0.51753  1.0000
  S   S68       1.0  0.27865  0.30568  0.58877  1.0000
  C   C257      1.0  0.53093  0.30078  0.54928  1.0000
  C   C258      1.0  0.12241  0.40063  0.52839  1.0000
  Fe  Fe34      1.0  0.26587  0.25887  0.66098  1.0000
  H   H305      1.0  0.53874  0.16576  0.50407  1.0000
  C   C259      1.0  0.36536  0.35151  0.64261  1.0000
  C   C260      1.0  0.33225  0.34532  0.93257  1.0000
  S   S69       1.0  0.43032  0.24243  0.77572  1.0000
  H   H306      1.0  0.18227  0.06653  0.82209  1.0000
  H   H307      1.0  0.11683  0.23564  0.64114  1.0000
  H   H308      1.0  0.38703  0.28263  0.61825  1.0000
  S   S70       1.0  0.30097  0.09956  0.71686  1.0000
  C   C261      1.0  0.34633  0.14138  0.91754  1.0000
  C   C262      1.0  0.43962  0.11080  0.79084  1.0000
  C   C263      1.0  0.27845  0.97682  0.55073  1.0000
  H   H309      1.0  0.12511  0.14080  0.54047  1.0000
  H   H310      1.0  0.47247  0.29171  0.57903  1.0000
  H   H311      1.0  0.28209  0.91644  0.75864  1.0000
  C   C264      1.0  0.43840  0.00912  0.55303  1.0000
  C   C265      1.0  0.37678  0.26074  0.54999  1.0000
  C   C266      1.0  0.37763  0.23492  0.52769  1.0000
  H   H312      1.0  0.36715  0.27931  0.52810  1.0000
  H   H313      1.0  0.16645  0.17874  0.57600  1.0000
  C   C267      1.0  0.25437  0.37965  0.54446  1.0000
  H   H314      1.0  0.12175  0.14750  0.96077  1.0000
  H   H315      1.0  0.41551  0.38129  0.53617  1.0000
  H   H316      1.0  0.55942  0.00664  0.49231  1.0000
  Fe  Fe35      1.0  0.23087  0.27653  0.56225  1.0000
  H   H317      1.0  0.48717  0.37515  0.55345  1.0000
  H   H318      1.0  0.55435  0.40391  0.53852  1.0000
  S   S71       1.0  0.59417  0.04078  0.92027  1.0000
  N   N18       1.0  0.39118  0.18338  0.53071  1.0000
  C   C268      1.0  0.42033  0.92184  0.69351  1.0000
  C   C269      1.0  0.56021  0.29927  0.50644  1.0000
  H   H319      1.0  0.44947  0.02954  0.51020  1.0000
  C   C270      1.0  0.18505  0.40003  0.87708  1.0000
  H   H320      1.0  0.15434  0.08551  0.49700  1.0000
  C   C271      1.0  0.22067  0.40974  0.94710  1.0000
  C   C272      1.0  0.30189  0.96415  0.52036  1.0000
  C   C273      1.0  0.45495  0.97197  0.50480  1.0000
  C   C274      1.0  0.12519  0.08224  0.50777  1.0000
  H   H321      1.0  0.44536  0.94761  0.49752  1.0000
  C   C275      1.0  0.50741  0.37544  0.51587  1.0000
  C   C276      1.0  0.59104  0.04490  0.71199  1.0000
  C   C277      1.0  0.35369  0.16542  0.52758  1.0000
  H   H322      1.0  0.11382  0.23362  0.52418  1.0000
  C   C278      1.0  0.54532  0.39181  0.50732  1.0000
  H   H323      1.0  0.35469  0.37594  0.53434  1.0000
  H   H324      1.0  0.11049  0.93275  0.83782  1.0000
  C   C279      1.0  0.33877  0.40100  0.68572  1.0000
  C   C280      1.0  0.48547  0.27569  0.50313  1.0000
  H   H325      1.0  0.35372  0.14572  0.50696  1.0000
  H   H326      1.0  0.14889  0.41401  0.73531  1.0000
  C   C281      1.0  0.52930  0.07040  0.48875  1.0000
  H   H327      1.0  0.48190  0.15407  0.97761  1.0000
  S   S72       1.0  0.47111  0.28140  0.98744  1.0000
  C   C282      1.0  0.17962  0.59714  0.19097  1.0000
  H   H328      1.0  0.22996  0.66972  0.07862  1.0000
  C   C283      1.0  0.49953  0.73164  0.05789  1.0000
  H   H329      1.0  0.44720  0.48910  0.03217  1.0000
  S   S73       1.0  0.28890  0.76672  0.44221  1.0000
  H   H330      1.0  0.51845  0.66365  0.11976  1.0000
  C   C284      1.0  0.36166  0.62316  0.30374  1.0000
  C   C285      1.0  0.37971  0.41837  0.10687  1.0000
  H   H331      1.0  0.35676  0.62050  0.26232  1.0000
  C   C286      1.0  0.58792  0.58775  0.02246  1.0000
  H   H332      1.0  0.31678  0.48740  0.21728  1.0000
  H   H333      1.0  0.36664  0.41859  0.00535  1.0000
  S   S74       1.0  0.53721  0.87862  0.32646  1.0000
  S   S75       1.0  0.46908  0.83221  0.14282  1.0000
  C   C287      1.0  0.26618  0.41590  0.32075  1.0000
  C   C288      1.0  0.57614  0.59607  0.44224  1.0000
  S   S76       1.0  0.29938  0.60930  0.46800  1.0000
  H   H334      1.0  0.54332  0.71153  0.30685  1.0000
  C   C289      1.0  0.51453  0.60505  0.20258  1.0000
  Fe  Fe36      1.0  0.39659  0.54585  0.47687  1.0000
  C   C290      1.0  0.34008  0.87881  0.18275  1.0000
  C   C291      1.0  0.16657  0.79568  0.14404  1.0000
  H   H335      1.0  0.16089  0.74286  0.11897  1.0000
  N   N19       1.0  0.14927  0.80323  0.09529  1.0000
  Fe  Fe37      1.0  0.52198  0.83154  0.16338  1.0000
  C   C292      1.0  0.11108  0.75542  0.99603  1.0000
  C   C293      1.0  0.13938  0.41738  0.09811  1.0000
  H   H336      1.0  0.19339  0.79267  0.12762  1.0000
  Fe  Fe38      1.0  0.16823  0.56430  0.47142  1.0000
  C   C294      1.0  0.36538  0.53984  0.11790  1.0000
  H   H337      1.0  0.29608  0.73559  0.11122  1.0000
  H   H338      1.0  0.10108  0.54531  0.25659  1.0000
  H   H339      1.0  0.47986  0.84962  0.44203  1.0000
  C   C295      1.0  0.39557  0.70689  0.33371  1.0000
  H   H340      1.0  0.22927  0.44983  0.19319  1.0000
  H   H341      1.0  0.23817  0.43614  0.37900  1.0000
  H   H342      1.0  0.12801  0.46144  0.01206  1.0000
  S   S77       1.0  0.58614  0.76421  0.46474  1.0000
  H   H343      1.0  0.45789  0.87959  0.02385  1.0000
  H   H344      1.0  0.45458  0.72472  0.13237  1.0000
  C   C296      1.0  0.23554  0.79350  0.30749  1.0000
  C   C297      1.0  0.46193  0.71717  0.36541  1.0000
  C   C298      1.0  0.57671  0.58635  0.34803  1.0000
  C   C299      1.0  0.58154  0.50544  0.29712  1.0000
  N   N20       1.0  0.56988  0.47077  0.29836  1.0000
  C   C300      1.0  0.34423  0.79090  0.12845  1.0000
  S   S78       1.0  0.53699  0.88214  0.16958  1.0000
  C   C301      1.0  0.26082  0.41556  0.09253  1.0000
  H   H345      1.0  0.21507  0.51647  0.18959  1.0000
  C   C302      1.0  0.48310  0.73909  0.10706  1.0000
  S   S79       1.0  0.56427  0.81929  0.10583  1.0000
  H   H346      1.0  0.31071  0.64612  0.06963  1.0000
  C   C303      1.0  0.54022  0.63479  0.37301  1.0000
  C   C304      1.0  0.39639  0.62612  0.31322  1.0000
  C   C305      1.0  0.37192  0.74557  0.43826  1.0000
  C   C306      1.0  0.28488  0.71957  0.08527  1.0000
  C   C307      1.0  0.37509  0.66786  0.14186  1.0000
  H   H347      1.0  0.37752  0.76436  0.39482  1.0000
  H   H348      1.0  0.30455  0.61522  0.34450  1.0000
  C   C308      1.0  0.24180  0.74400  0.45553  1.0000
  C   C309      1.0  0.19023  0.49812  0.18853  1.0000
  C   C310      1.0  0.19111  0.46519  0.03630  1.0000
  C   C311      1.0  0.15062  0.85231  0.39016  1.0000
  Fe  Fe39      1.0  0.28478  0.86003  0.03189  1.0000
  S   S80       1.0  0.24839  0.86694  0.10705  1.0000
  C   C312      1.0  0.26079  0.90786  0.10530  1.0000
  H   H349      1.0  0.54822  0.82913  0.44335  1.0000
  H   H350      1.0  0.25307  0.72278  0.38579  1.0000
  C   C313      1.0  0.32379  0.65818  0.09795  1.0000
  H   H351      1.0  0.20570  0.78067  0.33316  1.0000
  C   C314      1.0  0.18280  0.58698  0.24873  1.0000
  C   C315      1.0  0.51015  0.46740  0.27159  1.0000
  H   H352      1.0  0.51684  0.55766  0.02691  1.0000
  H   H353      1.0  0.25321  0.85562  0.36765  1.0000
  C   C316      1.0  0.42206  0.58632  0.06359  1.0000
  H   H354      1.0  0.50919  0.81369  0.41628  1.0000
  H   H355      1.0  0.37185  0.83549  0.28252  1.0000
  H   H356      1.0  0.14111  0.63215  0.31117  1.0000
  H   H357      1.0  0.54549  0.58453  0.45735  1.0000
  C   C317      1.0  0.56678  0.59985  0.13933  1.0000
  N   N21       1.0  0.32627  0.53706  0.21816  1.0000
  H   H358      1.0  0.34820  0.74697  0.46981  1.0000
  H   H359      1.0  0.45877  0.46144  0.24815  1.0000
  H   H360      1.0  0.34957  0.89625  0.13843  1.0000
  H   H361      1.0  0.40042  0.66417  0.14777  1.0000
  H   H362      1.0  0.30626  0.72737  0.04193  1.0000
  H   H363      1.0  0.50355  0.61479  0.23615  1.0000
  H   H364      1.0  0.49720  0.65894  0.47660  1.0000
  H   H365      1.0  0.20239  0.82999  0.03047  1.0000
  C   C318      1.0  0.30163  0.50467  0.21871  1.0000
  H   H366      1.0  0.30524  0.70456  0.44468  1.0000
  C   C319      1.0  0.48670  0.46123  0.23538  1.0000
  H   H367      1.0  0.14092  0.80580  0.45354  1.0000
  H   H368      1.0  0.10138  0.45813  0.08385  1.0000
  H   H369      1.0  0.48748  0.72086  0.37831  1.0000
  C   C320      1.0  0.50330  0.76569  0.12261  1.0000
  H   H370      1.0  0.21137  0.45634  0.05504  1.0000
  C   C321      1.0  0.52760  0.66044  0.35460  1.0000
  S   S81       1.0  0.49530  0.80642  0.26132  1.0000
  Fe  Fe40      1.0  0.44663  0.51868  0.40898  1.0000
  C   C322      1.0  0.11594  0.89646  0.04696  1.0000
  S   S82       1.0  0.50447  0.46094  0.02925  1.0000
  C   C323      1.0  0.12091  0.77989  0.02265  1.0000
  H   H371      1.0  0.49817  0.65632  0.36807  1.0000
  C   C324      1.0  0.15902  0.48507  0.23759  1.0000
  H   H372      1.0  0.10309  0.81903  0.08607  1.0000
  H   H373      1.0  0.23868  0.79114  0.26194  1.0000
  H   H374      1.0  0.57767  0.67538  0.04917  1.0000
  C   C325      1.0  0.43052  0.71708  0.40421  1.0000
  N   N22       1.0  0.59080  0.61145  0.37670  1.0000
  C   C326      1.0  0.40230  0.62884  0.36762  1.0000
  H   H375      1.0  0.11109  0.70810  0.99296  1.0000
  C   C327      1.0  0.13288  0.84932  0.29969  1.0000
  S   S83       1.0  0.36895  0.82175  0.47585  1.0000
  H   H376      1.0  0.51908  0.86925  0.46425  1.0000
  H   H377      1.0  0.37089  0.70281  0.31867  1.0000
  H   H378      1.0  0.54387  0.44857  0.12631  1.0000
  C   C328      1.0  0.50431  0.57275  0.13564  1.0000
  H   H379      1.0  0.49035  0.77166  0.16015  1.0000
  Fe  Fe41      1.0  0.24992  0.57642  0.45132  1.0000
  H   H380      1.0  0.56616  0.45092  0.39144  1.0000
  H   H381      1.0  0.58484  0.61433  0.46581  1.0000
  S   S84       1.0  0.41915  0.51952  0.33525  1.0000
  H   H382      1.0  0.59065  0.89129  0.01288  1.0000
  H   H383      1.0  0.22606  0.84136  0.23206  1.0000
  H   H384      1.0  0.28942  0.50695  0.18047  1.0000
  H   H385      1.0  0.49948  0.47307  0.31104  1.0000
  C   C329      1.0  0.33741  0.62009  0.40630  1.0000
  C   C330      1.0  0.55264  0.61251  0.18241  1.0000
  C   C331      1.0  0.30926  0.67828  0.12544  1.0000
  H   H386      1.0  0.25130  0.77988  0.32931  1.0000
  C   C332      1.0  0.54624  0.46576  0.25772  1.0000
  C   C333      1.0  0.14820  0.86789  0.33417  1.0000
  H   H387      1.0  0.36707  0.63808  0.08448  1.0000
  H   H388      1.0  0.20501  0.90241  0.14886  1.0000
  C   C334      1.0  0.37494  0.77484  0.20248  1.0000
  C   C335      1.0  0.39654  0.55613  0.06823  1.0000
  C   C336      1.0  0.57844  0.63926  0.35702  1.0000
  S   S85       1.0  0.57187  0.68627  0.48206  1.0000
  S   S86       1.0  0.20938  0.56263  0.26527  1.0000
  C   C337      1.0  0.36142  0.68741  0.16975  1.0000
  Fe  Fe42      1.0  0.36778  0.87249  0.46157  1.0000
  H   H389      1.0  0.48472  0.71300  0.28011  1.0000
  C   C338      1.0  0.34720  0.78576  0.18684  1.0000
  N   N23       1.0  0.55829  0.56298  0.07511  1.0000
  S   S87       1.0  0.13625  0.66751  0.19835  1.0000
  C   C339      1.0  0.12690  0.46166  0.23649  1.0000
  H   H390      1.0  0.11257  0.53614  0.34701  1.0000
  C   C340      1.0  0.12573  0.45155  0.18601  1.0000
  N   N24       1.0  0.15478  0.45371  0.08179  1.0000
  H   H391      1.0  0.17295  0.81587  0.16423  1.0000
  H   H392      1.0  0.12225  0.82886  0.14322  1.0000
  H   H393      1.0  0.34681  0.51658  0.11835  1.0000
  H   H394      1.0  0.46087  0.58017  0.19429  1.0000
  H   H395      1.0  0.41306  0.76590  0.07135  1.0000
  C   C341      1.0  0.49578  0.48720  0.48499  1.0000
  H   H396      1.0  0.18313  0.85454  0.06672  1.0000
  C   C342      1.0  0.25794  0.43983  0.11809  1.0000
  H   H397      1.0  0.58553  0.79049  0.01693  1.0000
  Fe  Fe43      1.0  0.36640  0.49880  0.40956  1.0000
  H   H398      1.0  0.16213  0.62953  0.13086  1.0000
  C   C343      1.0  0.14695  0.74751  0.08510  1.0000
  C   C344      1.0  0.57427  0.54116  0.10866  1.0000
  H   H399      1.0  0.27782  0.49272  0.25986  1.0000
  H   H400      1.0  0.41536  0.42487  0.99152  1.0000
  H   H401      1.0  0.23411  0.87051  0.27309  1.0000
  C   C345      1.0  0.33886  0.53170  0.27286  1.0000
  H   H402      1.0  0.28505  0.87760  0.19422  1.0000
  Fe  Fe44      1.0  0.41924  0.56844  0.34105  1.0000
  H   H403      1.0  0.37595  0.69857  0.19789  1.0000
  C   C346      1.0  0.16687  0.59833  0.29246  1.0000
  H   H404      1.0  0.41626  0.85418  0.01287  1.0000
  C   C347      1.0  0.37292  0.62619  0.41392  1.0000
  C   C348      1.0  0.24280  0.82995  0.36700  1.0000
  H   H405      1.0  0.25896  0.69178  0.20311  1.0000
  Fe  Fe45      1.0  0.10404  0.68617  0.40253  1.0000
  S   S88       1.0  0.14259  0.72031  0.31387  1.0000
  C   C349      1.0  0.11873  0.72694  0.01402  1.0000
  H   H406      1.0  0.32375  0.80060  0.11573  1.0000
  H   H407      1.0  0.18696  0.69008  0.40184  1.0000
  S   S89       1.0  0.27189  0.80884  0.02794  1.0000
  C   C350      1.0  0.25590  0.66516  0.08285  1.0000
  S   S90       1.0  0.36578  0.79119  0.01318  1.0000
  H   H408      1.0  0.16713  0.58929  0.33781  1.0000
  C   C351      1.0  0.54034  0.70031  0.15962  1.0000
  H   H409      1.0  0.19100  0.58781  0.15722  1.0000
  C   C352      1.0  0.36501  0.86736  0.20693  1.0000
  H   H410      1.0  0.58610  0.56529  0.36129  1.0000
  C   C353      1.0  0.55813  0.45957  0.20342  1.0000
  Fe  Fe46      1.0  0.48150  0.88068  0.15812  1.0000
  H   H411      1.0  0.42622  0.70396  0.25209  1.0000
  S   S91       1.0  0.49254  0.49942  0.41195  1.0000
  C   C354      1.0  0.38540  0.58436  0.15832  1.0000
  H   H412      1.0  0.24154  0.65016  0.20304  1.0000
  C   C355      1.0  0.41648  0.60044  0.10857  1.0000
  C   C356      1.0  0.32933  0.70448  0.41185  1.0000
  H   H413      1.0  0.50184  0.44182  0.47936  1.0000
  H   H414      1.0  0.51384  0.69445  0.19128  1.0000
  H   H415      1.0  0.37715  0.62595  0.45705  1.0000
  S   S92       1.0  0.45156  0.56954  0.40787  1.0000
  H   H416      1.0  0.27827  0.54609  0.26024  1.0000
  S   S93       1.0  0.42659  0.61362  0.26916  1.0000
  H   H417      1.0  0.43639  0.62399  0.10498  1.0000
  C   C357      1.0  0.30347  0.55799  0.22121  1.0000
  S   S94       1.0  0.21827  0.59908  0.39819  1.0000
  C   C358      1.0  0.12340  0.79941  0.37621  1.0000
  H   H418      1.0  0.24766  0.63840  0.10461  1.0000
  C   C359      1.0  0.39629  0.71188  0.38973  1.0000
  S   S95       1.0  0.10512  0.79259  0.27397  1.0000
  C   C360      1.0  0.59053  0.69661  0.30297  1.0000
  H   H419      1.0  0.39647  0.75299  0.45516  1.0000
  H   H420      1.0  0.11447  0.80158  0.00678  1.0000
  C   C361      1.0  0.12528  0.42830  0.41010  1.0000
  H   H421      1.0  0.40091  0.54524  0.03300  1.0000
  H   H422      1.0  0.28141  0.42172  0.05087  1.0000
  H   H423      1.0  0.31879  0.58185  0.22605  1.0000
  S   S96       1.0  0.38479  0.77557  0.26995  1.0000
  H   H424      1.0  0.32924  0.79172  0.21888  1.0000
  H   H425      1.0  0.09966  0.53776  0.16056  1.0000
  C   C362      1.0  0.22558  0.84406  0.27688  1.0000
  H   H426      1.0  0.35658  0.51646  0.27210  1.0000
  S   S97       1.0  0.28600  0.48113  0.08100  1.0000
  C   C363      1.0  0.49157  0.84889  0.48083  1.0000
  H   H427      1.0  0.35502  0.55497  0.27906  1.0000
  C   C364      1.0  0.54302  0.68287  0.11935  1.0000
  H   H428      1.0  0.12698  0.43866  0.36395  1.0000
  H   H429      1.0  0.48052  0.44925  0.15569  1.0000
  C   C365      1.0  0.39821  0.76728  0.16095  1.0000
  C   C366      1.0  0.23137  0.43128  0.17264  1.0000
  H   H430      1.0  0.48407  0.55756  0.11961  1.0000
  Fe  Fe47      1.0  0.19577  0.50704  0.47960  1.0000
  C   C367      1.0  0.57693  0.69048  0.07778  1.0000
  H   H431      1.0  0.58625  0.57580  0.45792  1.0000
  N   N25       1.0  0.27522  0.68445  0.11736  1.0000
  H   H432      1.0  0.11459  0.77300  0.39224  1.0000
  H   H433      1.0  0.53590  0.42383  0.36199  1.0000
  H   H434      1.0  0.39378  0.87557  0.18152  1.0000
  H   H435      1.0  0.58521  0.52740  0.08183  1.0000
  H   H436      1.0  0.52042  0.78609  0.46948  1.0000
  S   S98       1.0  0.17098  0.87597  0.43197  1.0000
  S   S99       1.0  0.45289  0.86003  0.25558  1.0000
  C   C368      1.0  0.55282  0.69141  0.32002  1.0000
  H   H437      1.0  0.29389  0.56315  0.18053  1.0000
  N   N26       1.0  0.24898  0.82836  0.30508  1.0000
  C   C369      1.0  0.16704  0.70634  0.47449  1.0000
  Fe  Fe48      1.0  0.30780  0.80570  0.48515  1.0000
  H   H438      1.0  0.54289  0.53169  0.02116  1.0000
  C   C370      1.0  0.51935  0.81112  0.45669  1.0000
  C   C371      1.0  0.15113  0.62212  0.27763  1.0000
  C   C372      1.0  0.24843  0.67608  0.17624  1.0000
  S   S100      1.0  0.31713  0.45999  0.40498  1.0000
  H   H439      1.0  0.41984  0.75911  0.17295  1.0000
  C   C373      1.0  0.13898  0.77668  0.06829  1.0000
  H   H440      1.0  0.33247  0.72294  0.36945  1.0000
  H   H441      1.0  0.52570  0.45721  0.37882  1.0000
  C   C374      1.0  0.42736  0.70766  0.29464  1.0000
  H   H442      1.0  0.55735  0.51291  0.30977  1.0000
  C   C375      1.0  0.46039  0.71266  0.31051  1.0000
  C   C376      1.0  0.35888  0.55349  0.16479  1.0000
  H   H443      1.0  0.35851  0.42867  0.09537  1.0000
  C   C377      1.0  0.15025  0.63402  0.21913  1.0000
  C   C378      1.0  0.29296  0.43384  0.47740  1.0000
  C   C379      1.0  0.36814  0.78393  0.08664  1.0000
  H   H444      1.0  0.38232  0.59630  0.19194  1.0000
  C   C380      1.0  0.28897  0.84356  0.27231  1.0000
  C   C381      1.0  0.19450  0.70554  0.42916  1.0000
  H   H445      1.0  0.21496  0.49863  0.10209  1.0000
  C   C382      1.0  0.31532  0.83291  0.29569  1.0000
  S   S101      1.0  0.36408  0.54746  0.41019  1.0000
  H   H446      1.0  0.40675  0.43886  0.09240  1.0000
  C   C383      1.0  0.15168  0.44451  0.43513  1.0000
  C   C384      1.0  0.13810  0.81802  0.41118  1.0000
  C   C385      1.0  0.54298  0.57913  0.11526  1.0000
  C   C386      1.0  0.12085  0.81509  0.32035  1.0000
  H   H447      1.0  0.29224  0.43635  0.30671  1.0000
  C   C387      1.0  0.18961  0.48776  0.13816  1.0000
  H   H448      1.0  0.09972  0.43428  0.18650  1.0000
  C   C388      1.0  0.53020  0.54274  0.05243  1.0000
  C   C389      1.0  0.53451  0.45362  0.16729  1.0000
  N   N27       1.0  0.36367  0.71245  0.43154  1.0000
  Fe  Fe49      1.0  0.11303  0.68207  0.27640  1.0000
  C   C390      1.0  0.35626  0.65322  0.10618  1.0000
  H   H449      1.0  0.21276  0.81928  0.39189  1.0000
  H   H450      1.0  0.31506  0.51872  0.31394  1.0000
  H   H451      1.0  0.32070  0.70929  0.18226  1.0000
  C   C391      1.0  0.32938  0.69301  0.16111  1.0000
  C   C392      1.0  0.39452  0.77139  0.10330  1.0000
  Fe  Fe50      1.0  0.21134  0.55752  0.35969  1.0000
  H   H452      1.0  0.42877  0.63034  0.37586  1.0000
  S   S102      1.0  0.39393  0.49463  0.48314  1.0000
  H   H453      1.0  0.22204  0.67943  0.17151  1.0000
  C   C393      1.0  0.54005  0.78457  0.08937  1.0000
  H   H454      1.0  0.19605  0.83238  0.30314  1.0000
  H   H455      1.0  0.50842  0.52174  0.08884  1.0000
  H   H456      1.0  0.14759  0.77327  0.18084  1.0000
  H   H457      1.0  0.25622  0.81584  0.39382  1.0000
  C   C394      1.0  0.33200  0.61978  0.35057  1.0000
  H   H458      1.0  0.30708  0.81437  0.33808  1.0000
  C   C395      1.0  0.16326  0.62068  0.17615  1.0000
  H   H459      1.0  0.32143  0.67976  0.40608  1.0000
  H   H460      1.0  0.43329  0.72121  0.44577  1.0000
  C   C396      1.0  0.49050  0.58557  0.17875  1.0000
  H   H461      1.0  0.13115  0.86155  0.25638  1.0000
  Fe  Fe51      1.0  0.44313  0.81116  0.24135  1.0000
  H   H462      1.0  0.15810  0.89432  0.31736  1.0000
  H   H463      1.0  0.15979  0.49332  0.27635  1.0000
  C   C397      1.0  0.53651  0.75012  0.02529  1.0000
  Fe  Fe52      1.0  0.33323  0.82333  0.99189  1.0000
  S   S103      1.0  0.30768  0.85717  0.46312  1.0000
  C   C398      1.0  0.15723  0.46394  0.13551  1.0000
  C   C399      1.0  0.35271  0.84486  0.26376  1.0000
  C   C400      1.0  0.23185  0.72394  0.42032  1.0000
  H   H464      1.0  0.57710  0.60529  0.99735  1.0000
  H   H465      1.0  0.54583  0.57598  0.36075  1.0000
  H   H466      1.0  0.55302  0.52300  0.14951  1.0000
  C   C401      1.0  0.13003  0.46751  0.05379  1.0000
  H   H467      1.0  0.17361  0.46739  0.40822  1.0000
  H   H468      1.0  0.10257  0.45153  0.27467  1.0000
  H   H469      1.0  0.18865  0.45595  0.99758  1.0000
  C   C402      1.0  0.13704  0.72318  0.05792  1.0000
  H   H470      1.0  0.31910  0.89368  0.34067  1.0000
  C   C403      1.0  0.11574  0.80978  0.12057  1.0000
  H   H471      1.0  0.51992  0.61142  0.40048  1.0000
  C   C404      1.0  0.30271  0.86749  0.21512  1.0000
  Fe  Fe53      1.0  0.56074  0.46010  0.98946  1.0000
  C   C405      1.0  0.54857  0.44975  0.36014  1.0000
  S   S104      1.0  0.24818  0.53766  0.40618  1.0000
  S   S105      1.0  0.15902  0.52430  0.42999  1.0000
  H   H472      1.0  0.26026  0.72499  0.07587  1.0000
  C   C406      1.0  0.49880  0.45416  0.18353  1.0000
  Fe  Fe54      1.0  0.50728  0.85745  0.26674  1.0000
  H   H473      1.0  0.27333  0.67167  0.03648  1.0000
  H   H474      1.0  0.14380  0.70132  0.07081  1.0000
  C   C407      1.0  0.17617  0.83348  0.04885  1.0000
  H   H475      1.0  0.58556  0.45930  0.18784  1.0000
  H   H476      1.0  0.56936  0.73960  0.18884  1.0000
  H   H477      1.0  0.14027  0.49470  0.04235  1.0000
  C   C408      1.0  0.57153  0.72567  0.15812  1.0000
  H   H478      1.0  0.44620  0.59877  0.02501  1.0000
  H   H479      1.0  0.37795  0.72872  0.01268  1.0000
  C   C409      1.0  0.55689  0.77638  0.04153  1.0000
  S   S106      1.0  0.47330  0.69983  0.03651  1.0000
  S   S107      1.0  0.34651  0.87306  0.00371  1.0000
  H   H480      1.0  0.45649  0.82766  0.02019  1.0000
  S   S108      1.0  0.58848  0.42749  0.03148  1.0000
  H   H481      1.0  0.16533  0.84108  0.01074  1.0000
  C   C410      1.0  0.43948  0.87829  0.99403  1.0000
  H   H482      1.0  0.42126  0.72332  0.98898  1.0000
  C   C411      1.0  0.45545  0.48666  0.98853  1.0000
  H   H483      1.0  0.57129  0.62823  0.20028  1.0000
  H   H484      1.0  0.20306  0.49236  0.01770  1.0000
  H   H485      1.0  0.58702  0.59674  0.29867  1.0000
  H   H486      1.0  0.42676  0.89715  0.99671  1.0000
  H   H487      1.0  0.49003  0.79145  0.00962  1.0000
  H   H488      1.0  0.44394  0.79309  0.48740  1.0000
  H   H489      1.0  0.35212  0.66361  0.48703  1.0000
  C   C412      1.0  0.23574  0.41564  0.36167  1.0000
  S   S109      1.0  0.12051  0.68190  0.48759  1.0000
  H   H490      1.0  0.59661  0.43691  0.28217  1.0000
  H   H491      1.0  0.59649  0.60569  0.12613  1.0000
  S   S110      1.0  0.12016  0.87771  0.99107  1.0000
  H   H492      1.0  0.57769  0.52463  0.88220  1.0000
  H   H493      1.0  0.48898  0.48309  0.82890  1.0000
  C   C413      1.0  0.35938  0.90400  0.67899  1.0000
  H   H494      1.0  0.43934  0.53641  0.58192  1.0000
  C   C414      1.0  0.50294  0.49965  0.57592  1.0000
  S   S111      1.0  0.22092  0.66001  0.95765  1.0000
  C   C415      1.0  0.25445  0.53599  0.77260  1.0000
  H   H495      1.0  0.53318  0.76036  0.65618  1.0000
  H   H496      1.0  0.52715  0.60205  0.62245  1.0000
  H   H497      1.0  0.18427  0.87211  0.83171  1.0000
  H   H498      1.0  0.14289  0.59584  0.69673  1.0000
  H   H499      1.0  0.11744  0.88016  0.83429  1.0000
  H   H500      1.0  0.57389  0.86571  0.96977  1.0000
  C   C416      1.0  0.18737  0.79420  0.76078  1.0000
  H   H501      1.0  0.41595  0.89251  0.89990  1.0000
  S   S112      1.0  0.48070  0.70932  0.51904  1.0000
  H   H502      1.0  0.27536  0.64300  0.77700  1.0000
  H   H503      1.0  0.53432  0.80060  0.91387  1.0000
  C   C417      1.0  0.52002  0.81755  0.91794  1.0000
  S   S113      1.0  0.16823  0.56833  0.78681  1.0000
  C   C418      1.0  0.20114  0.77449  0.67740  1.0000
  C   C419      1.0  0.14196  0.89707  0.73929  1.0000
  C   C420      1.0  0.59101  0.54291  0.74071  1.0000
  H   H504      1.0  0.15841  0.72909  0.82153  1.0000
  N   N28       1.0  0.49522  0.81678  0.50539  1.0000
  S   S114      1.0  0.16885  0.64225  0.84048  1.0000
  S   S115      1.0  0.12029  0.57858  0.50268  1.0000
  C   C421      1.0  0.36126  0.66333  0.78714  1.0000
  C   C422      1.0  0.55003  0.55809  0.89251  1.0000
  C   C423      1.0  0.37080  0.69806  0.93078  1.0000
  C   C424      1.0  0.41700  0.65503  0.56636  1.0000
  H   H505      1.0  0.44443  0.72512  0.88365  1.0000
  C   C425      1.0  0.21573  0.48870  0.72770  1.0000
  S   S116      1.0  0.51367  0.59849  0.91136  1.0000
  H   H506      1.0  0.24561  0.42279  0.95655  1.0000
  C   C426      1.0  0.23316  0.65954  0.55898  1.0000
  H   H507      1.0  0.44814  0.76695  0.86532  1.0000
  C   C427      1.0  0.12020  0.62127  0.60647  1.0000
  H   H508      1.0  0.31298  0.47017  0.51927  1.0000
  C   C428      1.0  0.55381  0.59039  0.88716  1.0000
  H   H509      1.0  0.59668  0.78344  0.87163  1.0000
  C   C429      1.0  0.50735  0.86596  0.87448  1.0000
  H   H510      1.0  0.17290  0.47262  0.81052  1.0000
  S   S117      1.0  0.11033  0.73330  0.65580  1.0000
  H   H511      1.0  0.48242  0.64189  0.68863  1.0000
  S   S118      1.0  0.16923  0.82937  0.59576  1.0000
  Fe  Fe55      1.0  0.50547  0.69952  0.94961  1.0000
  H   H512      1.0  0.37363  0.88161  0.75632  1.0000
  H   H513      1.0  0.40560  0.66977  0.58825  1.0000
  S   S119      1.0  0.31796  0.59817  0.83224  1.0000
  H   H514      1.0  0.16563  0.71631  0.75575  1.0000
  H   H515      1.0  0.27547  0.71840  0.95878  1.0000
  H   H516      1.0  0.41375  0.50259  0.95747  1.0000
  C   C430      1.0  0.36679  0.44321  0.72697  1.0000
  H   H517      1.0  0.13904  0.67689  0.63007  1.0000
  H   H518      1.0  0.17502  0.77425  0.66626  1.0000
  C   C431      1.0  0.25176  0.51083  0.69257  1.0000
  C   C432      1.0  0.25641  0.89857  0.79272  1.0000
  Fe  Fe56      1.0  0.59174  0.68518  0.56333  1.0000
  C   C433      1.0  0.40341  0.73697  0.97496  1.0000
  H   H519      1.0  0.11635  0.53224  0.61124  1.0000
  C   C434      1.0  0.42353  0.84275  0.63495  1.0000
  H   H520      1.0  0.39352  0.78192  0.89378  1.0000
  H   H521      1.0  0.45046  0.43088  0.82741  1.0000
  H   H522      1.0  0.40984  0.67781  0.96359  1.0000
  C   C435      1.0  0.39518  0.62247  0.57476  1.0000
  H   H523      1.0  0.37786  0.69505  0.51272  1.0000
  Fe  Fe57      1.0  0.52374  0.65149  0.89057  1.0000
  H   H524      1.0  0.32252  0.51493  0.65541  1.0000
  H   H525      1.0  0.53016  0.43862  0.77490  1.0000
  H   H526      1.0  0.23620  0.45990  0.64067  1.0000
  C   C436      1.0  0.13761  0.52902  0.79651  1.0000
  H   H527      1.0  0.38974  0.60205  0.84682  1.0000
  H   H528      1.0  0.50528  0.51636  0.60185  1.0000
  S   S120      1.0  0.11397  0.62866  0.97148  1.0000
  C   C437      1.0  0.37573  0.75625  0.90008  1.0000
  H   H529      1.0  0.48959  0.52972  0.50519  1.0000
  H   H530      1.0  0.51573  0.42840  0.57610  1.0000
  H   H531      1.0  0.13317  0.62035  0.74219  1.0000
  C   C438      1.0  0.20001  0.49020  0.78372  1.0000
  C   C439      1.0  0.21438  0.74515  0.50053  1.0000
  Fe  Fe58      1.0  0.58796  0.46915  0.60005  1.0000
  H   H532      1.0  0.50852  0.56053  0.77555  1.0000
  C   C440      1.0  0.44893  0.86199  0.65787  1.0000
  N   N29       1.0  0.23243  0.91437  0.82024  1.0000
  C   C441      1.0  0.59206  0.51149  0.75558  1.0000
  H   H533      1.0  0.39617  0.76951  0.74286  1.0000
  H   H534      1.0  0.36680  0.61219  0.60245  1.0000
  H   H535      1.0  0.30844  0.41485  0.75382  1.0000
  S   S121      1.0  0.54970  0.68869  0.80035  1.0000
  C   C442      1.0  0.45774  0.79116  0.52368  1.0000
  Fe  Fe59      1.0  0.11643  0.78594  0.62676  1.0000
  H   H536      1.0  0.22187  0.76058  0.52789  1.0000
  S   S122      1.0  0.22821  0.80610  0.89772  1.0000
  H   H537      1.0  0.37351  0.62071  0.97865  1.0000
  Fe  Fe60      1.0  0.27280  0.83056  0.93380  1.0000
  C   C443      1.0  0.40506  0.43111  0.65021  1.0000
  H   H538      1.0  0.56462  0.54613  0.75117  1.0000
  C   C444      1.0  0.48573  0.57024  0.59689  1.0000
  C   C445      1.0  0.23850  0.61053  0.64879  1.0000
  H   H539      1.0  0.23093  0.67844  0.52399  1.0000
  S   S123      1.0  0.15240  0.86222  0.73764  1.0000
  C   C446      1.0  0.23426  0.73499  0.78219  1.0000
  H   H540      1.0  0.15580  0.72679  0.54537  1.0000
  C   C447      1.0  0.26370  0.79357  0.73522  1.0000
  H   H541      1.0  0.16981  0.69030  0.92200  1.0000
  S   S124      1.0  0.11731  0.87480  0.59073  1.0000
  C   C448      1.0  0.51146  0.47156  0.59475  1.0000
  C   C449      1.0  0.33591  0.68865  0.91820  1.0000
  H   H542      1.0  0.19942  0.46959  0.71357  1.0000
  C   C450      1.0  0.24526  0.48570  0.61189  1.0000
  C   C451      1.0  0.44931  0.54848  0.61276  1.0000
  C   C452      1.0  0.27922  0.42333  0.58448  1.0000
  C   C453      1.0  0.45434  0.84795  0.71232  1.0000
  H   H543      1.0  0.54418  0.84761  0.82632  1.0000
  H   H544      1.0  0.17556  0.89745  0.87473  1.0000
  S   S125      1.0  0.17903  0.45358  0.52900  1.0000
  S   S126      1.0  0.53285  0.46668  0.65184  1.0000
  C   C454      1.0  0.14964  0.43113  0.49492  1.0000
  C   C455      1.0  0.49514  0.81242  0.97190  1.0000
  C   C456      1.0  0.43784  0.55860  0.70764  1.0000
  H   H545      1.0  0.41522  0.85133  0.91223  1.0000
  N   N30       1.0  0.39397  0.73265  0.91983  1.0000
  S   S127      1.0  0.38164  0.56306  0.55536  1.0000
  H   H546      1.0  0.16759  0.63904  0.67094  1.0000
  H   H547      1.0  0.29164  0.47341  0.67667  1.0000
  C   C457      1.0  0.50947  0.45019  0.56095  1.0000
  H   H548      1.0  0.42410  0.42233  0.53734  1.0000
  H   H549      1.0  0.22027  0.49194  0.60798  1.0000
  N   N31       1.0  0.46056  0.88353  0.93218  1.0000
  H   H550      1.0  0.22324  0.90652  0.66153  1.0000
  S   S128      1.0  0.58935  0.46560  0.89556  1.0000
  C   C458      1.0  0.42686  0.68447  0.77968  1.0000
  H   H551      1.0  0.46363  0.88770  0.63409  1.0000
  C   C459      1.0  0.39504  0.68977  0.76916  1.0000
  Fe  Fe61      1.0  0.50181  0.70514  0.82237  1.0000
  H   H552      1.0  0.47218  0.60498  0.81923  1.0000
  C   C460      1.0  0.21472  0.62676  0.56548  1.0000
  H   H553      1.0  0.44783  0.88381  0.84857  1.0000
  C   C461      1.0  0.44847  0.49259  0.88893  1.0000
  S   S129      1.0  0.29194  0.79691  0.58335  1.0000
  H   H554      1.0  0.25920  0.48625  0.56658  1.0000
  Fe  Fe62      1.0  0.29152  0.47833  0.86964  1.0000
  H   H555      1.0  0.27804  0.69873  0.68013  1.0000
  C   C462      1.0  0.41053  0.79533  0.71942  1.0000
  H   H556      1.0  0.41927  0.76309  0.96888  1.0000
  H   H557      1.0  0.56656  0.49066  0.77698  1.0000
  H   H558      1.0  0.56520  0.91227  0.89255  1.0000
  S   S130      1.0  0.15543  0.57674  0.95022  1.0000
  H   H559      1.0  0.13736  0.73981  0.76415  1.0000
  H   H560      1.0  0.52275  0.53939  0.90904  1.0000
  H   H561      1.0  0.29907  0.55074  0.69454  1.0000
  C   C463      1.0  0.29950  0.76180  0.77137  1.0000
  Fe  Fe63      1.0  0.14826  0.58803  0.85835  1.0000
  H   H562      1.0  0.26267  0.55174  0.58463  1.0000
  S   S131      1.0  0.32278  0.46079  0.93074  1.0000
  C   C464      1.0  0.48435  0.47508  0.97451  1.0000
  C   C465      1.0  0.46884  0.64888  0.50398  1.0000
  H   H563      1.0  0.10860  0.66398  0.70273  1.0000
  S   S132      1.0  0.35851  0.53731  0.92849  1.0000
  H   H564      1.0  0.09760  0.75872  0.96099  1.0000
  N   N32       1.0  0.19616  0.76743  0.74220  1.0000
  C   C466      1.0  0.53808  0.80874  0.65855  1.0000
  S   S133      1.0  0.47374  0.66511  0.90907  1.0000
  H   H565      1.0  0.28310  0.43156  0.62229  1.0000
  C   C467      1.0  0.26821  0.90996  0.59133  1.0000
  H   H566      1.0  0.33071  0.88730  0.69453  1.0000
  C   C468      1.0  0.31510  0.65568  0.92864  1.0000
  Fe  Fe64      1.0  0.10957  0.63581  0.87805  1.0000
  C   C469      1.0  0.45385  0.66829  0.53078  1.0000
  H   H567      1.0  0.52826  0.64123  0.66539  1.0000
  C   C470      1.0  0.27087  0.53424  0.71720  1.0000
  H   H568      1.0  0.32429  0.70622  0.89930  1.0000
  C   C471      1.0  0.38348  0.90059  0.71359  1.0000
  N   N33       1.0  0.28180  0.65149  0.68251  1.0000
  H   H569      1.0  0.46780  0.43731  0.74930  1.0000
  H   H570      1.0  0.32852  0.64775  0.62503  1.0000
  C   C472      1.0  0.50203  0.45809  0.50589  1.0000
  H   H571      1.0  0.50912  0.76464  0.56968  1.0000
  H   H572      1.0  0.29758  0.54054  0.54378  1.0000
  H   H573      1.0  0.26366  0.81726  0.71227  1.0000
  C   C473      1.0  0.31196  0.63816  0.67259  1.0000
  H   H574      1.0  0.42323  0.74049  0.82963  1.0000
  C   C474      1.0  0.43508  0.81471  0.74301  1.0000
  Fe  Fe65      1.0  0.32396  0.54942  0.86814  1.0000
  H   H575      1.0  0.28891  0.64895  0.91765  1.0000
  Fe  Fe66      1.0  0.09720  0.57553  0.97941  1.0000
  H   H576      1.0  0.51233  0.88582  0.83503  1.0000
  H   H577      1.0  0.20656  0.51530  0.84887  1.0000
  H   H578      1.0  0.53979  0.85766  0.65052  1.0000
  H   H579      1.0  0.32945  0.68631  0.52177  1.0000
  H   H580      1.0  0.51737  0.86416  0.56333  1.0000
  H   H581      1.0  0.34919  0.75102  0.93352  1.0000
  Fe  Fe67      1.0  0.35284  0.81546  0.57310  1.0000
  C   C475      1.0  0.13718  0.51731  0.74760  1.0000
  C   C476      1.0  0.43694  0.49480  0.94603  1.0000
  S   S134      1.0  0.26056  0.86795  0.61719  1.0000
  H   H582      1.0  0.50444  0.43138  0.85000  1.0000
  C   C477      1.0  0.29928  0.68724  0.67239  1.0000
  C   C478      1.0  0.58909  0.61507  0.86426  1.0000
  C   C479      1.0  0.49857  0.58579  0.63659  1.0000
  H   H583      1.0  0.23445  0.64331  0.75391  1.0000
  H   H584      1.0  0.20204  0.57688  0.61691  1.0000
  C   C480      1.0  0.21696  0.60235  0.61092  1.0000
  C   C481      1.0  0.48189  0.86152  0.92882  1.0000
  H   H585      1.0  0.26802  0.69402  0.58920  1.0000
  C   C482      1.0  0.16329  0.73682  0.77252  1.0000
  H   H586      1.0  0.09730  0.62121  0.58550  1.0000
  C   C483      1.0  0.42891  0.74167  0.87279  1.0000
  C   C484      1.0  0.26799  0.73346  0.79087  1.0000
  H   H587      1.0  0.59209  0.64029  0.85962  1.0000
  N   N34       1.0  0.48923  0.59765  0.73429  1.0000
  C   C485      1.0  0.25472  0.75711  0.93243  1.0000
  H   H588      1.0  0.45846  0.76598  0.53652  1.0000
  H   H589      1.0  0.10261  0.74516  0.53799  1.0000
  H   H590      1.0  0.33139  0.64447  0.69968  1.0000
  H   H591      1.0  0.20948  0.75590  0.66087  1.0000
  S   S135      1.0  0.28152  0.88071  0.93997  1.0000
  H   H592      1.0  0.37026  0.75613  0.85642  1.0000
  H   H593      1.0  0.43965  0.80392  0.78463  1.0000
  Fe  Fe68      1.0  0.34201  0.88923  0.91057  1.0000
  H   H594      1.0  0.51928  0.46606  0.90565  1.0000
  C   C486      1.0  0.29659  0.44494  0.52638  1.0000
  C   C487      1.0  0.11204  0.65833  0.65979  1.0000
  C   C488      1.0  0.12622  0.90041  0.79366  1.0000
  S   S136      1.0  0.27240  0.50723  0.92435  1.0000
  H   H595      1.0  0.20114  0.87100  0.89552  1.0000
  H   H596      1.0  0.24906  0.60891  0.75963  1.0000
  S   S137      1.0  0.34025  0.52142  0.80878  1.0000
  C   C489      1.0  0.29740  0.79178  0.74346  1.0000
  H   H597      1.0  0.15464  0.53294  0.70374  1.0000
  H   H598      1.0  0.31832  0.70026  0.62662  1.0000
  C   C490      1.0  0.50394  0.63354  0.70440  1.0000
  C   C491      1.0  0.42487  0.65284  0.80770  1.0000
  H   H599      1.0  0.19853  0.62029  0.53536  1.0000
  C   C492      1.0  0.11504  0.50867  0.85325  1.0000
  Fe  Fe69      1.0  0.13875  0.84842  0.65927  1.0000
  H   H600      1.0  0.53146  0.60045  0.78044  1.0000
  C   C493      1.0  0.25291  0.72459  0.94627  1.0000
  H   H601      1.0  0.51340  0.64743  0.73456  1.0000
  C   C494      1.0  0.42537  0.54278  0.66792  1.0000
  C   C495      1.0  0.47913  0.48349  0.87375  1.0000
  H   H602      1.0  0.31271  0.60591  0.95688  1.0000
  H   H603      1.0  0.33652  0.66762  0.78090  1.0000
  H   H604      1.0  0.32220  0.81367  0.72718  1.0000
  C   C496      1.0  0.30151  0.49768  0.64173  1.0000
  C   C497      1.0  0.51603  0.78572  0.58525  1.0000
  H   H605      1.0  0.45017  0.56494  0.81772  1.0000
  H   H606      1.0  0.18746  0.79185  0.80779  1.0000
  C   C498      1.0  0.52588  0.84416  0.86910  1.0000
  H   H607      1.0  0.21092  0.71227  0.79846  1.0000
  H   H608      1.0  0.30113  0.61098  0.68532  1.0000
  H   H609      1.0  0.24180  0.88244  0.76917  1.0000
  C   C499      1.0  0.32844  0.63129  0.95095  1.0000
  S   S138      1.0  0.55674  0.71120  0.59944  1.0000
  C   C500      1.0  0.19691  0.88774  0.85746  1.0000
  Fe  Fe70      1.0  0.17173  0.63079  0.93474  1.0000
  S   S139      1.0  0.37211  0.78499  0.63870  1.0000
  H   H610      1.0  0.26950  0.71021  0.81351  1.0000
  H   H611      1.0  0.44953  0.64876  0.81502  1.0000
  H   H612      1.0  0.39683  0.52633  0.67962  1.0000
  H   H613      1.0  0.32576  0.76059  0.77716  1.0000
  C   C501      1.0  0.22588  0.76546  0.91505  1.0000
  C   C502      1.0  0.17702  0.72595  0.51048  1.0000
  Fe  Fe71      1.0  0.57627  0.72168  0.84893  1.0000
  H   H614      1.0  0.42586  0.46791  0.69126  1.0000
  H   H615      1.0  0.26443  0.88284  0.82699  1.0000
  H   H616      1.0  0.27871  0.77572  0.93443  1.0000
  H   H617      1.0  0.12623  0.59875  0.60606  1.0000
  C   C503      1.0  0.28490  0.54149  0.58861  1.0000
  S   S140      1.0  0.53005  0.74125  0.86422  1.0000
  Fe  Fe72      1.0  0.37075  0.50577  0.87323  1.0000
  C   C504      1.0  0.35957  0.63149  0.81366  1.0000
  S   S141      1.0  0.46872  0.71743  0.76055  1.0000
  C   C505      1.0  0.40431  0.80941  0.66586  1.0000
  C   C506      1.0  0.52961  0.78290  0.63507  1.0000
  N   N35       1.0  0.11088  0.62436  0.66712  1.0000
  Fe  Fe73      1.0  0.29735  0.84983  0.56136  1.0000
  C   C507      1.0  0.44684  0.61655  0.51154  1.0000
  C   C508      1.0  0.40149  0.44914  0.68967  1.0000
  C   C509      1.0  0.51928  0.58727  0.75107  1.0000
  H   H618      1.0  0.31651  0.49580  0.59929  1.0000
  H   H619      1.0  0.11721  0.42873  0.67114  1.0000
  S   S142      1.0  0.20008  0.54424  0.52804  1.0000
  H   H620      1.0  0.30737  0.55972  0.59774  1.0000
  N   N36       1.0  0.27023  0.50882  0.63466  1.0000
  C   C510      1.0  0.45481  0.41822  0.79367  1.0000
  C   C511      1.0  0.22229  0.70037  0.94264  1.0000
  C   C512      1.0  0.49654  0.47415  0.91685  1.0000
  H   H621      1.0  0.11594  0.47563  0.71808  1.0000
  C   C513      1.0  0.11526  0.48488  0.75572  1.0000
  C   C514      1.0  0.53342  0.83770  0.63186  1.0000
  H   H622      1.0  0.43969  0.79332  0.56294  1.0000
  H   H623      1.0  0.58098  0.57421  0.61716  1.0000
  H   H624      1.0  0.43273  0.43711  0.62258  1.0000
  C   C515      1.0  0.25453  0.66811  0.59705  1.0000
  S   S143      1.0  0.33305  0.84048  0.89695  1.0000
  C   C516      1.0  0.25817  0.64366  0.64291  1.0000
  S   S144      1.0  0.48415  0.87123  0.74441  1.0000
  H   H625      1.0  0.39644  0.71429  0.74785  1.0000
  H   H626      1.0  0.17257  0.74762  0.89982  1.0000
  C   C517      1.0  0.21741  0.41719  0.88895  1.0000
  S   S145      1.0  0.25447  0.44644  0.83043  1.0000
  H   H627      1.0  0.20718  0.81900  0.73274  1.0000
  C   C518      1.0  0.13993  0.61975  0.69548  1.0000
  H   H628      1.0  0.54245  0.59211  0.71179  1.0000
  H   H629      1.0  0.43711  0.59777  0.78052  1.0000
  C   C519      1.0  0.49461  0.50732  0.52115  1.0000
  H   H630      1.0  0.41908  0.85367  0.59324  1.0000
  C   C520      1.0  0.52021  0.84100  0.58159  1.0000
  H   H631      1.0  0.14536  0.64196  0.57589  1.0000
  H   H632      1.0  0.11534  0.51765  0.89115  1.0000
  C   C521      1.0  0.51079  0.81486  0.55699  1.0000
  H   H633      1.0  0.50420  0.57499  0.55376  1.0000
  H   H634      1.0  0.54834  0.80625  0.69745  1.0000
  S   S146      1.0  0.42416  0.49958  0.83650  1.0000
  C   C522      1.0  0.25923  0.63613  0.74573  1.0000
  C   C523      1.0  0.19336  0.70869  0.92561  1.0000
  C   C524      1.0  0.43376  0.87753  0.89673  1.0000
  Fe  Fe74      1.0  0.54019  0.71590  0.51448  1.0000
  C   C525      1.0  0.21909  0.51404  0.80574  1.0000
  C   C526      1.0  0.39123  0.62639  0.82487  1.0000
  C   C527      1.0  0.19512  0.74122  0.91209  1.0000
  C   C528      1.0  0.58124  0.54981  0.87748  1.0000
  C   C529      1.0  0.47608  0.83376  0.97747  1.0000
  S   S147      1.0  0.35721  0.86759  0.55864  1.0000
  C   C530      1.0  0.47499  0.58052  0.69329  1.0000
  C   C531      1.0  0.46074  0.59103  0.79027  1.0000
  H   H635      1.0  0.26951  0.55390  0.79072  1.0000
  S   S148      1.0  0.55374  0.68270  0.93808  1.0000
  C   C532      1.0  0.40990  0.60332  0.54655  1.0000
  H   H636      1.0  0.47254  0.85418  0.51444  1.0000
  H   H637      1.0  0.22239  0.79902  0.65166  1.0000
  C   C533      1.0  0.36267  0.63968  0.96305  1.0000
  H   H638      1.0  0.31661  0.69245  0.70299  1.0000
  C   C534      1.0  0.38344  0.67249  0.95360  1.0000
  H   H639      1.0  0.23951  0.59056  0.68297  1.0000
  H   H640      1.0  0.15967  0.79445  0.75674  1.0000
  C   C535      1.0  0.23096  0.76525  0.75472  1.0000
  H   H641      1.0  0.36421  0.45717  0.75767  1.0000
  Fe  Fe75      1.0  0.14277  0.85113  0.53004  1.0000
  H   H642      1.0  0.41798  0.55305  0.74957  1.0000
  C   C536      1.0  0.51175  0.41924  0.81693  1.0000
  H   H643      1.0  0.45881  0.60167  0.49148  1.0000
  C   C537      1.0  0.33545  0.41928  0.72482  1.0000
  Fe  Fe76      1.0  0.30756  0.49315  0.98141  1.0000
  C   C538      1.0  0.35553  0.68840  0.49084  1.0000
  H   H644      1.0  0.35654  0.41473  0.54408  1.0000
  H   H645      1.0  0.54946  0.74412  0.98777  1.0000
  H   H646      1.0  0.65204  0.09809  0.15535  1.0000
  H   H647      1.0  0.92456  0.39739  0.28341  1.0000
  C   C539      1.0  0.65557  0.39009  0.22161  1.0000
  S   S149      1.0  0.00048  0.29168  0.43059  1.0000
  H   H648      1.0  0.07301  0.95958  0.03208  1.0000
  H   H649      1.0  0.70417  0.41075  0.34298  1.0000
  H   H650      1.0  0.05472  0.09395  0.45161  1.0000
  H   H651      1.0  0.73069  0.91933  0.37364  1.0000
  C   C540      1.0  0.88799  0.92100  0.12479  1.0000
  H   H652      1.0  0.69381  0.92779  0.15511  1.0000
  H   H653      1.0  0.86067  0.37481  0.33369  1.0000
  C   C541      1.0  0.93579  0.39175  0.32038  1.0000
  H   H654      1.0  0.62557  0.31631  0.41703  1.0000
  H   H655      1.0  0.89723  0.16850  0.27020  1.0000
  H   H656      1.0  0.74618  0.18712  0.39885  1.0000
  Fe  Fe77      1.0  0.02962  0.39107  0.04916  1.0000
  C   C542      1.0  0.98110  0.37296  0.35782  1.0000
  H   H657      1.0  0.88562  0.22164  0.10639  1.0000
  H   H658      1.0  0.64859  0.30595  0.03774  1.0000
  C   C543      1.0  0.94755  0.91985  0.13631  1.0000
  H   H659      1.0  0.93182  0.22550  0.11295  1.0000
  C   C544      1.0  0.80322  0.27877  0.18852  1.0000
  H   H660      1.0  0.02917  0.16845  0.09198  1.0000
  S   S150      1.0  0.71785  0.30361  0.41782  1.0000
  Fe  Fe78      1.0  0.75658  0.26197  0.02860  1.0000
  C   C545      1.0  0.85345  0.15733  0.05764  1.0000
  S   S151      1.0  0.05781  0.23790  0.41729  1.0000
  H   H661      1.0  0.68471  0.16356  0.40274  1.0000
  C   C546      1.0  0.77382  0.01703  0.28417  1.0000
  C   C547      1.0  0.07888  0.16509  0.19279  1.0000
  C   C548      1.0  0.75898  0.17224  0.42232  1.0000
  C   C549      1.0  0.59962  0.93181  0.26455  1.0000
  C   C550      1.0  0.83660  0.33526  0.11893  1.0000
  C   C551      1.0  0.04825  0.15789  0.16999  1.0000
  H   H662      1.0  0.96035  0.36690  0.13764  1.0000
  H   H663      1.0  0.03998  0.26203  0.14159  1.0000
  H   H664      1.0  0.66640  0.12879  0.28196  1.0000
  H   H665      1.0  0.69021  0.98488  0.36612  1.0000
  H   H666      1.0  0.89688  0.15248  0.99514  1.0000
  S   S152      1.0  0.92915  0.10492  0.02158  1.0000
  H   H667      1.0  0.62790  0.91503  0.15370  1.0000
  H   H668      1.0  0.96213  0.96366  0.06054  1.0000
  S   S153      1.0  0.88270  0.06548  0.42361  1.0000
  Fe  Fe79      1.0  0.70437  0.21211  0.48363  1.0000
  C   C552      1.0  0.62126  0.34782  0.18208  1.0000
  H   H669      1.0  0.62879  0.09189  0.07164  1.0000
  C   C553      1.0  0.72118  0.07464  0.36734  1.0000
  C   C554      1.0  0.99823  0.25678  0.01166  1.0000
  C   C555      1.0  0.97776  0.18426  0.31207  1.0000
  N   N37       1.0  0.06183  0.26011  0.21743  1.0000
  H   H670      1.0  0.03394  0.13161  0.38223  1.0000
  H   H671      1.0  0.81131  0.00292  0.06983  1.0000
  Fe  Fe80      1.0  0.94644  0.07053  0.08395  1.0000
  N   N38       1.0  0.97926  0.01569  0.26016  1.0000
  H   H672      1.0  0.00464  0.36504  0.35073  1.0000
  C   C556      1.0  0.62504  0.33011  0.44959  1.0000
  H   H673      1.0  0.99150  0.06448  0.20234  1.0000
  C   C557      1.0  0.88795  0.00082  0.11376  1.0000
  C   C558      1.0  0.02538  0.23910  0.26095  1.0000
  H   H674      1.0  0.97774  0.37997  0.26777  1.0000
  H   H675      1.0  0.02291  0.95921  0.45622  1.0000
  C   C559      1.0  0.04370  0.17900  0.39502  1.0000
  H   H676      1.0  0.64990  0.39567  0.08005  1.0000
  Fe  Fe81      1.0  0.02853  0.32887  0.47090  1.0000
  H   H677      1.0  0.87989  0.02533  0.03163  1.0000
  C   C560      1.0  0.09146  0.25050  0.23767  1.0000
  H   H678      1.0  0.65598  0.22061  0.09029  1.0000
  C   C561      1.0  0.89757  0.37913  0.02069  1.0000
  C   C562      1.0  0.86656  0.00904  0.07676  1.0000
  C   C563      1.0  0.99064  0.93695  0.34002  1.0000
  C   C564      1.0  0.95795  0.02207  0.31106  1.0000
  H   H679      1.0  0.77836  0.30718  0.25988  1.0000
  S   S154      1.0  0.72478  0.00628  0.06254  1.0000
  S   S155      1.0  0.63508  0.26545  0.35895  1.0000
  Fe  Fe82      1.0  0.75844  0.27834  0.40178  1.0000
  H   H680      1.0  0.75583  0.15394  0.25824  1.0000
  H   H681      1.0  0.85055  0.00497  0.38134  1.0000
  C   C565      1.0  0.95214  0.38661  0.14644  1.0000
  Fe  Fe83      1.0  0.07541  0.35132  0.01733  1.0000
  C   C566      1.0  0.05159  0.97648  0.28519  1.0000
  Fe  Fe84      1.0  0.02938  0.26129  0.47469  1.0000
  C   C567      1.0  0.89440  0.34662  0.04325  1.0000
  H   H682      1.0  0.82949  0.38547  0.38253  1.0000
  C   C568      1.0  0.97001  0.95194  0.09809  1.0000
  H   H683      1.0  0.71273  0.97388  0.45843  1.0000
  H   H684      1.0  0.77579  0.01102  0.42783  1.0000
  C   C569      1.0  0.96975  0.23053  0.33908  1.0000
  C   C570      1.0  0.66301  0.40039  0.11579  1.0000
  H   H685      1.0  0.63440  0.01641  0.30440  1.0000
  H   H686      1.0  0.05527  0.02355  0.23631  1.0000
  H   H687      1.0  0.02534  0.06095  0.24054  1.0000
  H   H688      1.0  0.69440  0.09403  0.30783  1.0000
  Fe  Fe85      1.0  0.67555  0.25910  0.41164  1.0000
  C   C571      1.0  0.96605  0.38146  0.31123  1.0000
  C   C572      1.0  0.89381  0.22892  0.21741  1.0000
  H   H689      1.0  0.93370  0.91953  0.02908  1.0000
  C   C573      1.0  0.76337  0.00192  0.34675  1.0000
  C   C574      1.0  0.83177  0.96806  0.19421  1.0000
  H   H690      1.0  0.76530  0.33482  0.13902  1.0000
  H   H691      1.0  0.93940  0.01850  0.21038  1.0000
  H   H692      1.0  0.62091  0.12998  0.12679  1.0000
  S   S156      1.0  0.72209  0.07833  0.06431  1.0000
  H   H693      1.0  0.82741  0.32969  0.23263  1.0000
  H   H694      1.0  0.70312  0.93239  0.45976  1.0000
  H   H695      1.0  0.81854  0.06703  0.37872  1.0000
  H   H696      1.0  0.83662  0.17066  0.26293  1.0000
  H   H697      1.0  0.08138  0.98244  0.27039  1.0000
  S   S157      1.0  0.02174  0.33809  0.08568  1.0000
  H   H698      1.0  0.60997  0.19382  0.13545  1.0000
  H   H699      1.0  0.67532  0.06926  0.22914  1.0000
  H   H700      1.0  0.61745  0.35149  0.43085  1.0000
  H   H701      1.0  0.87692  0.20079  0.31178  1.0000
  H   H702      1.0  0.00779  0.26841  0.04318  1.0000
  C   C575      1.0  0.82779  0.99651  0.09839  1.0000
  H   H703      1.0  0.02224  0.04503  0.17815  1.0000
  N   N39       1.0  0.63657  0.38320  0.17600  1.0000
  H   H704      1.0  0.94498  0.04031  0.29574  1.0000
  S   S158      1.0  0.94977  0.29001  0.01074  1.0000
  C   C576      1.0  0.70117  0.96604  0.35580  1.0000
  H   H705      1.0  0.65214  0.34001  0.26556  1.0000
  H   H706      1.0  0.97705  0.36705  0.45026  1.0000
  Fe  Fe86      1.0  0.85021  0.09709  0.44333  1.0000
  H   H707      1.0  0.65417  0.33977  0.45171  1.0000
  C   C577      1.0  0.97477  0.96010  0.32088  1.0000
  H   H708      1.0  0.83376  0.09225  0.27021  1.0000
  H   H709      1.0  0.74414  0.29249  0.18190  1.0000
  C   C578      1.0  0.90817  0.17944  0.22111  1.0000
  H   H710      1.0  0.93102  0.18096  0.37970  1.0000
  S   S159      1.0  0.76213  0.96308  0.18451  1.0000
  H   H711      1.0  0.68400  0.35399  0.33760  1.0000
  H   H712      1.0  0.87104  0.98203  0.30214  1.0000
  S   S160      1.0  0.85783  0.39907  0.21565  1.0000
  H   H713      1.0  0.67861  0.94174  0.37932  1.0000
  H   H714      1.0  0.78914  0.35911  0.02455  1.0000
  C   C579      1.0  0.76965  0.31106  0.14792  1.0000
  S   S161      1.0  0.00192  0.10785  0.07125  1.0000
  H   H715      1.0  0.90980  0.26697  0.13120  1.0000
  N   N40       1.0  0.62308  0.24503  0.12904  1.0000
  C   C580      1.0  0.03606  0.99989  0.26555  1.0000
  H   H716      1.0  0.73555  0.06618  0.33475  1.0000
  C   C581      1.0  0.81484  0.06710  0.29137  1.0000
  C   C582      1.0  0.87712  0.25783  0.47647  1.0000
  H   H717      1.0  0.80040  0.23629  0.42761  1.0000
  S   S162      1.0  0.81797  0.29057  0.99592  1.0000
  H   H718      1.0  0.70549  0.96929  0.30742  1.0000
  C   C583      1.0  0.01445  0.95616  0.15562  1.0000
  H   H719      1.0  0.60011  0.23022  0.22465  1.0000
  C   C584      1.0  0.62819  0.19735  0.98983  1.0000
  C   C585      1.0  0.90417  0.40697  0.18107  1.0000
  C   C586      1.0  0.05249  0.17300  0.10998  1.0000
  C   C587      1.0  0.90454  0.26141  0.17878  1.0000
  H   H720      1.0  0.81871  0.95330  0.24024  1.0000
  C   C588      1.0  0.72743  0.07022  0.42324  1.0000
  C   C589      1.0  0.89498  0.28995  0.43816  1.0000
  H   H721      1.0  0.60835  0.08697  0.44407  1.0000
  C   C590      1.0  0.02892  0.94500  0.32180  1.0000
  H   H722      1.0  0.66233  0.17387  0.34663  1.0000
  C   C591      1.0  0.80609  0.05277  0.35262  1.0000
  C   C592      1.0  0.79902  0.04914  0.25718  1.0000
  C   C593      1.0  0.64318  0.11806  0.32377  1.0000
  C   C594      1.0  0.79332  0.13395  0.48160  1.0000
  C   C595      1.0  0.67901  0.37296  0.30680  1.0000
  H   H723      1.0  0.60163  0.20801  0.46428  1.0000
  H   H724      1.0  0.66442  0.26315  0.17267  1.0000
  C   C596      1.0  0.68684  0.09902  0.44889  1.0000
  C   C597      1.0  0.01324  0.23435  0.99525  1.0000
  H   H725      1.0  0.62279  0.13008  0.31552  1.0000
  C   C598      1.0  0.96554  0.37419  0.41390  1.0000
  N   N41       1.0  0.65603  0.12292  0.37639  1.0000
  Fe  Fe87      1.0  0.99671  0.33203  0.01093  1.0000
  C   C599      1.0  0.85267  0.93277  0.36215  1.0000
  H   H726      1.0  0.94481  0.95231  0.33533  1.0000
  H   H727      1.0  0.01927  0.99430  0.07811  1.0000
  C   C600      1.0  0.99768  0.18112  0.47479  1.0000
  H   H728      1.0  0.71232  0.93565  0.07760  1.0000
  H   H729      1.0  0.67588  0.10942  0.48077  1.0000
  S   S163      1.0  0.96907  0.08709  0.47664  1.0000
  H   H730      1.0  0.64678  0.92947  0.07498  1.0000
  C   C601      1.0  0.64643  0.05923  0.23041  1.0000
  C   C602      1.0  0.62674  0.28644  0.03282  1.0000
  H   H731      1.0  0.01204  0.27688  0.29459  1.0000
  H   H732      1.0  0.93837  0.19368  0.21024  1.0000
  H   H733      1.0  0.80607  0.06052  0.20944  1.0000
  H   H734      1.0  0.91501  0.33800  0.02290  1.0000
  C   C603      1.0  0.87852  0.16572  0.00186  1.0000
  H   H735      1.0  0.89403  0.35710  0.18227  1.0000
  C   C604      1.0  0.75096  0.94493  0.35454  1.0000
  C   C605      1.0  0.80095  0.32491  0.22005  1.0000
  H   H736      1.0  0.79616  0.17483  0.34176  1.0000
  H   H737      1.0  0.88687  0.97432  0.20139  1.0000
  H   H738      1.0  0.70453  0.16560  0.32798  1.0000
  H   H739      1.0  0.09007  0.20534  0.02558  1.0000
  C   C606      1.0  0.63374  0.21586  0.13118  1.0000
  C   C607      1.0  0.02440  0.14529  0.40898  1.0000
  H   H740      1.0  0.68763  0.39280  0.11094  1.0000
  C   C608      1.0  0.80432  0.14554  0.41931  1.0000
  Fe  Fe88      1.0  0.90496  0.11563  0.10313  1.0000
  C   C609      1.0  0.72528  0.17852  0.11547  1.0000
  H   H741      1.0  0.06864  0.19114  0.35822  1.0000
  H   H742      1.0  0.07579  0.15340  0.23914  1.0000
  C   C610      1.0  0.86431  0.32482  0.09133  1.0000
  C   C611      1.0  0.82635  0.25154  0.43129  1.0000
  C   C612      1.0  0.87780  0.30313  0.39776  1.0000
  C   C613      1.0  0.95338  0.00160  0.22777  1.0000
  C   C614      1.0  0.77412  0.39951  0.04039  1.0000
  N   N42       1.0  0.73559  0.96823  0.37436  1.0000
  C   C615      1.0  0.07121  0.29563  0.20989  1.0000
  H   H743      1.0  0.72723  0.13289  0.10473  1.0000
  C   C616      1.0  0.62255  0.11394  0.42663  1.0000
  H   H744      1.0  0.07443  0.30116  0.25175  1.0000
  Fe  Fe89      1.0  0.76342  0.05851  0.02367  1.0000
  H   H745      1.0  0.07177  0.91865  0.44774  1.0000
  C   C617      1.0  0.93474  0.38379  0.42383  1.0000
  H   H746      1.0  0.60062  0.33359  0.22635  1.0000
  S   S164      1.0  0.70732  0.02162  0.18927  1.0000
  C   C618      1.0  0.90188  0.28301  0.26188  1.0000
  C   C619      1.0  0.74212  0.13990  0.18342  1.0000
  H   H747      1.0  0.93098  0.97826  0.25617  1.0000
  C   C620      1.0  0.89097  0.25148  0.30100  1.0000
  C   C621      1.0  0.95691  0.19707  0.34650  1.0000
  H   H748      1.0  0.64358  0.33750  0.17593  1.0000
  C   C622      1.0  0.90206  0.20936  0.12961  1.0000
  C   C623      1.0  0.67782  0.15808  0.36265  1.0000
  S   S165      1.0  0.79052  0.05705  0.09767  1.0000
  S   S166      1.0  0.95634  0.15629  0.09489  1.0000
  S   S167      1.0  0.93638  0.01846  0.08835  1.0000
  C   C624      1.0  0.00600  0.04780  0.21862  1.0000
  C   C625      1.0  0.83228  0.20152  0.01883  1.0000
  C   C626      1.0  0.01150  0.20485  0.27014  1.0000
  S   S168      1.0  0.81882  0.30218  0.35221  1.0000
  H   H749      1.0  0.62888  0.12261  0.46435  1.0000
  S   S169      1.0  0.72758  0.23832  0.12643  1.0000
  C   C627      1.0  0.00346  0.25139  0.29706  1.0000
  H   H750      1.0  0.08870  0.22509  0.23847  1.0000
  Fe  Fe90      1.0  0.97296  0.11857  0.14968  1.0000
  H   H751      1.0  0.81448  0.21534  0.02590  1.0000
  S   S170      1.0  0.62556  0.00795  0.11553  1.0000
  C   C628      1.0  0.63268  0.07570  0.18849  1.0000
  C   C629      1.0  0.60084  0.97449  0.17988  1.0000
  C   C630      1.0  0.71006  0.08214  0.46411  1.0000
  H   H752      1.0  0.74868  0.95613  0.45815  1.0000
  H   H753      1.0  0.89100  0.32809  0.36922  1.0000
  C   C631      1.0  0.85792  0.96618  0.34756  1.0000
  C   C632      1.0  0.78762  0.16534  0.38976  1.0000
  H   H754      1.0  0.93492  0.99963  0.34170  1.0000
  C   C633      1.0  0.87484  0.40701  0.44505  1.0000
  C   C634      1.0  0.91476  0.38120  0.17109  1.0000
  C   C635      1.0  0.84811  0.18046  0.21380  1.0000
  H   H755      1.0  0.88544  0.24752  0.34855  1.0000
  H   H756      1.0  0.05947  0.23062  0.15757  1.0000
  H   H757      1.0  0.71653  0.18509  0.07592  1.0000
  C   C636      1.0  0.96984  0.26306  0.98903  1.0000
  H   H758      1.0  0.77821  0.26266  0.22611  1.0000
  C   C637      1.0  0.84134  0.36875  0.09594  1.0000
  C   C638      1.0  0.78099  0.02059  0.38026  1.0000
  H   H759      1.0  0.08905  0.11849  0.35840  1.0000
  H   H760      1.0  0.75834  0.95070  0.30540  1.0000
  H   H761      1.0  0.90025  0.94491  0.08886  1.0000
  C   C639      1.0  0.69071  0.40487  0.30955  1.0000
  H   H762      1.0  0.92333  0.38295  0.46896  1.0000
  H   H763      1.0  0.97623  0.03206  0.33748  1.0000
  C   C640      1.0  0.84623  0.97915  0.39229  1.0000
  S   S171      1.0  0.06112  0.38112  0.41495  1.0000
  H   H764      1.0  0.96817  0.15809  0.31864  1.0000
  C   C641      1.0  0.61956  0.95937  0.21448  1.0000
  C   C642      1.0  0.91917  0.39332  0.37684  1.0000
  S   S172      1.0  0.91857  0.07862  0.16661  1.0000
  C   C643      1.0  0.59798  0.08095  0.08435  1.0000
  H   H765      1.0  0.76252  0.00425  0.25541  1.0000
  N   N43       1.0  0.88640  0.40341  0.38536  1.0000
  C   C644      1.0  0.84284  0.28431  0.39592  1.0000
  C   C645      1.0  0.88658  0.22478  0.27935  1.0000
  H   H766      1.0  0.77173  0.30444  0.10601  1.0000
  C   C646      1.0  0.73077  0.14865  0.13227  1.0000
  H   H767      1.0  0.04993  0.30458  0.19492  1.0000
  C   C647      1.0  0.81039  0.97617  0.15705  1.0000
  H   H768      1.0  0.61415  0.91947  0.28994  1.0000
  C   C648      1.0  0.99696  0.99220  0.28226  1.0000
  H   H769      1.0  0.80260  0.26712  0.15249  1.0000
  C   C649      1.0  0.67938  0.10364  0.39269  1.0000
  Fe  Fe91      1.0  0.68591  0.02581  0.10931  1.0000
  C   C650      1.0  0.03080  0.19684  0.42901  1.0000
  C   C651      1.0  0.99211  0.12946  0.45662  1.0000
  H   H770      1.0  0.08939  0.27204  0.12398  1.0000
  C   C652      1.0  0.62345  0.02944  0.27272  1.0000
  H   H771      1.0  0.95373  0.24025  0.36695  1.0000
  C   C653      1.0  0.66116  0.36537  0.26418  1.0000
  S   S173      1.0  0.00481  0.12942  0.21506  1.0000
  H   H772      1.0  0.64872  0.29331  0.13466  1.0000
  C   C654      1.0  0.87112  0.39017  0.04716  1.0000
  C   C655      1.0  0.06252  0.25592  0.15784  1.0000
  C   C656      1.0  0.72477  0.95739  0.44055  1.0000
  H   H773      1.0  0.86522  0.38331  0.48108  1.0000
  H   H774      1.0  0.75998  0.40340  0.45589  1.0000
  H   H775      1.0  0.90470  0.30363  0.27887  1.0000
  C   C657      1.0  0.61103  0.25437  0.07478  1.0000
  H   H776      1.0  0.60240  0.12508  0.41317  1.0000
  C   C658      1.0  0.69743  0.09097  0.35216  1.0000
  H   H777      1.0  0.83196  0.19503  0.19587  1.0000
  H   H778      1.0  0.74646  0.05830  0.43452  1.0000
  C   C659      1.0  0.82797  0.95830  0.45060  1.0000
  Fe  Fe92      1.0  0.74893  0.00595  0.13924  1.0000
  H   H779      1.0  0.09084  0.25205  0.28339  1.0000
  C   C660      1.0  0.82165  0.92493  0.46429  1.0000
  C   C661      1.0  0.08716  0.19422  0.07217  1.0000
  C   C662      1.0  0.74634  0.15888  0.48443  1.0000
  H   H780      1.0  0.84697  0.35420  0.41154  1.0000
  H   H781      1.0  0.60619  0.34349  0.14820  1.0000
  C   C663      1.0  0.78945  0.38342  0.00487  1.0000
  H   H782      1.0  0.90498  0.15814  0.20386  1.0000
  H   H783      1.0  0.86317  0.29984  0.10532  1.0000
  C   C664      1.0  0.87052  0.98042  0.17246  1.0000
  H   H784      1.0  0.92135  0.30488  0.44113  1.0000
  H   H785      1.0  0.62547  0.18514  0.03565  1.0000
  Fe  Fe93      1.0  0.98199  0.14353  0.01724  1.0000
  H   H786      1.0  0.02699  0.19350  0.24581  1.0000
  C   C665      1.0  0.74687  0.16063  0.21876  1.0000
  H   H787      1.0  0.81156  0.16929  0.10929  1.0000
  S   S174      1.0  0.71782  0.23685  0.38557  1.0000
  H   H788      1.0  0.77673  0.94569  0.36789  1.0000
  H   H789      1.0  0.74556  0.20657  0.22901  1.0000
  H   H790      1.0  0.91686  0.31237  0.17046  1.0000
  H   H791      1.0  0.62903  0.09154  0.33017  1.0000
  C   C666      1.0  0.74112  0.19038  0.20221  1.0000
  C   C667      1.0  0.84327  0.23837  0.47193  1.0000
  H   H792      1.0  0.96811  0.99643  0.18899  1.0000
  Fe  Fe94      1.0  0.74634  0.07302  0.14182  1.0000
  H   H793      1.0  0.03391  0.22832  0.01478  1.0000
  S   S175      1.0  0.83763  0.13408  0.37867  1.0000
  H   H794      1.0  0.76171  0.38766  0.08773  1.0000
  C   C668      1.0  0.85454  0.37853  0.37803  1.0000
  H   H795      1.0  0.84232  0.15874  0.19782  1.0000
  C   C669      1.0  0.73118  0.19969  0.14979  1.0000
  H   H796      1.0  0.64935  0.96773  0.20108  1.0000
  H   H797      1.0  0.90012  0.18760  0.11454  1.0000
  C   C670      1.0  0.99328  0.92467  0.19374  1.0000
  H   H798      1.0  0.64463  0.20914  0.16996  1.0000
  C   C671      1.0  0.65543  0.27127  0.13227  1.0000
  C   C672      1.0  0.90861  0.28792  0.20091  1.0000
  S   S176      1.0  0.75169  0.10385  0.20334  1.0000
  N   N44       1.0  0.80335  0.31267  0.16800  1.0000
  N   N45       1.0  0.88830  0.20022  0.19547  1.0000
  H   H799      1.0  0.82767  0.27834  0.20529  1.0000
  H   H800      1.0  0.04004  0.96987  0.16293  1.0000
  H   H801      1.0  0.79540  0.34813  0.21161  1.0000
  C   C673      1.0  0.83034  0.17527  0.06597  1.0000
  H   H802      1.0  0.04091  0.92652  0.33505  1.0000
  C   C674      1.0  0.00289  0.96974  0.10776  1.0000
  S   S177      1.0  0.85242  0.12590  0.11801  1.0000
  H   H803      1.0  0.82168  0.37857  0.11506  1.0000
  H   H804      1.0  0.67986  0.27830  0.09322  1.0000
  H   H805      1.0  0.88161  0.92580  0.16809  1.0000
  C   C675      1.0  0.60517  0.39522  0.18045  1.0000
  C   C676      1.0  0.06995  0.08713  0.48226  1.0000
  S   S178      1.0  0.86812  0.91559  0.30893  1.0000
  C   C677      1.0  0.09630  0.39911  0.44504  1.0000
  C   C678      1.0  0.69869  0.91560  0.12078  1.0000
  C   C679      1.0  0.92323  0.32775  0.88256  1.0000
  C   C680      1.0  0.71572  0.17147  0.88168  1.0000
  C   C681      1.0  0.74182  0.21742  0.68379  1.0000
  S   S179      1.0  0.88733  0.40720  0.69153  1.0000
  H   H806      1.0  0.75597  0.13105  0.56190  1.0000
  H   H807      1.0  0.08713  0.14935  0.51715  1.0000
  H   H808      1.0  0.62815  0.23494  0.66414  1.0000
  C   C682      1.0  0.04954  0.97170  0.57814  1.0000
  C   C683      1.0  0.75315  0.32265  0.63955  1.0000
  H   H809      1.0  0.65036  0.29958  0.74007  1.0000
  H   H810      1.0  0.01140  0.33478  0.67327  1.0000
  C   C684      1.0  0.70910  0.98696  0.93396  1.0000
  S   S180      1.0  0.84202  0.98103  0.80983  1.0000
  H   H811      1.0  0.73235  0.00667  0.93556  1.0000
  S   S181      1.0  0.01557  0.18801  0.93930  1.0000
  C   C685      1.0  0.80669  0.39942  0.94407  1.0000
  H   H812      1.0  0.67358  0.40966  0.76375  1.0000
  C   C686      1.0  0.09399  0.37489  0.69699  1.0000
  S   S182      1.0  0.87888  0.11258  0.50908  1.0000
  C   C687      1.0  0.67050  0.38597  0.75809  1.0000
  C   C688      1.0  0.09485  0.40730  0.67308  1.0000
  S   S183      1.0  0.74212  0.30029  0.96980  1.0000
  H   H813      1.0  0.90609  0.12699  0.90765  1.0000
  H   H814      1.0  0.83268  0.32442  0.51408  1.0000
  H   H815      1.0  0.71986  0.40463  0.63331  1.0000
  N   N46       1.0  0.92689  0.14873  0.81200  1.0000
  H   H816      1.0  0.98686  0.19460  0.50004  1.0000
  S   S184      1.0  0.70003  0.29955  0.58471  1.0000
  C   C689      1.0  0.79374  0.20511  0.82710  1.0000
  C   C690      1.0  0.76190  0.24493  0.69878  1.0000
  H   H817      1.0  0.78146  0.21067  0.78993  1.0000
  C   C691      1.0  0.00073  0.21909  0.95472  1.0000
  H   H818      1.0  0.79025  0.12840  0.83223  1.0000
  H   H819      1.0  0.97807  0.19036  0.77863  1.0000
  H   H820      1.0  0.71581  0.07941  0.50696  1.0000
  C   C692      1.0  0.72335  0.11894  0.90747  1.0000
  C   C693      1.0  0.79494  0.15469  0.81242  1.0000
  H   H821      1.0  0.69629  0.16432  0.77321  1.0000
  H   H822      1.0  0.91630  0.30081  0.89903  1.0000
  C   C694      1.0  0.06645  0.06044  0.58419  1.0000
  H   H823      1.0  0.78933  0.17606  0.93946  1.0000
  C   C695      1.0  0.04925  0.07069  0.54167  1.0000
  Fe  Fe95      1.0  0.83284  0.06902  0.57663  1.0000
  C   C696      1.0  0.74226  0.94440  0.75191  1.0000
  H   H824      1.0  0.98988  0.39355  0.77535  1.0000
  H   H825      1.0  0.76983  0.31390  0.50179  1.0000
  H   H826      1.0  0.73169  0.36933  0.89156  1.0000
  C   C697      1.0  0.09598  0.23708  0.67568  1.0000
  Fe  Fe96      1.0  0.81767  0.26388  0.92824  1.0000
  H   H827      1.0  0.67312  0.07693  0.95350  1.0000
  H   H828      1.0  0.70070  0.19566  0.61422  1.0000
  H   H829      1.0  0.93591  0.28091  0.82285  1.0000
  H   H830      1.0  0.89535  0.94864  0.76958  1.0000
  H   H831      1.0  0.09674  0.94251  0.94693  1.0000
  N   N47       1.0  0.72216  0.38033  0.80506  1.0000
  H   H832      1.0  0.69169  0.92470  0.87569  1.0000
  Fe  Fe97      1.0  0.95604  0.26974  0.51754  1.0000
  H   H833      1.0  0.89788  0.33193  0.87398  1.0000
  H   H834      1.0  0.81561  0.27866  0.69284  1.0000
  N   N48       1.0  0.70077  0.20424  0.69898  1.0000
  H   H835      1.0  0.61375  0.33280  0.70594  1.0000
  H   H836      1.0  0.79590  0.33899  0.68200  1.0000
  H   H837      1.0  0.73433  0.97826  0.65185  1.0000
  H   H838      1.0  0.86095  0.91781  0.54860  1.0000
  S   S185      1.0  0.70650  0.16291  0.52486  1.0000
  H   H839      1.0  0.80494  0.93124  0.71785  1.0000
  C   C698      1.0  0.68515  0.94063  0.89960  1.0000
  C   C699      1.0  0.69269  0.36795  0.77699  1.0000
  Fe  Fe98      1.0  0.70380  0.27485  0.51385  1.0000
  H   H840      1.0  0.06060  0.95178  0.74209  1.0000
  H   H841      1.0  0.81874  0.95697  0.64219  1.0000
  H   H842      1.0  0.07705  0.19992  0.51943  1.0000
  N   N49       1.0  0.78083  0.16926  0.85696  1.0000
  C   C700      1.0  0.04277  0.24185  0.76494  1.0000
  C   C701      1.0  0.73349  0.04281  0.64519  1.0000
  C   C702      1.0  0.96559  0.37984  0.81555  1.0000
  H   H843      1.0  0.59925  0.95226  0.87478  1.0000
  H   H844      1.0  0.59853  0.35127  0.53847  1.0000
  S   S186      1.0  0.63365  0.97640  0.75090  1.0000
  C   C703      1.0  0.94513  0.33216  0.77902  1.0000
  H   H845      1.0  0.72558  0.19787  0.86372  1.0000
  H   H846      1.0  0.60736  0.26626  0.49638  1.0000
  H   H847      1.0  0.68373  0.23052  0.97369  1.0000
  S   S187      1.0  0.99900  0.38378  0.98069  1.0000
  H   H848      1.0  0.92008  0.00351  0.69496  1.0000
  C   C704      1.0  0.66220  0.12163  0.93256  1.0000
  N   N50       1.0  0.76296  0.94841  0.69056  1.0000
  N   N51       1.0  0.62024  0.07730  0.67721  1.0000
  C   C705      1.0  0.68262  0.22074  0.73525  1.0000
  C   C706      1.0  0.64291  0.95816  0.95927  1.0000
  H   H849      1.0  0.73986  0.10364  0.90973  1.0000
  H   H850      1.0  0.01210  0.34756  0.80139  1.0000
  C   C707      1.0  0.66128  0.22277  0.95451  1.0000
  C   C708      1.0  0.76426  0.14039  0.51401  1.0000
  C   C709      1.0  0.68937  0.09661  0.66925  1.0000
  H   H851      1.0  0.77630  0.00049  0.66613  1.0000
  C   C710      1.0  0.78990  0.33283  0.64321  1.0000
  C   C711      1.0  0.63600  0.22755  0.86996  1.0000
  C   C712      1.0  0.05861  0.95923  0.69552  1.0000
  C   C713      1.0  0.81507  0.05780  0.83325  1.0000
  H   H852      1.0  0.64036  0.92224  0.82485  1.0000
  H   H853      1.0  0.73337  0.09844  0.77800  1.0000
  Fe  Fe99      1.0  0.05425  0.39341  0.91962  1.0000
  S   S188      1.0  0.61476  0.99578  0.58943  1.0000
  H   H854      1.0  0.98161  0.30888  0.85464  1.0000
  C   C714      1.0  0.06262  0.34891  0.69746  1.0000
  H   H855      1.0  0.92897  0.33690  0.92010  1.0000
  H   H856      1.0  0.63881  0.23927  0.82375  1.0000
  C   C715      1.0  0.73622  0.03124  0.74733  1.0000
  H   H857      1.0  0.82995  0.21312  0.49993  1.0000
  H   H858      1.0  0.90503  0.96149  0.55626  1.0000
  C   C716      1.0  0.95779  0.24810  0.94821  1.0000
  H   H859      1.0  0.63580  0.33741  0.55043  1.0000
  C   C717      1.0  0.71844  0.10240  0.69581  1.0000
  H   H860      1.0  0.85074  0.25397  0.63345  1.0000
  C   C718      1.0  0.99964  0.91609  0.72309  1.0000
  H   H861      1.0  0.96569  0.17040  0.85712  1.0000
  H   H862      1.0  0.04536  0.97798  0.69300  1.0000
  C   C719      1.0  0.97843  0.14751  0.48879  1.0000
  C   C720      1.0  0.80849  0.02285  0.93091  1.0000
  C   C721      1.0  0.97360  0.22657  0.93047  1.0000
  S   S189      1.0  0.00923  0.26821  0.68766  1.0000
  S   S190      1.0  0.08514  0.40474  0.98540  1.0000
  H   H863      1.0  0.68099  0.01772  0.63223  1.0000
  H   H864      1.0  0.74985  0.18294  0.63648  1.0000
  H   H865      1.0  0.82550  0.16689  0.79209  1.0000
  H   H866      1.0  0.68423  0.36343  0.89230  1.0000
  C   C722      1.0  0.66557  0.23720  0.89415  1.0000
  H   H867      1.0  0.71117  0.36799  0.61356  1.0000
  H   H868      1.0  0.61562  0.95566  0.98322  1.0000
  H   H869      1.0  0.95346  0.13545  0.52559  1.0000
  H   H870      1.0  0.74838  0.25768  0.72290  1.0000
  H   H871      1.0  0.08771  0.97076  0.66648  1.0000
  H   H872      1.0  0.96009  0.12055  0.83981  1.0000
  S   S191      1.0  0.62742  0.39557  0.90143  1.0000
  H   H873      1.0  0.81571  0.97418  0.70242  1.0000
  H   H874      1.0  0.60307  0.02528  0.71736  1.0000
  H   H875      1.0  0.78685  0.21834  0.85864  1.0000
  C   C723      1.0  0.03697  0.38706  0.64893  1.0000
  H   H876      1.0  0.76614  0.38965  0.72739  1.0000
  C   C724      1.0  0.06947  0.25011  0.66069  1.0000
  C   C725      1.0  0.65167  0.08387  0.70386  1.0000
  C   C726      1.0  0.88833  0.13244  0.74438  1.0000
  C   C727      1.0  0.75377  0.04710  0.68659  1.0000
  H   H877      1.0  0.69006  0.21862  0.77799  1.0000
  C   C728      1.0  0.04286  0.25248  0.70538  1.0000
  H   H878      1.0  0.01555  0.39185  0.62980  1.0000
  C   C729      1.0  0.90335  0.19748  0.68068  1.0000
  H   H879      1.0  0.06831  0.21935  0.82596  1.0000
  H   H880      1.0  0.74702  0.11111  0.66878  1.0000
  Fe  Fe100     1.0  0.82035  0.93024  0.87334  1.0000
  C   C730      1.0  0.67738  0.15552  0.90664  1.0000
  H   H881      1.0  0.64609  0.05981  0.61115  1.0000
  S   S192      1.0  0.86468  0.03547  0.56947  1.0000
  C   C731      1.0  0.61421  0.29432  0.98252  1.0000
  H   H882      1.0  0.69444  0.15414  0.70568  1.0000
  C   C732      1.0  0.68435  0.33635  0.77000  1.0000
  H   H883      1.0  0.65883  0.19821  0.65209  1.0000
  C   C733      1.0  0.76306  0.20331  0.65105  1.0000
  S   S193      1.0  0.89599  0.24187  0.53143  1.0000
  C   C734      1.0  0.93215  0.34098  0.68174  1.0000
  H   H884      1.0  0.75492  0.35104  0.78373  1.0000
  C   C735      1.0  0.06854  0.22787  0.77994  1.0000
  C   C736      1.0  0.91177  0.15741  0.76106  1.0000
  H   H885      1.0  0.91696  0.26069  0.74412  1.0000
  C   C737      1.0  0.63581  0.34263  0.72495  1.0000
  H   H886      1.0  0.69910  0.23465  0.61728  1.0000
  C   C738      1.0  0.91880  0.19037  0.72774  1.0000
  S   S194      1.0  0.86398  0.34274  0.60348  1.0000
  H   H887      1.0  0.81754  0.20568  0.60734  1.0000
  S   S195      1.0  0.80827  0.30198  0.86087  1.0000
  C   C739      1.0  0.91193  0.98188  0.68086  1.0000
  C   C740      1.0  0.64791  0.93727  0.92514  1.0000
  C   C741      1.0  0.93556  0.29847  0.78380  1.0000
  H   H888      1.0  0.61737  0.07064  0.79494  1.0000
  H   H889      1.0  0.74634  0.05610  0.59856  1.0000
  C   C742      1.0  0.71007  0.36094  0.86892  1.0000
  C   C743      1.0  0.77481  0.31745  0.54263  1.0000
  C   C744      1.0  0.68512  0.10336  0.93307  1.0000
  H   H890      1.0  0.78077  0.38880  0.51224  1.0000
  H   H891      1.0  0.94197  0.38772  0.80874  1.0000
  C   C745      1.0  0.81951  0.00114  0.90498  1.0000
  H   H892      1.0  0.08600  0.32719  0.79739  1.0000
  C   C746      1.0  0.91485  0.98499  0.62101  1.0000
  Fe  Fe101     1.0  0.01096  0.27830  0.59107  1.0000
  H   H893      1.0  0.77954  0.98538  0.60512  1.0000
  C   C747      1.0  0.76300  0.97932  0.65161  1.0000
  H   H894      1.0  0.06560  0.99204  0.58991  1.0000
  H   H895      1.0  0.62597  0.31894  0.95143  1.0000
  H   H896      1.0  0.98383  0.93286  0.71747  1.0000
  C   C748      1.0  0.60286  0.20219  0.90533  1.0000
  H   H897      1.0  0.86993  0.17795  0.62735  1.0000
  H   H898      1.0  0.08376  0.26041  0.89069  1.0000
  C   C749      1.0  0.88096  0.17229  0.66497  1.0000
  H   H899      1.0  0.87603  0.10937  0.86770  1.0000
  H   H900      1.0  0.01963  0.06607  0.55456  1.0000
  H   H901      1.0  0.60691  0.06978  0.59716  1.0000
  C   C750      1.0  0.85718  0.20960  0.96296  1.0000
  C   C751      1.0  0.92431  0.28653  0.73911  1.0000
  C   C752      1.0  0.89595  0.13285  0.86772  1.0000
  H   H902      1.0  0.78998  0.13794  0.93162  1.0000
  S   S196      1.0  0.98096  0.31000  0.55400  1.0000
  H   H903      1.0  0.92600  0.00922  0.58833  1.0000
  C   C753      1.0  0.68941  0.20833  0.64327  1.0000
  C   C754      1.0  0.59916  0.18689  0.96508  1.0000
  C   C755      1.0  0.74621  0.91929  0.67266  1.0000
  H   H904      1.0  0.96395  0.21489  0.89943  1.0000
  Fe  Fe102     1.0  0.60207  0.96637  0.68492  1.0000
  H   H905      1.0  0.88155  0.10690  0.76776  1.0000
  H   H906      1.0  0.02238  0.24381  0.79970  1.0000
  S   S197      1.0  0.80138  0.07071  0.66360  1.0000
  H   H907      1.0  0.89882  0.19755  0.91123  1.0000
  S   S198      1.0  0.06015  0.29963  0.51028  1.0000
  H   H908      1.0  0.69702  0.10177  0.62164  1.0000
  H   H909      1.0  0.62480  0.12779  0.65109  1.0000
  C   C756      1.0  0.95408  0.17748  0.81928  1.0000
  N   N52       1.0  0.74319  0.41225  0.53994  1.0000
  H   H910      1.0  0.75428  0.96627  0.76592  1.0000
  C   C757      1.0  0.60811  0.27996  0.52931  1.0000
  C   C758      1.0  0.87987  0.19142  0.95446  1.0000
  C   C759      1.0  0.82853  0.00793  0.84307  1.0000
  H   H911      1.0  0.65926  0.16952  0.90621  1.0000
  H   H912      1.0  0.90956  0.22273  0.65502  1.0000
  C   C760      1.0  0.64515  0.07893  0.76594  1.0000
  C   C761      1.0  0.88742  0.92513  0.64528  1.0000
  C   C762      1.0  0.81076  0.32484  0.54841  1.0000
  H   H913      1.0  0.97383  0.38793  0.85288  1.0000
  C   C763      1.0  0.00977  0.92174  0.53952  1.0000
  H   H914      1.0  0.07295  0.36247  0.53151  1.0000
  C   C764      1.0  0.03477  0.35503  0.67331  1.0000
  H   H915      1.0  0.93668  0.21118  0.73624  1.0000
  C   C765      1.0  0.73997  0.15346  0.88113  1.0000
  C   C766      1.0  0.79795  0.16414  0.90645  1.0000
  H   H916      1.0  0.64941  0.10193  0.58428  1.0000
  H   H917      1.0  0.81269  0.07936  0.80538  1.0000
  H   H918      1.0  0.93612  0.25310  0.93036  1.0000
  S   S199      1.0  0.70885  0.26490  0.84778  1.0000
  Fe  Fe103     1.0  0.90794  0.07769  0.49520  1.0000
  H   H919      1.0  0.80198  0.01787  0.97852  1.0000
  H   H920      1.0  0.05039  0.04807  0.63036  1.0000
  H   H921      1.0  0.96784  0.13560  0.76053  1.0000
  C   C767      1.0  0.02561  0.95379  0.50120  1.0000
  C   C768      1.0  0.60614  0.32913  0.55054  1.0000
  H   H922      1.0  0.65176  0.20975  0.74697  1.0000
  S   S200      1.0  0.98340  0.23712  0.55968  1.0000
  H   H923      1.0  0.92035  0.39569  0.98237  1.0000
  C   C769      1.0  0.81849  0.33294  0.59821  1.0000
  H   H924      1.0  0.83298  0.04146  0.75940  1.0000
  H   H925      1.0  0.94120  0.19530  0.82866  1.0000
  C   C770      1.0  0.88594  0.92293  0.70559  1.0000
  H   H926      1.0  0.73328  0.36769  0.51636  1.0000
  H   H927      1.0  0.69020  0.24718  0.71073  1.0000
  C   C771      1.0  0.71523  0.96531  0.90383  1.0000
  H   H928      1.0  0.93072  0.35737  0.64201  1.0000
  C   C772      1.0  0.89785  0.95091  0.72292  1.0000
  H   H929      1.0  0.74350  0.96807  0.88289  1.0000
  H   H930      1.0  0.82873  0.17431  0.88999  1.0000
  H   H931      1.0  0.69897  0.32070  0.78534  1.0000
  H   H932      1.0  0.68555  0.99824  0.81350  1.0000
  H   H933      1.0  0.78146  0.15689  0.77572  1.0000
  C   C773      1.0  0.63132  0.07717  0.61475  1.0000
  C   C774      1.0  0.69898  0.01036  0.76647  1.0000
  C   C775      1.0  0.73504  0.92147  0.61943  1.0000
  C   C776      1.0  0.94618  0.12554  0.80419  1.0000
  C   C777      1.0  0.82066  0.24331  0.64876  1.0000
  C   C778      1.0  0.73244  0.39271  0.60383  1.0000
  C   C779      1.0  0.67301  0.98308  0.96245  1.0000
  C   C780      1.0  0.92232  0.30772  0.68837  1.0000
  H   H934      1.0  0.75157  0.03470  0.77963  1.0000
  S   S201      1.0  0.62463  0.93612  0.49458  1.0000
  Fe  Fe104     1.0  0.88396  0.39334  0.60897  1.0000
  S   S202      1.0  0.85907  0.24117  0.90221  1.0000
  H   H935      1.0  0.87980  0.14886  0.87451  1.0000
  C   C781      1.0  0.87338  0.13985  0.69691  1.0000
  H   H936      1.0  0.08799  0.14354  0.59323  1.0000
  C   C782      1.0  0.69624  0.02153  0.66438  1.0000
  H   H937      1.0  0.80698  0.11985  0.50514  1.0000
  Fe  Fe105     1.0  0.74793  0.27335  0.90347  1.0000
  H   H938      1.0  0.94998  0.37916  0.71833  1.0000
  Fe  Fe106     1.0  0.80356  0.32646  0.93137  1.0000
  C   C783      1.0  0.06682  0.41306  0.64911  1.0000
  H   H939      1.0  0.82453  0.21611  0.80842  1.0000
  H   H940      1.0  0.91304  0.29844  0.65406  1.0000
  H   H941      1.0  0.85614  0.12027  0.68436  1.0000
  H   H942      1.0  0.62665  0.38804  0.71743  1.0000
  H   H943      1.0  0.61075  0.28308  0.66561  1.0000
  N   N53       1.0  0.95525  0.34388  0.82831  1.0000
  C   C784      1.0  0.94323  0.35319  0.72629  1.0000
  S   S203      1.0  0.65935  0.23147  0.50945  1.0000
  H   H944      1.0  0.66828  0.07846  0.84014  1.0000
  H   H945      1.0  0.82197  0.97967  0.93282  1.0000
  C   C785      1.0  0.59975  0.23145  0.68466  1.0000
  S   S204      1.0  0.82955  0.38113  0.90056  1.0000
  C   C786      1.0  0.68624  0.16886  0.73298  1.0000
  H   H946      1.0  0.74278  0.92318  0.78569  1.0000
  C   C787      1.0  0.80075  0.25738  0.68170  1.0000
  C   C788      1.0  0.67917  0.00496  0.72508  1.0000
  S   S205      1.0  0.79397  0.07919  0.92612  1.0000
  C   C789      1.0  0.80186  0.21615  0.63396  1.0000
  H   H947      1.0  0.63257  0.10931  0.95224  1.0000
  S   S206      1.0  0.80283  0.05515  0.51136  1.0000
  H   H948      1.0  0.99527  0.34400  0.87826  1.0000
  C   C790      1.0  0.82639  0.03630  0.80725  1.0000
  C   C791      1.0  0.71089  0.09548  0.75733  1.0000
  C   C792      1.0  0.65640  0.32397  0.74428  1.0000
  C   C793      1.0  0.64299  0.37362  0.73158  1.0000
  H   H949      1.0  0.06971  0.25836  0.61468  1.0000
  C   C794      1.0  0.80219  0.95277  0.68826  1.0000
  C   C795      1.0  0.75500  0.39234  0.50444  1.0000
  H   H950      1.0  0.92688  0.10123  0.80664  1.0000
  S   S207      1.0  0.75751  0.23288  0.96502  1.0000
  C   C796      1.0  0.98741  0.33564  0.84101  1.0000
  H   H951      1.0  0.65530  0.15875  0.74794  1.0000
  H   H952      1.0  0.63611  0.28597  0.53675  1.0000
  C   C797      1.0  0.75719  0.37696  0.77622  1.0000
  H   H953      1.0  0.70430  0.33441  0.87533  1.0000
  S   S208      1.0  0.05009  0.34115  0.94525  1.0000
  N   N54       1.0  0.03709  0.93073  0.67990  1.0000
  H   H954      1.0  0.05933  0.32358  0.71633  1.0000
  H   H955      1.0  0.78042  0.38804  0.79410  1.0000
  C   C798      1.0  0.03353  0.93923  0.61849  1.0000
  C   C799      1.0  0.67431  0.08405  0.79223  1.0000
  C   C800      1.0  0.80654  0.05127  0.89498  1.0000
  C   C801      1.0  0.90267  0.95715  0.60316  1.0000
  C   C802      1.0  0.74562  0.31450  0.58939  1.0000
  H   H956      1.0  0.75682  0.38908  0.61741  1.0000
  H   H957      1.0  0.73070  0.32060  0.67579  1.0000
  Fe  Fe107     1.0  0.83793  0.02511  0.49857  1.0000
  H   H958      1.0  0.73668  0.94438  0.59014  1.0000
  C   C803      1.0  0.04543  0.97872  0.52047  1.0000
  H   H959      1.0  0.68662  0.39371  0.53613  1.0000
  S   S209      1.0  0.81133  0.97231  0.50778  1.0000
  H   H960      1.0  0.08467  0.19978  0.58917  1.0000
  H   H961      1.0  0.05799  0.00361  0.49038  1.0000
  C   C804      1.0  0.60400  0.10301  0.67757  1.0000
  C   C805      1.0  0.09516  0.22553  0.73538  1.0000
  H   H962      1.0  0.71265  0.94110  0.75491  1.0000
  N   N55       1.0  0.59913  0.30968  0.50913  1.0000
  S   S210      1.0  0.74682  0.25233  0.49823  1.0000
  C   C806      1.0  0.09531  0.38491  0.50394  1.0000
  H   H963      1.0  0.08313  0.91559  0.65320  1.0000
  H   H964      1.0  0.66820  0.99958  0.98693  1.0000
  C   C807      1.0  0.01312  0.77032  0.41582  1.0000
  C   C808      1.0  0.75705  0.73310  0.31804  1.0000
  C   C809      1.0  0.74611  0.86027  0.42873  1.0000
  C   C810      1.0  0.83490  0.91243  0.42061  1.0000
  H   H965      1.0  0.05722  0.48683  0.15313  1.0000
  H   H966      1.0  0.70325  0.76505  0.42748  1.0000
  S   S211      1.0  0.89367  0.86648  0.43657  1.0000
  H   H967      1.0  0.98967  0.46674  0.13606  1.0000
  H   H968      1.0  0.76476  0.76389  0.43276  1.0000
  C   C811      1.0  0.78983  0.46437  0.46423  1.0000
  C   C812      1.0  0.94997  0.53512  0.12197  1.0000
  S   S212      1.0  0.05935  0.70739  0.39824  1.0000
  H   H969      1.0  0.77416  0.66408  0.03267  1.0000
  C   C813      1.0  0.84097  0.68167  0.32013  1.0000
  H   H970      1.0  0.07329  0.67406  0.14787  1.0000
  S   S213      1.0  0.65832  0.74585  0.35035  1.0000
  N   N56       1.0  0.91266  0.90168  0.12517  1.0000
  H   H971      1.0  0.68470  0.81350  0.34650  1.0000
  H   H972      1.0  0.03542  0.62072  0.09282  1.0000
  H   H973      1.0  0.78235  0.62754  0.28714  1.0000
  S   S214      1.0  0.07033  0.70446  0.26286  1.0000
  H   H974      1.0  0.60892  0.88149  0.44820  1.0000
  H   H975      1.0  0.03183  0.68084  0.17604  1.0000
  H   H976      1.0  0.67384  0.42745  0.10609  1.0000
  S   S215      1.0  0.69573  0.63970  0.01950  1.0000
  H   H977      1.0  0.05878  0.62871  0.23335  1.0000
  C   C814      1.0  0.64224  0.83031  0.17552  1.0000
  S   S216      1.0  0.97998  0.84836  0.38742  1.0000
  H   H978      1.0  0.99833  0.47311  0.41070  1.0000
  H   H979      1.0  0.07671  0.55374  0.34536  1.0000
  C   C815      1.0  0.04339  0.66718  0.14937  1.0000
  C   C816      1.0  0.66899  0.52958  0.07498  1.0000
  C   C817      1.0  0.96859  0.44298  0.14572  1.0000
  H   H980      1.0  0.85160  0.41642  0.44938  1.0000
  H   H981      1.0  0.80738  0.89396  0.25243  1.0000
  H   H982      1.0  0.92680  0.46383  0.03090  1.0000
  C   C818      1.0  0.86619  0.63839  0.32627  1.0000
  H   H983      1.0  0.87170  0.44508  0.34865  1.0000
  Fe  Fe108     1.0  0.91900  0.83417  0.40085  1.0000
  C   C819      1.0  0.06737  0.47461  0.40509  1.0000
  H   H984      1.0  0.88009  0.73069  0.27616  1.0000
  H   H985      1.0  0.74087  0.84984  0.19243  1.0000
  C   C820      1.0  0.76143  0.86407  0.36893  1.0000
  H   H986      1.0  0.80270  0.58300  0.34170  1.0000
  C   C821      1.0  0.67017  0.75976  0.01588  1.0000
  C   C822      1.0  0.68780  0.82400  0.42688  1.0000
  S   S217      1.0  0.89517  0.83729  0.32358  1.0000
  H   H987      1.0  0.70799  0.85524  0.24722  1.0000
  C   C823      1.0  0.01620  0.82517  0.24405  1.0000
  H   H988      1.0  0.94999  0.71348  0.37982  1.0000
  H   H989      1.0  0.88237  0.87195  0.21559  1.0000
  C   C824      1.0  0.05768  0.49762  0.31020  1.0000
  C   C825      1.0  0.01940  0.49771  0.40198  1.0000
  C   C826      1.0  0.93099  0.43808  0.16748  1.0000
  H   H990      1.0  0.86565  0.85606  0.16029  1.0000
  H   H991      1.0  0.77262  0.72519  0.28613  1.0000
  H   H992      1.0  0.86265  0.80170  0.01189  1.0000
  H   H993      1.0  0.79041  0.87888  0.34933  1.0000
  H   H994      1.0  0.64466  0.63010  0.31278  1.0000
  Fe  Fe109     1.0  0.70843  0.65254  0.09896  1.0000
  S   S218      1.0  0.67861  0.57503  0.45667  1.0000
  Fe  Fe110     1.0  0.61934  0.73415  0.43978  1.0000
  H   H995      1.0  0.86428  0.61317  0.33884  1.0000
  C   C827      1.0  0.79905  0.66284  0.00415  1.0000
  C   C828      1.0  0.78319  0.62923  0.42719  1.0000
  C   C829      1.0  0.85550  0.72690  0.99735  1.0000
  H   H996      1.0  0.05619  0.87552  0.07745  1.0000
  H   H997      1.0  0.64530  0.82372  0.13510  1.0000
  C   C830      1.0  0.08345  0.53269  0.36888  1.0000
  H   H998      1.0  0.61224  0.60200  0.03431  1.0000
  H   H999      1.0  0.74548  0.54488  0.05579  1.0000
  H   H1000     1.0  0.68959  0.70814  0.01445  1.0000
  H   H1001     1.0  0.90750  0.85287  0.17356  1.0000
  C   C831      1.0  0.92150  0.57740  0.21230  1.0000
  H   H1002     1.0  0.92713  0.79017  0.24333  1.0000
  C   C832      1.0  0.70149  0.74373  0.35641  1.0000
  N   N57       1.0  0.64431  0.72584  0.02722  1.0000
  H   H1003     1.0  0.90517  0.70059  0.12999  1.0000
  H   H1004     1.0  0.79381  0.83444  0.22341  1.0000
  C   C833      1.0  0.70939  0.84034  0.45755  1.0000
  C   C834      1.0  0.69171  0.54493  0.30541  1.0000
  C   C835      1.0  0.08134  0.51850  0.20091  1.0000
  H   H1005     1.0  0.81940  0.51512  0.00544  1.0000
  H   H1006     1.0  0.61457  0.42220  0.16873  1.0000
  H   H1007     1.0  0.79036  0.89096  0.19058  1.0000
  C   C836      1.0  0.94651  0.55788  0.07460  1.0000
  C   C837      1.0  0.98821  0.84457  0.45697  1.0000
  H   H1008     1.0  0.94773  0.75632  0.11519  1.0000
  C   C838      1.0  0.97736  0.57685  0.02576  1.0000
  C   C839      1.0  0.60336  0.67107  0.32084  1.0000
  H   H1009     1.0  0.76284  0.87226  0.45346  1.0000
  H   H1010     1.0  0.64709  0.50354  0.37038  1.0000
  H   H1011     1.0  0.96091  0.49683  0.04081  1.0000
  H   H1012     1.0  0.62631  0.77983  0.22807  1.0000
  C   C840      1.0  0.95165  0.79441  0.25922  1.0000
  H   H1013     1.0  0.00981  0.75516  0.46160  1.0000
  H   H1014     1.0  0.09565  0.47634  0.38251  1.0000
  C   C841      1.0  0.84128  0.73459  0.16855  1.0000
  H   H1015     1.0  0.83045  0.88669  0.43227  1.0000
  H   H1016     1.0  0.76653  0.90362  0.24664  1.0000
  H   H1017     1.0  0.92289  0.45799  0.17559  1.0000
  C   C842      1.0  0.78117  0.88659  0.23954  1.0000
  C   C843      1.0  0.86808  0.75555  0.01247  1.0000
  H   H1018     1.0  0.65857  0.53171  0.16479  1.0000
  Fe  Fe111     1.0  0.76810  0.67133  0.16359  1.0000
  Fe  Fe112     1.0  0.84662  0.79348  0.38487  1.0000
  C   C844      1.0  0.96558  0.64364  0.16087  1.0000
  S   S219      1.0  0.82625  0.67311  0.15718  1.0000
  Fe  Fe113     1.0  0.85828  0.51358  0.13000  1.0000
  H   H1019     1.0  0.81095  0.58318  0.41338  1.0000
  C   C845      1.0  0.67249  0.88197  0.06470  1.0000
  C   C846      1.0  0.98460  0.81969  0.22406  1.0000
  C   C847      1.0  0.60887  0.71718  0.07307  1.0000
  H   H1020     1.0  0.59917  0.57613  0.99080  1.0000
  H   H1021     1.0  0.88945  0.75898  0.03515  1.0000
  C   C848      1.0  0.90675  0.69513  0.27885  1.0000
  C   C849      1.0  0.90550  0.60005  0.19197  1.0000
  H   H1022     1.0  0.74543  0.56486  0.14021  1.0000
  C   C850      1.0  0.98289  0.62110  0.18081  1.0000
  C   C851      1.0  0.68614  0.42962  0.26797  1.0000
  H   H1023     1.0  0.01486  0.44321  0.24347  1.0000
  H   H1024     1.0  0.85481  0.78471  0.16878  1.0000
  H   H1025     1.0  0.64040  0.60026  0.37918  1.0000
  C   C852      1.0  0.75022  0.53628  0.27773  1.0000
  C   C853      1.0  0.80537  0.56926  0.01205  1.0000
  Fe  Fe114     1.0  0.63420  0.47322  0.02380  1.0000
  H   H1026     1.0  0.97312  0.91226  0.36778  1.0000
  H   H1027     1.0  0.94608  0.88212  0.21451  1.0000
  C   C854      1.0  0.08104  0.89186  0.08248  1.0000
  H   H1028     1.0  0.76480  0.57170  0.40629  1.0000
  H   H1029     1.0  0.61039  0.88994  0.11050  1.0000
  H   H1030     1.0  0.87315  0.41529  0.02944  1.0000
  H   H1031     1.0  0.70859  0.72269  0.28573  1.0000
  H   H1032     1.0  0.62248  0.84699  0.32708  1.0000
  H   H1033     1.0  0.80708  0.79826  0.14774  1.0000
  H   H1034     1.0  0.90449  0.53762  0.35681  1.0000
  C   C855      1.0  0.05737  0.48990  0.19648  1.0000
  C   C856      1.0  0.62344  0.81062  0.28335  1.0000
  C   C857      1.0  0.67378  0.57910  0.10068  1.0000
  C   C858      1.0  0.83461  0.64764  0.33862  1.0000
  H   H1035     1.0  0.98665  0.51351  0.15701  1.0000
  Fe  Fe115     1.0  0.98178  0.81857  0.04419  1.0000
  C   C859      1.0  0.83742  0.60170  0.06840  1.0000
  H   H1036     1.0  0.01554  0.65887  0.03117  1.0000
  H   H1037     1.0  0.68417  0.46779  0.37919  1.0000
  S   S220      1.0  0.66360  0.56890  0.29703  1.0000
  H   H1038     1.0  0.07119  0.62336  0.13022  1.0000
  S   S221      1.0  0.93347  0.81549  0.11426  1.0000
  N   N58       1.0  0.97976  0.75818  0.39526  1.0000
  H   H1039     1.0  0.74261  0.58199  0.24575  1.0000
  N   N59       1.0  0.66394  0.89130  0.11956  1.0000
  C   C860      1.0  0.90387  0.77446  0.13896  1.0000
  H   H1040     1.0  0.86743  0.70852  0.01047  1.0000
  H   H1041     1.0  0.92546  0.65452  0.28765  1.0000
  C   C861      1.0  0.01105  0.57183  0.02307  1.0000
  C   C862      1.0  0.70268  0.82769  0.36702  1.0000
  H   H1042     1.0  0.87611  0.59194  0.19518  1.0000
  H   H1043     1.0  0.66990  0.59068  0.13452  1.0000
  C   C863      1.0  0.66939  0.42254  0.22411  1.0000
  H   H1044     1.0  0.86118  0.90798  0.11766  1.0000
  N   N60       1.0  0.05716  0.50084  0.37022  1.0000
  S   S222      1.0  0.07796  0.64612  0.36574  1.0000
  H   H1045     1.0  0.69636  0.45461  0.26896  1.0000
  C   C864      1.0  0.85304  0.77975  0.99917  1.0000
  S   S223      1.0  0.79848  0.50847  0.14799  1.0000
  S   S224      1.0  0.67718  0.73004  0.18584  1.0000
  H   H1046     1.0  0.81847  0.66096  0.03175  1.0000
  C   C865      1.0  0.04054  0.61513  0.13738  1.0000
  H   H1047     1.0  0.09416  0.78726  0.15403  1.0000
  H   H1048     1.0  0.90366  0.61967  0.47719  1.0000
  C   C866      1.0  0.98402  0.53089  0.12005  1.0000
  H   H1049     1.0  0.65957  0.80777  0.45014  1.0000
  C   C867      1.0  0.63180  0.62124  0.36163  1.0000
  C   C868      1.0  0.72824  0.84274  0.24100  1.0000
  N   N61       1.0  0.02318  0.63123  0.17554  1.0000
  C   C869      1.0  0.77172  0.56109  0.05658  1.0000
  C   C870      1.0  0.63032  0.80462  0.22891  1.0000
  H   H1050     1.0  0.08305  0.53430  0.41445  1.0000
  H   H1051     1.0  0.00277  0.91393  0.23036  1.0000
  S   S225      1.0  0.77858  0.43069  0.21358  1.0000
  C   C871      1.0  0.96709  0.55099  0.43666  1.0000
  H   H1052     1.0  0.69214  0.64292  0.44690  1.0000
  S   S226      1.0  0.82013  0.75141  0.35366  1.0000
  S   S227      1.0  0.66238  0.64404  0.17771  1.0000
  C   C872      1.0  0.60379  0.46260  0.28311  1.0000
  H   H1053     1.0  0.80089  0.83656  0.29414  1.0000
  H   H1054     1.0  0.00089  0.59859  0.43579  1.0000
  C   C873      1.0  0.64176  0.86842  0.23147  1.0000
  H   H1055     1.0  0.92947  0.69140  0.99978  1.0000
  C   C874      1.0  0.67950  0.54764  0.01452  1.0000
  C   C875      1.0  0.64933  0.86322  0.17517  1.0000
  H   H1056     1.0  0.76709  0.65185  0.32848  1.0000
  H   H1057     1.0  0.66765  0.44283  0.19176  1.0000
  C   C876      1.0  0.66670  0.54544  0.11803  1.0000
  H   H1058     1.0  0.06755  0.47634  0.45052  1.0000
  H   H1059     1.0  0.64522  0.67701  0.05551  1.0000
  H   H1060     1.0  0.03842  0.76969  0.38685  1.0000
  C   C877      1.0  0.77937  0.83114  0.27016  1.0000
  H   H1061     1.0  0.01653  0.59434  0.25747  1.0000
  H   H1062     1.0  0.78093  0.65381  0.42051  1.0000
  H   H1063     1.0  0.92650  0.52080  0.16019  1.0000
  S   S228      1.0  0.05497  0.53967  0.06259  1.0000
  H   H1064     1.0  0.92388  0.59793  0.33095  1.0000
  C   C878      1.0  0.78012  0.79753  0.14316  1.0000
  H   H1065     1.0  0.97078  0.56898  0.22197  1.0000
  H   H1066     1.0  0.94119  0.88303  0.06439  1.0000
  C   C879      1.0  0.72108  0.73207  0.31725  1.0000
  H   H1067     1.0  0.02963  0.58803  0.15703  1.0000
  H   H1068     1.0  0.68357  0.90357  0.02370  1.0000
  C   C880      1.0  0.60539  0.73396  0.11583  1.0000
  H   H1069     1.0  0.78014  0.45708  0.42876  1.0000
  Fe  Fe116     1.0  0.70029  0.69060  0.18374  1.0000
  H   H1070     1.0  0.04192  0.84472  0.21660  1.0000
  C   C881      1.0  0.87644  0.70494  0.29070  1.0000
  C   C882      1.0  0.63611  0.90716  0.11445  1.0000
  C   C883      1.0  0.77342  0.74573  0.35830  1.0000
  H   H1071     1.0  0.73776  0.84678  0.08060  1.0000
  H   H1072     1.0  0.89803  0.43385  0.29445  1.0000
  S   S229      1.0  0.01132  0.72124  0.02780  1.0000
  H   H1073     1.0  0.69376  0.87034  0.06474  1.0000
  C   C884      1.0  0.77567  0.82595  0.11263  1.0000
  H   H1074     1.0  0.86302  0.61673  0.07395  1.0000
  H   H1075     1.0  0.61972  0.46473  0.31662  1.0000
  H   H1076     1.0  0.61390  0.79048  0.32448  1.0000
  H   H1077     1.0  0.71303  0.81571  0.25557  1.0000
  S   S230      1.0  0.85038  0.47045  0.09605  1.0000
  C   C885      1.0  0.71043  0.79556  0.12990  1.0000
  H   H1078     1.0  0.92030  0.45420  0.34117  1.0000
  H   H1079     1.0  0.66906  0.70464  0.09011  1.0000
  H   H1080     1.0  0.04759  0.86128  0.42122  1.0000
  H   H1081     1.0  0.81160  0.72872  0.18234  1.0000
  C   C886      1.0  0.97957  0.58534  0.41923  1.0000
  H   H1082     1.0  0.04051  0.81146  0.31210  1.0000
  H   H1083     1.0  0.97561  0.43929  0.01309  1.0000
  C   C887      1.0  0.03347  0.46520  0.24774  1.0000
  S   S231      1.0  0.92607  0.49121  0.43109  1.0000
  H   H1084     1.0  0.89812  0.42447  0.45407  1.0000
  H   H1085     1.0  0.60887  0.82528  0.48707  1.0000
  H   H1086     1.0  0.61037  0.72074  0.27652  1.0000
  H   H1087     1.0  0.68371  0.79469  0.12397  1.0000
  S   S232      1.0  0.72576  0.66502  0.24666  1.0000
  S   S233      1.0  0.02695  0.80193  0.06737  1.0000
  S   S234      1.0  0.97660  0.64505  0.36336  1.0000
  C   C888      1.0  0.74002  0.84826  0.33583  1.0000
  H   H1088     1.0  0.63308  0.67730  0.30636  1.0000
  H   H1089     1.0  0.00718  0.47423  0.02396  1.0000
  C   C889      1.0  0.94711  0.75496  0.44227  1.0000
  C   C890      1.0  0.95962  0.58761  0.20654  1.0000
  Fe  Fe117     1.0  0.03678  0.67064  0.35379  1.0000
  H   H1090     1.0  0.04797  0.44959  0.41139  1.0000
  H   H1091     1.0  0.01832  0.50148  0.44625  1.0000
  Fe  Fe118     1.0  0.79001  0.46304  0.12104  1.0000
  H   H1092     1.0  0.89594  0.88114  0.05781  1.0000
  H   H1093     1.0  0.62844  0.75370  0.11739  1.0000
  S   S235      1.0  0.65603  0.48699  0.09667  1.0000
  C   C891      1.0  0.68464  0.59726  0.04028  1.0000
  H   H1094     1.0  0.97604  0.70838  0.43248  1.0000
  C   C892      1.0  0.81906  0.49432  0.44833  1.0000
  Fe  Fe119     1.0  0.83972  0.44152  0.19086  1.0000
  H   H1095     1.0  0.00994  0.51603  0.37578  1.0000
  C   C893      1.0  0.08169  0.52249  0.25674  1.0000
  S   S236      1.0  0.74526  0.70043  0.10136  1.0000
  C   C894      1.0  0.03357  0.46880  0.30389  1.0000
  C   C895      1.0  0.80404  0.59289  0.11162  1.0000
  S   S237      1.0  0.81632  0.82371  0.41813  1.0000
  N   N62       1.0  0.79659  0.62366  0.36996  1.0000
  H   H1096     1.0  0.76189  0.80477  0.29064  1.0000
  S   S238      1.0  0.81351  0.86269  0.08038  1.0000
  C   C896      1.0  0.77475  0.43105  0.01449  1.0000
  C   C897      1.0  0.67570  0.51281  0.34397  1.0000
  H   H1097     1.0  0.93988  0.64057  0.99320  1.0000
  H   H1098     1.0  0.92415  0.75496  0.33964  1.0000
  C   C898      1.0  0.90167  0.66196  0.29676  1.0000
  C   C899      1.0  0.01422  0.54847  0.06960  1.0000
  C   C900      1.0  0.93999  0.53380  0.41410  1.0000
  C   C901      1.0  0.74096  0.82486  0.10513  1.0000
  C   C902      1.0  0.86558  0.76622  0.16071  1.0000
  H   H1099     1.0  0.65621  0.77785  0.00632  1.0000
  C   C903      1.0  0.01498  0.80563  0.29949  1.0000
  C   C904      1.0  0.77129  0.57261  0.10568  1.0000
  H   H1100     1.0  0.92027  0.74219  0.43508  1.0000
  C   C905      1.0  0.89123  0.86928  0.17089  1.0000
  C   C906      1.0  0.74990  0.76783  0.16560  1.0000
  S   S239      1.0  0.85255  0.48501  0.22361  1.0000
  S   S240      1.0  0.90333  0.56120  0.07424  1.0000
  S   S241      1.0  0.75895  0.47769  0.32487  1.0000
  Fe  Fe120     1.0  0.69238  0.61920  0.23168  1.0000
  C   C907      1.0  0.92130  0.89623  0.06653  1.0000
  C   C908      1.0  0.93606  0.58496  0.36028  1.0000
  C   C909      1.0  0.92747  0.63307  0.16642  1.0000
  N   N63       1.0  0.75671  0.85209  0.27273  1.0000
  H   H1101     1.0  0.05121  0.90618  0.14981  1.0000
  H   H1102     1.0  0.04243  0.67651  0.10282  1.0000
  C   C910      1.0  0.68728  0.58148  0.99711  1.0000
  C   C911      1.0  0.02458  0.85243  0.46109  1.0000
  H   H1103     1.0  0.97885  0.53791  0.46664  1.0000
  H   H1104     1.0  0.01467  0.44876  0.34240  1.0000
  H   H1105     1.0  0.64569  0.89270  0.23461  1.0000
  H   H1106     1.0  0.01833  0.79580  0.41725  1.0000
  C   C912      1.0  0.89399  0.71866  0.13932  1.0000
  C   C913      1.0  0.96340  0.60230  0.38223  1.0000
  H   H1107     1.0  0.85507  0.52873  0.47959  1.0000
  H   H1108     1.0  0.98085  0.66957  0.14028  1.0000
  S   S242      1.0  0.75620  0.45148  0.05858  1.0000
  H   H1109     1.0  0.80239  0.62755  0.45545  1.0000
  H   H1110     1.0  0.77913  0.54548  0.25252  1.0000
  H   H1111     1.0  0.62342  0.47947  0.23964  1.0000
  H   H1112     1.0  0.93637  0.50598  0.98824  1.0000
  C   C914      1.0  0.98168  0.77988  0.33697  1.0000
  C   C915      1.0  0.79395  0.58894  0.38327  1.0000
  C   C916      1.0  0.62866  0.84243  0.28467  1.0000
  H   H1113     1.0  0.75504  0.61101  0.45313  1.0000
  C   C917      1.0  0.72936  0.55689  0.27335  1.0000
  H   H1114     1.0  0.98573  0.83496  0.18106  1.0000
  H   H1115     1.0  0.99950  0.72667  0.35410  1.0000
  C   C918      1.0  0.71490  0.76699  0.15975  1.0000
  H   H1116     1.0  0.94773  0.77941  0.44496  1.0000
  C   C919      1.0  0.75303  0.75562  0.39973  1.0000
  C   C920      1.0  0.77126  0.62817  0.33287  1.0000
  C   C921      1.0  0.66286  0.70288  0.04762  1.0000
  C   C922      1.0  0.91812  0.75033  0.13064  1.0000
  H   H1117     1.0  0.64728  0.86469  0.05942  1.0000
  Fe  Fe121     1.0  0.79204  0.47680  0.23900  1.0000
  H   H1118     1.0  0.01600  0.63281  0.26523  1.0000
  H   H1119     1.0  0.71926  0.90397  0.12994  1.0000
  H   H1120     1.0  0.75373  0.74565  0.18747  1.0000
  S   S243      1.0  0.73566  0.62464  0.15225  1.0000
  C   C923      1.0  0.95016  0.77456  0.31462  1.0000
  C   C924      1.0  0.94903  0.48814  0.00659  1.0000
  S   S244      1.0  0.60395  0.50463  0.98963  1.0000
  H   H1121     1.0  0.93416  0.71329  0.25526  1.0000
  Fe  Fe122     1.0  0.86697  0.86706  0.36250  1.0000
  S   S245      1.0  0.87304  0.78747  0.45931  1.0000
  C   C925      1.0  0.89459  0.43545  0.34042  1.0000
  C   C926      1.0  0.69671  0.49256  0.34932  1.0000
  H   H1122     1.0  0.74302  0.60882  0.35237  1.0000
  C   C927      1.0  0.83820  0.59013  0.01929  1.0000
  C   C928      1.0  0.71742  0.75513  0.39817  1.0000
  H   H1123     1.0  0.80362  0.60144  0.15019  1.0000
  C   C929      1.0  0.73377  0.50403  0.31603  1.0000
  C   C930      1.0  0.02880  0.62123  0.23541  1.0000
  C   C931      1.0  0.92505  0.55084  0.37498  1.0000
  C   C932      1.0  0.97613  0.72526  0.39023  1.0000
  H   H1124     1.0  0.83150  0.50876  0.40181  1.0000
  H   H1125     1.0  0.81844  0.69068  0.32798  1.0000
  H   H1126     1.0  0.91494  0.65060  0.15034  1.0000
  H   H1127     1.0  0.90439  0.55167  0.23151  1.0000
  H   H1128     1.0  0.64428  0.64064  0.38084  1.0000
  C   C933      1.0  0.85559  0.71109  0.15630  1.0000
  Fe  Fe123     1.0  0.01889  0.77457  0.00129  1.0000
  H   H1129     1.0  0.94652  0.74041  0.48711  1.0000
  C   C934      1.0  0.07822  0.90929  0.12343  1.0000
  S   S246      1.0  0.02561  0.42413  0.10428  1.0000
  H   H1130     1.0  0.78993  0.63951  0.99330  1.0000
  H   H1131     1.0  0.68159  0.76224  0.05407  1.0000
  H   H1132     1.0  0.97488  0.59454  0.98905  1.0000
  S   S247      1.0  0.61876  0.41496  0.44587  1.0000
  C   C935      1.0  0.96051  0.90656  0.18415  1.0000
  H   H1133     1.0  0.75661  0.51384  0.99874  1.0000
  H   H1134     1.0  0.59796  0.50981  0.32926  1.0000
  H   H1135     1.0  0.59914  0.52222  0.25220  1.0000
  H   H1136     1.0  0.71532  0.43127  0.47859  1.0000
  Fe  Fe124     1.0  0.09639  0.73935  0.30818  1.0000
  C   C936      1.0  0.97902  0.41734  0.13478  1.0000
  H   H1137     1.0  0.59778  0.55487  0.12272  1.0000
  C   C937      1.0  0.99575  0.46470  0.99001  1.0000
  Fe  Fe125     1.0  0.80721  0.87876  0.98921  1.0000
  C   C938      1.0  0.66752  0.62797  0.48342  1.0000
  Fe  Fe126     1.0  0.06499  0.84500  0.98916  1.0000
  H   H1138     1.0  0.86499  0.59668  0.98812  1.0000
  H   H1139     1.0  0.99495  0.90219  0.52421  1.0000
  H   H1140     1.0  0.64808  0.62551  0.83257  1.0000
  C   C939      1.0  0.62547  0.89665  0.52047  1.0000
  C   C940      1.0  0.96330  0.47293  0.91439  1.0000
  C   C941      1.0  0.00613  0.51913  0.92970  1.0000
  C   C942      1.0  0.07321  0.71674  0.62937  1.0000
  C   C943      1.0  0.04632  0.60647  0.73853  1.0000
  H   H1141     1.0  0.81993  0.85574  0.65003  1.0000
  C   C944      1.0  0.72220  0.59478  0.69972  1.0000
  H   H1142     1.0  0.98288  0.89261  0.71849  1.0000
  C   C945      1.0  0.71070  0.69823  0.72401  1.0000
  Fe  Fe127     1.0  0.85388  0.66890  0.72765  1.0000
  S   S248      1.0  0.84011  0.83336  0.82076  1.0000
  H   H1143     1.0  0.81937  0.44290  0.87081  1.0000
  S   S249      1.0  0.89171  0.57092  0.80687  1.0000
  H   H1144     1.0  0.71050  0.74051  0.55508  1.0000
  Fe  Fe128     1.0  0.91793  0.66781  0.63687  1.0000
  H   H1145     1.0  0.86986  0.78218  0.57737  1.0000
  H   H1146     1.0  0.09046  0.66294  0.63881  1.0000
  Fe  Fe129     1.0  0.01339  0.83226  0.91179  1.0000
  H   H1147     1.0  0.67077  0.62944  0.62819  1.0000
  C   C946      1.0  0.96512  0.82854  0.56456  1.0000
  H   H1148     1.0  0.64276  0.88625  0.87351  1.0000
  H   H1149     1.0  0.74970  0.88376  0.74876  1.0000
  C   C947      1.0  0.95390  0.59284  0.56672  1.0000
  H   H1150     1.0  0.89423  0.81592  0.75081  1.0000
  H   H1151     1.0  0.72813  0.57182  0.70835  1.0000
  C   C948      1.0  0.04464  0.72104  0.54885  1.0000
  H   H1152     1.0  0.97803  0.53106  0.79641  1.0000
  C   C949      1.0  0.77358  0.70008  0.64439  1.0000
  C   C950      1.0  0.94871  0.71526  0.90476  1.0000
  H   H1153     1.0  0.76542  0.73620  0.58001  1.0000
  H   H1154     1.0  0.99356  0.45251  0.79009  1.0000
  C   C951      1.0  0.65882  0.53395  0.71528  1.0000
  C   C952      1.0  0.97456  0.45632  0.82444  1.0000
  H   H1155     1.0  0.94566  0.85309  0.90595  1.0000
  C   C953      1.0  0.82603  0.77586  0.96888  1.0000
  S   S250      1.0  0.08508  0.67021  0.83207  1.0000
  H   H1156     1.0  0.64732  0.71086  0.71174  1.0000
  H   H1157     1.0  0.73821  0.51359  0.53998  1.0000
  S   S251      1.0  0.08776  0.80353  0.69379  1.0000
  C   C954      1.0  0.63657  0.81786  0.89719  1.0000
  C   C955      1.0  0.06682  0.56581  0.70715  1.0000
  H   H1158     1.0  0.92824  0.44246  0.78835  1.0000
  H   H1159     1.0  0.74260  0.49387  0.72093  1.0000
  H   H1160     1.0  0.00347  0.76064  0.69945  1.0000
  H   H1161     1.0  0.78164  0.78492  0.70973  1.0000
  C   C956      1.0  0.85176  0.77292  0.62204  1.0000
  Fe  Fe130     1.0  0.65465  0.52068  0.50244  1.0000
  H   H1162     1.0  0.75152  0.54988  0.95437  1.0000
  Fe  Fe131     1.0  0.83902  0.62348  0.65209  1.0000
  H   H1163     1.0  0.85981  0.55019  0.96138  1.0000
  H   H1164     1.0  0.75456  0.42467  0.81921  1.0000
  S   S252      1.0  0.08864  0.58238  0.88830  1.0000
  S   S253      1.0  0.82198  0.61493  0.75075  1.0000
  S   S254      1.0  0.09159  0.80632  0.55746  1.0000
  H   H1165     1.0  0.88190  0.84986  0.63275  1.0000
  S   S255      1.0  0.66794  0.47977  0.93278  1.0000
  S   S256      1.0  0.60040  0.48698  0.50050  1.0000
  H   H1166     1.0  0.02100  0.73394  0.74283  1.0000
  S   S257      1.0  0.85398  0.90077  0.90478  1.0000
  Fe  Fe132     1.0  0.63458  0.50896  0.89888  1.0000
  H   H1167     1.0  0.76164  0.69215  0.94359  1.0000
  H   H1168     1.0  0.01130  0.61755  0.64928  1.0000
  H   H1169     1.0  0.60039  0.88537  0.85819  1.0000
  H   H1170     1.0  0.07705  0.46012  0.90555  1.0000
  C   C957      1.0  0.75402  0.72003  0.62533  1.0000
  H   H1171     1.0  0.02701  0.51660  0.73985  1.0000
  C   C958      1.0  0.92609  0.46716  0.91186  1.0000
  C   C959      1.0  0.09352  0.47607  0.86146  1.0000
  C   C960      1.0  0.93794  0.45075  0.82332  1.0000
  C   C961      1.0  0.63775  0.72324  0.96946  1.0000
  S   S258      1.0  0.78928  0.89311  0.83643  1.0000
  S   S259      1.0  0.59908  0.64091  0.61629  1.0000
  H   H1172     1.0  0.77434  0.44501  0.61548  1.0000
  C   C962      1.0  0.77165  0.55400  0.56130  1.0000
  C   C963      1.0  0.65156  0.78277  0.84172  1.0000
  H   H1173     1.0  0.81799  0.54203  0.79886  1.0000
  C   C964      1.0  0.61668  0.57389  0.85657  1.0000
  H   H1174     1.0  0.61896  0.73625  0.95688  1.0000
  Fe  Fe133     1.0  0.62008  0.43581  0.93717  1.0000
  H   H1175     1.0  0.79321  0.74681  0.92788  1.0000
  H   H1176     1.0  0.01869  0.52917  0.96208  1.0000
  H   H1177     1.0  0.88529  0.45160  0.86580  1.0000
  H   H1178     1.0  0.86874  0.53057  0.62151  1.0000
  C   C965      1.0  0.79034  0.44635  0.95314  1.0000
  C   C966      1.0  0.07451  0.59915  0.70382  1.0000
  C   C967      1.0  0.80644  0.74963  0.73917  1.0000
  S   S260      1.0  0.86636  0.67768  0.62933  1.0000
  C   C968      1.0  0.00148  0.83540  0.56870  1.0000
  C   C969      1.0  0.63508  0.88734  0.57314  1.0000
  H   H1179     1.0  0.97088  0.62641  0.63981  1.0000
  H   H1180     1.0  0.96646  0.58534  0.67570  1.0000
  C   C970      1.0  0.93982  0.68907  0.95648  1.0000
  C   C971      1.0  0.94586  0.66052  0.95290  1.0000
  H   H1181     1.0  0.64392  0.73516  0.64548  1.0000
  H   H1182     1.0  0.79006  0.49601  0.76329  1.0000
  C   C972      1.0  0.00748  0.68758  0.64899  1.0000
  C   C973      1.0  0.04584  0.66393  0.94311  1.0000
  Fe  Fe134     1.0  0.94274  0.44413  0.63546  1.0000
  H   H1183     1.0  0.77760  0.66449  0.71762  1.0000
  H   H1184     1.0  0.87484  0.89950  0.74016  1.0000
  S   S261      1.0  0.99108  0.45049  0.67327  1.0000
  C   C974      1.0  0.09016  0.52434  0.60081  1.0000
  H   H1185     1.0  0.06158  0.90121  0.73191  1.0000
  C   C975      1.0  0.08495  0.54269  0.54968  1.0000
  C   C976      1.0  0.02907  0.70708  0.97103  1.0000
  H   H1186     1.0  0.66021  0.66908  0.50863  1.0000
  C   C977      1.0  0.81367  0.74767  0.95227  1.0000
  H   H1187     1.0  0.73484  0.61149  0.58119  1.0000
  H   H1188     1.0  0.01605  0.47171  0.86701  1.0000
  C   C978      1.0  0.59907  0.88430  0.97247  1.0000
  C   C979      1.0  0.96090  0.65810  0.89759  1.0000
  H   H1189     1.0  0.71407  0.89613  0.56048  1.0000
  H   H1190     1.0  0.97697  0.71808  0.72689  1.0000
  H   H1191     1.0  0.82444  0.49676  0.58627  1.0000
  S   S262      1.0  0.00990  0.82768  0.63830  1.0000
  H   H1192     1.0  0.98985  0.55397  0.61960  1.0000
  Fe  Fe135     1.0  0.66536  0.46698  0.59362  1.0000
  S   S263      1.0  0.82111  0.45653  0.70907  1.0000
  C   C980      1.0  0.81846  0.50212  0.76483  1.0000
  H   H1193     1.0  0.81651  0.89466  0.64919  1.0000
  H   H1194     1.0  0.77863  0.66818  0.90414  1.0000
  C   C981      1.0  0.97042  0.68432  0.84563  1.0000
  H   H1195     1.0  0.66394  0.73383  0.93245  1.0000
  H   H1196     1.0  0.64329  0.90478  0.59656  1.0000
  C   C982      1.0  0.80679  0.43074  0.91812  1.0000
  C   C983      1.0  0.63493  0.85562  0.59510  1.0000
  C   C984      1.0  0.90545  0.82449  0.78425  1.0000
  H   H1197     1.0  0.06452  0.48222  0.67978  1.0000
  C   C985      1.0  0.82788  0.72205  0.96660  1.0000
  S   S264      1.0  0.85715  0.42854  0.57591  1.0000
  Fe  Fe136     1.0  0.81911  0.86190  0.87458  1.0000
  C   C986      1.0  0.64946  0.64276  0.51836  1.0000
  Fe  Fe137     1.0  0.87748  0.61002  0.74974  1.0000
  C   C987      1.0  0.83425  0.52801  0.78555  1.0000
  C   C988      1.0  0.05600  0.90658  0.68756  1.0000
  C   C989      1.0  0.03920  0.69514  0.66920  1.0000
  N   N64       1.0  0.69391  0.59446  0.66664  1.0000
  H   H1198     1.0  0.83937  0.66771  0.89403  1.0000
  S   S265      1.0  0.97051  0.69485  0.56356  1.0000
  C   C990      1.0  0.96501  0.71398  0.84775  1.0000
  H   H1199     1.0  0.94355  0.73689  0.90997  1.0000
  Fe  Fe138     1.0  0.86549  0.44572  0.65396  1.0000
  C   C991      1.0  0.85599  0.74798  0.66451  1.0000
  C   C992      1.0  0.70523  0.76566  0.67732  1.0000
  H   H1200     1.0  0.86399  0.87865  0.55352  1.0000
  C   C993      1.0  0.80233  0.77466  0.69675  1.0000
  C   C994      1.0  0.81524  0.48757  0.55189  1.0000
  H   H1201     1.0  0.90566  0.91288  0.53722  1.0000
  S   S266      1.0  0.68306  0.48492  0.49385  1.0000
  H   H1202     1.0  0.88143  0.84879  0.90461  1.0000
  C   C995      1.0  0.04450  0.72735  0.91181  1.0000
  C   C996      1.0  0.62576  0.83318  0.56405  1.0000
  C   C997      1.0  0.62222  0.57475  0.54360  1.0000
  H   H1203     1.0  0.03710  0.68583  0.71599  1.0000
  S   S267      1.0  0.89150  0.61439  0.65331  1.0000
  H   H1204     1.0  0.89275  0.47898  0.73201  1.0000
  H   H1205     1.0  0.96435  0.63707  0.49319  1.0000
  H   H1206     1.0  0.74156  0.77584  0.56646  1.0000
  C   C998      1.0  0.91379  0.45604  0.86703  1.0000
  C   C999      1.0  0.03122  0.84803  0.51698  1.0000
  C   C1000     1.0  0.72820  0.85990  0.69000  1.0000
  H   H1207     1.0  0.98107  0.67172  0.67999  1.0000
  C   C1001     1.0  0.77318  0.44449  0.52458  1.0000
  H   H1208     1.0  0.69498  0.76725  0.97729  1.0000
  H   H1209     1.0  0.68418  0.52900  0.70511  1.0000
  H   H1210     1.0  0.61053  0.54864  0.55231  1.0000
  S   S268      1.0  0.83318  0.70067  0.77338  1.0000
  H   H1211     1.0  0.07284  0.73148  0.82248  1.0000
  C   C1002     1.0  0.62591  0.50698  0.74323  1.0000
  H   H1212     1.0  0.99052  0.58830  0.79659  1.0000
  C   C1003     1.0  0.01821  0.63335  0.53566  1.0000
  C   C1004     1.0  0.83240  0.73545  0.72256  1.0000
  H   H1213     1.0  0.90593  0.47123  0.94360  1.0000
  C   C1005     1.0  0.74818  0.52163  0.57450  1.0000
  H   H1214     1.0  0.77860  0.57074  0.51719  1.0000
  S   S269      1.0  0.62872  0.79454  0.59096  1.0000
  H   H1215     1.0  0.92248  0.88420  0.62462  1.0000
  S   S270      1.0  0.64074  0.50490  0.60163  1.0000
  H   H1216     1.0  0.69873  0.75465  0.72624  1.0000
  C   C1006     1.0  0.78729  0.69103  0.91664  1.0000
  S   S271      1.0  0.00369  0.84582  0.82229  1.0000
  H   H1217     1.0  0.92798  0.75613  0.82059  1.0000
  H   H1218     1.0  0.72859  0.82958  0.86778  1.0000
  H   H1219     1.0  0.62563  0.69750  0.96997  1.0000
  H   H1220     1.0  0.62080  0.59374  0.70312  1.0000
  C   C1007     1.0  0.92541  0.56261  0.60212  1.0000
  C   C1008     1.0  0.01189  0.58207  0.77129  1.0000
  Fe  Fe139     1.0  0.84563  0.82040  0.48933  1.0000
  C   C1009     1.0  0.73043  0.67834  0.74251  1.0000
  S   S272      1.0  0.63748  0.75006  0.81370  1.0000
  C   C1010     1.0  0.65884  0.56645  0.69930  1.0000
  C   C1011     1.0  0.89035  0.55326  0.59244  1.0000
  S   S273      1.0  0.94132  0.42723  0.55532  1.0000
  C   C1012     1.0  0.88387  0.83306  0.82653  1.0000
  H   H1221     1.0  0.92109  0.72651  0.78081  1.0000
  H   H1222     1.0  0.68173  0.53560  0.98085  1.0000
  C   C1013     1.0  0.99502  0.73837  0.73870  1.0000
  C   C1014     1.0  0.83980  0.48513  0.74366  1.0000
  S   S274      1.0  0.02019  0.86403  0.97091  1.0000
  H   H1223     1.0  0.72179  0.66253  0.78824  1.0000
  C   C1015     1.0  0.78620  0.45745  0.56822  1.0000
  C   C1016     1.0  0.77039  0.53581  0.95849  1.0000
  H   H1224     1.0  0.70907  0.78747  0.81869  1.0000
  C   C1017     1.0  0.00477  0.54984  0.77126  1.0000
  C   C1018     1.0  0.72165  0.71949  0.66460  1.0000
  C   C1019     1.0  0.66024  0.72051  0.66277  1.0000
  S   S275      1.0  0.68675  0.85871  0.93511  1.0000
  H   H1225     1.0  0.04718  0.73121  0.50232  1.0000
  C   C1020     1.0  0.03228  0.54171  0.73952  1.0000
  C   C1021     1.0  0.01354  0.91452  0.59730  1.0000
  C   C1022     1.0  0.00073  0.77209  0.80202  1.0000
  S   S276      1.0  0.77633  0.91155  0.96065  1.0000
  H   H1226     1.0  0.79867  0.70142  0.61411  1.0000
  H   H1227     1.0  0.69957  0.43126  0.55372  1.0000
  C   C1023     1.0  0.73082  0.41540  0.80111  1.0000
  C   C1024     1.0  0.89202  0.87240  0.64588  1.0000
  C   C1025     1.0  0.02745  0.48562  0.62534  1.0000
  H   H1228     1.0  0.85514  0.56688  0.54093  1.0000
  H   H1229     1.0  0.92955  0.54648  0.63907  1.0000
  C   C1026     1.0  0.98715  0.46720  0.86912  1.0000
  C   C1027     1.0  0.83084  0.53609  0.96345  1.0000
  C   C1028     1.0  0.61653  0.87437  0.48889  1.0000
  H   H1230     1.0  0.96634  0.63612  0.89511  1.0000
  H   H1231     1.0  0.69785  0.83712  0.50408  1.0000
  H   H1232     1.0  0.99737  0.49496  0.56124  1.0000
  C   C1029     1.0  0.61881  0.62330  0.56755  1.0000
  H   H1233     1.0  0.95946  0.82331  0.74890  1.0000
  C   C1030     1.0  0.62528  0.90134  0.86636  1.0000
  C   C1031     1.0  0.06104  0.49609  0.63936  1.0000
  H   H1234     1.0  0.70699  0.41948  0.82727  1.0000
  H   H1235     1.0  0.61621  0.82604  0.91950  1.0000
  H   H1236     1.0  0.00683  0.56978  0.53989  1.0000
  H   H1237     1.0  0.05016  0.63089  0.74100  1.0000
  C   C1032     1.0  0.68890  0.79627  0.83982  1.0000
  H   H1238     1.0  0.80797  0.60106  0.90236  1.0000
  H   H1239     1.0  0.86808  0.68438  0.93649  1.0000
  C   C1033     1.0  0.94493  0.61329  0.52151  1.0000
  H   H1240     1.0  0.03487  0.58440  0.58554  1.0000
  C   C1034     1.0  0.83233  0.87848  0.66101  1.0000
  C   C1035     1.0  0.06063  0.71575  0.86817  1.0000
  S   S277      1.0  0.77442  0.83795  0.96063  1.0000
  H   H1241     1.0  0.85328  0.59837  0.89846  1.0000
  S   S278      1.0  0.80787  0.60719  0.58926  1.0000
  H   H1242     1.0  0.82336  0.57522  0.86519  1.0000
  C   C1036     1.0  0.71838  0.86306  0.63690  1.0000
  C   C1037     1.0  0.62377  0.57014  0.71310  1.0000
  H   H1243     1.0  0.04785  0.54613  0.49539  1.0000
  C   C1038     1.0  0.09405  0.46403  0.81282  1.0000
  H   H1244     1.0  0.08765  0.55810  0.68495  1.0000
  H   H1245     1.0  0.62674  0.48245  0.75448  1.0000
  H   H1246     1.0  0.79023  0.47044  0.93270  1.0000
  H   H1247     1.0  0.02646  0.76854  0.80973  1.0000
  C   C1039     1.0  0.94168  0.74865  0.78423  1.0000
  H   H1248     1.0  0.68714  0.69730  0.75698  1.0000
  Fe  Fe140     1.0  0.74750  0.87255  0.92532  1.0000
  H   H1249     1.0  0.04445  0.75201  0.89992  1.0000
  H   H1250     1.0  0.99383  0.53643  0.90800  1.0000
  H   H1251     1.0  0.79822  0.71180  0.87452  1.0000
  C   C1040     1.0  0.88261  0.57370  0.54731  1.0000
  H   H1252     1.0  0.69512  0.77264  0.56873  1.0000
  H   H1253     1.0  0.67852  0.63058  0.69937  1.0000
  S   S279      1.0  0.97114  0.78845  0.98319  1.0000
  N   N65       1.0  0.70044  0.74055  0.64632  1.0000
  H   H1254     1.0  0.92030  0.52392  0.77168  1.0000
  C   C1041     1.0  0.07617  0.72879  0.56903  1.0000
  H   H1255     1.0  0.01981  0.46343  0.95940  1.0000
  H   H1256     1.0  0.00917  0.79411  0.76231  1.0000
  H   H1257     1.0  0.98783  0.77872  0.84006  1.0000
  H   H1258     1.0  0.78839  0.74042  0.78411  1.0000
  S   S280      1.0  0.64103  0.73062  0.51915  1.0000
  H   H1259     1.0  0.70746  0.84163  0.62335  1.0000
  C   C1042     1.0  0.87635  0.49248  0.74734  1.0000
  H   H1260     1.0  0.98272  0.68099  0.80454  1.0000
  H   H1261     1.0  0.03910  0.88244  0.68521  1.0000
  C   C1043     1.0  0.62547  0.79377  0.86998  1.0000
  Fe  Fe141     1.0  0.06806  0.82832  0.62202  1.0000
  N   N66       1.0  0.80720  0.55640  0.96076  1.0000
  C   C1044     1.0  0.89825  0.84299  0.87086  1.0000
  N   N67       1.0  0.87240  0.89514  0.62884  1.0000
  Fe  Fe142     1.0  0.62709  0.44925  0.50140  1.0000
  N   N68       1.0  0.97789  0.48588  0.95959  1.0000
  H   H1262     1.0  0.88748  0.86374  0.69474  1.0000
  H   H1263     1.0  0.00939  0.65467  0.53410  1.0000
  C   C1045     1.0  0.87607  0.90163  0.56415  1.0000
  S   S281      1.0  0.06099  0.81618  0.92457  1.0000
  C   C1046     1.0  0.61635  0.84250  0.51101  1.0000
  H   H1264     1.0  0.82717  0.87061  0.71022  1.0000
  H   H1265     1.0  0.81517  0.79516  0.95704  1.0000
  H   H1266     1.0  0.02948  0.51935  0.89505  1.0000
  C   C1047     1.0  0.90985  0.60357  0.51184  1.0000
  C   C1048     1.0  0.75157  0.51053  0.67610  1.0000
  C   C1049     1.0  0.05151  0.53211  0.53551  1.0000
  N   N69       1.0  0.97550  0.74256  0.79394  1.0000
  C   C1050     1.0  0.93450  0.84516  0.87192  1.0000
  N   N70       1.0  0.81557  0.69176  0.94991  1.0000
  H   H1267     1.0  0.04616  0.63949  0.95528  1.0000
  S   S282      1.0  0.90784  0.66324  0.73383  1.0000
  C   C1051     1.0  0.98453  0.60808  0.63891  1.0000
  C   C1052     1.0  0.73738  0.50000  0.63214  1.0000
  Fe  Fe143     1.0  0.91490  0.46396  0.52773  1.0000
  H   H1268     1.0  0.73873  0.43122  0.75399  1.0000
  C   C1053     1.0  0.76178  0.67926  0.70275  1.0000
  H   H1269     1.0  0.04521  0.64006  0.54657  1.0000
  H   H1270     1.0  0.83283  0.52589  0.92553  1.0000
  C   C1054     1.0  0.95674  0.83853  0.82733  1.0000
  C   C1055     1.0  0.06206  0.68421  0.88431  1.0000
  C   C1056     1.0  0.87101  0.53597  0.78792  1.0000
  C   C1057     1.0  0.95849  0.83312  0.50856  1.0000
  C   C1058     1.0  0.82367  0.58409  0.90449  1.0000
  H   H1271     1.0  0.69534  0.59528  0.95029  1.0000
  N   N71       1.0  0.61542  0.91301  0.91793  1.0000
  H   H1272     1.0  0.65548  0.69941  0.64481  1.0000
  S   S283      1.0  0.70373  0.46096  0.64971  1.0000
  S   S284      1.0  0.65536  0.56196  0.84420  1.0000
  H   H1273     1.0  0.93034  0.82698  0.50558  1.0000
  H   H1274     1.0  0.71653  0.64724  0.63255  1.0000
  H   H1275     1.0  0.64176  0.84838  0.63647  1.0000
  N   N72       1.0  0.99015  0.60274  0.57998  1.0000
  H   H1276     1.0  0.74923  0.61482  0.67456  1.0000
  H   H1277     1.0  0.71307  0.59826  0.74353  1.0000
  C   C1059     1.0  0.60500  0.58936  0.57974  1.0000
  C   C1060     1.0  0.65415  0.59386  0.49649  1.0000
  H   H1278     1.0  0.00126  0.91015  0.76998  1.0000
  C   C1061     1.0  0.69994  0.82010  0.86765  1.0000
  C   C1062     1.0  0.67368  0.83066  0.89680  1.0000
  H   H1279     1.0  0.78548  0.55157  0.69721  1.0000
  C   C1063     1.0  0.84790  0.68860  0.91190  1.0000
  S   S285      1.0  0.06994  0.42261  0.82342  1.0000
  H   H1280     1.0  0.00103  0.88925  0.62532  1.0000
  C   C1064     1.0  0.83209  0.50572  0.49207  1.0000
  C   C1065     1.0  0.82395  0.78538  0.63751  1.0000
  H   H1281     1.0  0.94831  0.76879  0.74207  1.0000
  H   H1282     1.0  0.86269  0.71113  0.87294  1.0000
  C   C1066     1.0  0.62068  0.60676  0.84877  1.0000
  C   C1067     1.0  0.71250  0.75801  0.58126  1.0000
  H   H1283     1.0  0.68791  0.59104  0.58159  1.0000
  C   C1068     1.0  0.77550  0.54312  0.66276  1.0000
  H   H1284     1.0  0.77278  0.52624  0.91979  1.0000
  C   C1069     1.0  0.74204  0.88753  0.70765  1.0000
  H   H1285     1.0  0.87741  0.73838  0.65212  1.0000
  C   C1070     1.0  0.94216  0.82813  0.78368  1.0000
  C   C1071     1.0  0.89183  0.51769  0.77022  1.0000
  H   H1286     1.0  0.68649  0.77967  0.66989  1.0000
  H   H1287     1.0  0.72500  0.83588  0.71769  1.0000
  C   C1072     1.0  0.68961  0.62684  0.65644  1.0000
  H   H1288     1.0  0.73431  0.78336  0.66166  1.0000
  H   H1289     1.0  0.94210  0.81876  0.60458  1.0000
  H   H1290     1.0  0.05942  0.85418  0.51984  1.0000
  H   H1291     1.0  0.80686  0.90866  0.50909  1.0000
  C   C1073     1.0  0.70823  0.59121  0.60776  1.0000
  C   C1074     1.0  0.02289  0.50335  0.57297  1.0000
  S   S286      1.0  0.61111  0.42911  0.60119  1.0000
  S   S287      1.0  0.92121  0.48410  0.60343  1.0000
  C   C1075     1.0  0.70977  0.41731  0.52627  1.0000
  Fe  Fe144     1.0  0.60488  0.75736  0.54774  1.0000
  S   S288      1.0  0.81462  0.81313  0.58310  1.0000
  C   C1076     1.0  0.78448  0.56508  0.60563  1.0000
  H   H1292     1.0  0.71325  0.56792  0.61189  1.0000
  C   C1077     1.0  0.00601  0.57658  0.58149  1.0000
  H   H1293     1.0  0.06851  0.43793  0.62972  1.0000
  C   C1078     1.0  0.01006  0.70145  0.58908  1.0000
  C   C1079     1.0  0.72190  0.89378  0.60167  1.0000
  H   H1294     1.0  0.61909  0.87180  0.98001  1.0000
  C   C1080     1.0  0.02881  0.67506  0.98612  1.0000
  H   H1295     1.0  0.03425  0.58525  0.98402  1.0000
  H   H1296     1.0  0.02396  0.63113  0.49020  1.0000
