data_image0
_chemical_formula_structural       C5H4SCHCHCSHSC3HNHC2HC2HNFeSC2H5CH2C2H2CHCHFeC4S2CH2CHSHFeNSH4C5H3CHC2H4CH2CFeC3H2CHCFeCHCH4CSHC3HCH2C2H7S2CH2C2HFeHS2NH2CHC5H2NCHCHCH4CHC2H2C2H6SCNCHCH8FeH3FeSCHC2SCFeCSHCS2HCHSCHCFeSFeSHSCH2FeCHCH4CHSNH4NCH2C5SH6C5HCHCH6C2H6CH3C2HCFeHS2FeH2CH3CFeC2HSN2HC2HCH2FeHCSCHCH6FeSC6HCH4CH2SC3HCHC3H4C2HCHSHCSNC2H3CSC2H2CHC2HCHCHCH2SFeCHCSHNCH4CHCSCH6C3HC2HSCH2CHCH3FeC3HC2HC3SH5CSC3H2SCHCSFeHFeHCSCNSCH6C4H2N2CHFeHCH2SCHC3SCHCSC5HFeHCSHCSCH6C3FeHCH2C2H2SHCHCH3C4H2C3H2FeH4C3HCSHCHSCSC2SCNFeCFeC3HCSCHCHCHC2HCNCHSC3FeH3CHS2FeC2SCSC2HNFeHCHCH4SFeCH6SH2CH2C3HCSC2SHCNHC2FeH2C3HSH4SH3CH2CHCHCFeCHCSC5HCH2SCSFeH5SHC2FeCFeHC3H2SC2HFeHFeH2SCS2HCH2CH2FeCH2S2H3CH2CH3C2HCH3FeSH2CH2CNCHCSC3SC4H2C2H2CSH9
_chemical_formula_sum              "C300 H360 S80 N20 Fe40"
_cell_length_a       22.3781
_cell_length_b       25.8123
_cell_length_c       21.612
_cell_angle_alpha    109.679
_cell_angle_beta     65.5272
_cell_angle_gamma    103.989

_space_group_name_H-M_alt    "P 1"
_space_group_IT_number       1

loop_
  _space_group_symop_operation_xyz
  'x, y, z'

loop_
  _atom_site_type_symbol
  _atom_site_label
  _atom_site_symmetry_multiplicity
  _atom_site_fract_x
  _atom_site_fract_y
  _atom_site_fract_z
  _atom_site_occupancy
  C   C1        1.0  0.16756  0.83188  0.13915  1.0000
  C   C2        1.0  0.14558  0.67901  0.04443  1.0000
  C   C3        1.0  0.79437  0.63151  0.08799  1.0000
  C   C4        1.0  0.81515  0.65987  0.03603  1.0000
  C   C5        1.0  0.09449  0.66937  0.16252  1.0000
  H   H1        1.0  0.97415  0.70377  0.02659  1.0000
  H   H2        1.0  0.16867  0.65880  0.98730  1.0000
  H   H3        1.0  0.76771  0.79539  0.18362  1.0000
  H   H4        1.0  0.12948  0.56815  0.00854  1.0000
  S   S1        1.0  0.93281  0.81983  0.12668  1.0000
  C   C6        1.0  0.16968  0.50967  0.17573  1.0000
  H   H5        1.0  0.19115  0.67130  0.19622  1.0000
  C   C7        1.0  0.13600  0.41473  0.18862  1.0000
  H   H6        1.0  0.81491  0.51850  0.02294  1.0000
  C   C8        1.0  0.90393  0.65390  0.09362  1.0000
  S   S2        1.0  0.07225  0.80902  0.99145  1.0000
  H   H7        1.0  0.83905  0.46539  0.18889  1.0000
  S   S3        1.0  0.81325  0.59778  0.18552  1.0000
  C   C9        1.0  0.81070  0.37717  0.16837  1.0000
  C   C10       1.0  0.20388  0.63680  0.08410  1.0000
  C   C11       1.0  0.13031  0.47241  0.21540  1.0000
  H   H8        1.0  0.83196  0.44111  0.05456  1.0000
  N   N1        1.0  0.13779  0.64351  0.08955  1.0000
  H   H9        1.0  0.04568  0.67495  0.16487  1.0000
  C   C12       1.0  0.22340  0.65298  0.14345  1.0000
  C   C13       1.0  0.20924  0.82259  0.16700  1.0000
  H   H10       1.0  0.11681  0.71157  0.18345  1.0000
  C   C14       1.0  0.83871  0.62926  0.11732  1.0000
  C   C15       1.0  0.18186  0.39648  0.11872  1.0000
  H   H11       1.0  0.08427  0.64405  0.19937  1.0000
  N   N2        1.0  0.09312  0.37602  0.23126  1.0000
  Fe  Fe1       1.0  0.04024  0.83513  0.10927  1.0000
  S   S4        1.0  0.08479  0.80252  0.16204  1.0000
  C   C16       1.0  0.92426  0.68299  0.04288  1.0000
  C   C17       1.0  0.21475  0.49045  0.10783  1.0000
  H   H12       1.0  0.93810  0.65233  0.11645  1.0000
  H   H13       1.0  0.09810  0.56016  0.09634  1.0000
  H   H14       1.0  0.19163  0.79515  0.20066  1.0000
  H   H15       1.0  0.78069  0.66306  0.01457  1.0000
  H   H16       1.0  0.16470  0.55358  0.19779  1.0000
  C   C18       1.0  0.79955  0.43244  0.20148  1.0000
  H   H17       1.0  0.74419  0.61167  0.10558  1.0000
  H   H18       1.0  0.05235  0.59205  0.07028  1.0000
  C   C19       1.0  0.22052  0.43405  0.07931  1.0000
  C   C20       1.0  0.77800  0.48260  0.02678  1.0000
  H   H19       1.0  0.09734  0.69018  0.05237  1.0000
  H   H20       1.0  0.17740  0.71860  0.05642  1.0000
  C   C21       1.0  0.10303  0.58855  0.06500  1.0000
  H   H21       1.0  0.84693  0.85906  0.09316  1.0000
  C   C22       1.0  0.87970  0.68672  0.01494  1.0000
  H   H22       1.0  0.77012  0.82472  0.03069  1.0000
  Fe  Fe2       1.0  0.96484  0.80124  0.00916  1.0000
  C   C23       1.0  0.78772  0.43889  0.04431  1.0000
  C   C24       1.0  0.76104  0.86084  0.07544  1.0000
  C   C25       1.0  0.99701  0.73829  0.42439  1.0000
  C   C26       1.0  0.07954  0.81062  0.34340  1.0000
  S   S5        1.0  0.07869  0.65690  0.35256  1.0000
  S   S6        1.0  0.05083  0.54860  0.44695  1.0000
  C   C27       1.0  0.80257  0.74332  0.28241  1.0000
  H   H23       1.0  0.12401  0.69604  0.47500  1.0000
  H   H24       1.0  0.81641  0.78455  0.44679  1.0000
  C   C28       1.0  0.78670  0.79743  0.29798  1.0000
  H   H25       1.0  0.11124  0.83831  0.31165  1.0000
  S   S7        1.0  0.92789  0.41531  0.41499  1.0000
  H   H26       1.0  0.19589  0.63618  0.35951  1.0000
  Fe  Fe3       1.0  0.94808  0.50565  0.46292  1.0000
  N   N3        1.0  0.22337  0.68137  0.44982  1.0000
  S   S8        1.0  0.91047  0.57178  0.44809  1.0000
  H   H27       1.0  0.09466  0.48910  0.26696  1.0000
  H   H28       1.0  0.96468  0.71017  0.45523  1.0000
  H   H29       1.0  0.81323  0.67983  0.40333  1.0000
  H   H30       1.0  0.76936  0.70704  0.26932  1.0000
  C   C29       1.0  0.93050  0.38642  0.47590  1.0000
  C   C30       1.0  0.02105  0.82723  0.39846  1.0000
  C   C31       1.0  0.83435  0.84239  0.31295  1.0000
  C   C32       1.0  0.90867  0.77968  0.29465  1.0000
  C   C33       1.0  0.76009  0.68014  0.43828  1.0000
  H   H31       1.0  0.19911  0.59349  0.40748  1.0000
  H   H32       1.0  0.23241  0.44600  0.38334  1.0000
  H   H33       1.0  0.14918  0.39947  0.29894  1.0000
  C   C34       1.0  0.22321  0.63166  0.38996  1.0000
  H   H34       1.0  0.87461  0.69296  0.26636  1.0000
  C   C35       1.0  0.97951  0.79080  0.43836  1.0000
  C   C36       1.0  0.89428  0.83334  0.31126  1.0000
  H   H35       1.0  0.21886  0.73312  0.39140  1.0000
  H   H36       1.0  0.00480  0.41507  0.26799  1.0000
  H   H37       1.0  0.14451  0.74699  0.28991  1.0000
  H   H38       1.0  0.95613  0.77310  0.29140  1.0000
  C   C37       1.0  0.09712  0.39482  0.30257  1.0000
  H   H39       1.0  0.74524  0.39990  0.36763  1.0000
  H   H40       1.0  0.07662  0.43463  0.33441  1.0000
  C   C38       1.0  0.05636  0.72232  0.37046  1.0000
  Fe  Fe4       1.0  0.01163  0.61726  0.43922  1.0000
  C   C39       1.0  0.86274  0.73476  0.28064  1.0000
  C   C40       1.0  0.09786  0.75865  0.33039  1.0000
  C   C41       1.0  0.02375  0.37420  0.23889  1.0000
  H   H41       1.0  0.93342  0.80280  0.47910  1.0000
  H   H42       1.0  0.92152  0.49871  0.70753  1.0000
  C   C42       1.0  0.76508  0.77949  0.48550  1.0000
  H   H43       1.0  0.06191  0.37707  0.65080  1.0000
  C   C43       1.0  0.96611  0.39887  0.57234  1.0000
  Fe  Fe5       1.0  0.88288  0.60806  0.56551  1.0000
  C   C44       1.0  0.15457  0.68818  0.49982  1.0000
  H   H44       1.0  0.79665  0.76116  0.58109  1.0000
  C   C45       1.0  0.13526  0.56984  0.68833  1.0000
  H   H45       1.0  0.12976  0.60903  0.72805  1.0000
  H   H46       1.0  0.01241  0.44446  0.49399  1.0000
  H   H47       1.0  0.20277  0.59884  0.51281  1.0000
  H   H48       1.0  0.12941  0.65095  0.51911  1.0000
  C   C46       1.0  0.04844  0.37259  0.70462  1.0000
  S   S9        1.0  0.91285  0.53809  0.58057  1.0000
  H   H49       1.0  0.17215  0.69361  0.67744  1.0000
  C   C47       1.0  0.10662  0.55690  0.63767  1.0000
  C   C48       1.0  0.97432  0.41219  0.51143  1.0000
  C   C49       1.0  0.14858  0.46755  0.58700  1.0000
  H   H50       1.0  0.08366  0.40409  0.72605  1.0000
  C   C50       1.0  0.11356  0.50586  0.58656  1.0000
  H   H51       1.0  0.78904  0.68639  0.54932  1.0000
  H   H52       1.0  0.84960  0.72775  0.49555  1.0000
  C   C51       1.0  0.17752  0.48093  0.63775  1.0000
  C   C52       1.0  0.12483  0.84890  0.60479  1.0000
  H   H53       1.0  0.19178  0.75789  0.65454  1.0000
  H   H54       1.0  0.76909  0.40274  0.50174  1.0000
  H   H55       1.0  0.09209  0.49600  0.54689  1.0000
  H   H56       1.0  0.76090  0.81508  0.53309  1.0000
  H   H57       1.0  0.13347  0.81853  0.55416  1.0000
  H   H58       1.0  0.84341  0.51110  0.71277  1.0000
  H   H59       1.0  0.15387  0.42796  0.54769  1.0000
  S   S10       1.0  0.22161  0.43398  0.63920  1.0000
  S   S11       1.0  0.78972  0.64062  0.65090  1.0000
  C   C53       1.0  0.19908  0.73598  0.68681  1.0000
  H   H60       1.0  0.15339  0.72380  0.54692  1.0000
  H   H61       1.0  0.99777  0.42094  0.60190  1.0000
  C   C54       1.0  0.17099  0.53220  0.68812  1.0000
  C   C55       1.0  0.79809  0.72538  0.53409  1.0000
  H   H62       1.0  0.02343  0.85209  0.62244  1.0000
  Fe  Fe6       1.0  0.01243  0.58697  0.56351  1.0000
  H   H63       1.0  0.76720  0.57530  0.52286  1.0000
  S   S12       1.0  0.06395  0.60640  0.63955  1.0000
  S   S13       1.0  0.98098  0.65955  0.55512  1.0000
  N   N4        1.0  0.74965  0.72621  0.50397  1.0000
  H   H64       1.0  0.19284  0.54277  0.72764  1.0000
  H   H65       1.0  0.91218  0.42022  0.89521  1.0000
  C   C56       1.0  0.10763  0.77870  0.78572  1.0000
  H   H66       1.0  0.22909  0.71874  0.78239  1.0000
  C   C57       1.0  0.08886  0.83305  0.81434  1.0000
  C   C58       1.0  0.99273  0.74434  0.79459  1.0000
  C   C59       1.0  0.22431  0.81804  0.76995  1.0000
  C   C60       1.0  0.05709  0.73454  0.77786  1.0000
  C   C61       1.0  0.78879  0.53830  0.85616  1.0000
  H   H67       1.0  0.22622  0.84447  0.73767  1.0000
  H   H68       1.0  0.00411  0.58818  0.93481  1.0000
  N   N5        1.0  0.85997  0.54146  0.81121  1.0000
  C   C62       1.0  0.97229  0.55616  0.91150  1.0000
  H   H69       1.0  0.14294  0.69614  0.80544  1.0000
  C   C63       1.0  0.86823  0.50076  0.74155  1.0000
  H   H70       1.0  0.77987  0.56947  0.90838  1.0000
  C   C64       1.0  0.17984  0.73349  0.80424  1.0000
  H   H71       1.0  0.87054  0.63097  0.84918  1.0000
  H   H72       1.0  0.78315  0.68202  0.80419  1.0000
  H   H73       1.0  0.99642  0.37723  0.94924  1.0000
  H   H74       1.0  0.17117  0.75779  0.85992  1.0000
  C   C65       1.0  0.02395  0.84234  0.83251  1.0000
  H   H75       1.0  0.78261  0.74981  0.91723  1.0000
  C   C66       1.0  0.96255  0.50259  0.91808  1.0000
  C   C67       1.0  0.94027  0.56925  0.87612  1.0000
  H   H76       1.0  0.04278  0.39348  0.83258  1.0000
  H   H77       1.0  0.76879  0.49677  0.86603  1.0000
  C   C68       1.0  0.92087  0.46172  0.88906  1.0000
  C   C69       1.0  0.89725  0.52855  0.84600  1.0000
  H   H78       1.0  0.98663  0.49293  0.94655  1.0000
  H   H79       1.0  0.93520  0.60267  0.76686  1.0000
  H   H80       1.0  0.92618  0.80584  0.83543  1.0000
  H   H81       1.0  0.21185  0.84308  0.82597  1.0000
  H   H82       1.0  0.94948  0.61179  0.87389  1.0000
  H   H83       1.0  0.95534  0.71000  0.78711  1.0000
  S   S14       1.0  0.90357  0.73021  0.95998  1.0000
  C   C70       1.0  0.88129  0.59743  0.79876  1.0000
  N   N6        1.0  0.17653  0.76726  0.76244  1.0000
  C   C71       1.0  0.97616  0.79821  0.82195  1.0000
  H   H84       1.0  0.24027  0.60056  0.96989  1.0000
  C   C72       1.0  0.88839  0.47441  0.85390  1.0000
  H   H85       1.0  0.85529  0.44152  0.83399  1.0000
  H   H86       1.0  0.75833  0.54572  0.83102  1.0000
  H   H87       1.0  0.06724  0.69208  0.75800  1.0000
  H   H88       1.0  0.84533  0.45847  0.74611  1.0000
  H   H89       1.0  0.85513  0.60469  0.76892  1.0000
  H   H90       1.0  0.99746  0.38420  0.73599  1.0000
  H   H91       1.0  0.78427  0.98816  0.06191  1.0000
  H   H92       1.0  0.04113  0.99674  0.02771  1.0000
  Fe  Fe7       1.0  0.94266  0.90813  0.12704  1.0000
  H   H93       1.0  0.74898  0.36060  0.06605  1.0000
  H   H94       1.0  0.16142  0.87173  0.06933  1.0000
  H   H95       1.0  0.87059  0.00837  0.03093  1.0000
  Fe  Fe8       1.0  0.92811  0.21643  0.18858  1.0000
  S   S15       1.0  0.88904  0.36090  0.10704  1.0000
  C   C73       1.0  0.80583  0.88134  0.10989  1.0000
  H   H96       1.0  0.18314  0.21651  0.09077  1.0000
  C   C74       1.0  0.03567  0.05714  0.98286  1.0000
  C   C75       1.0  0.22084  0.21678  0.03915  1.0000
  S   S16       1.0  0.98850  0.25058  0.09569  1.0000
  C   C76       1.0  0.04049  0.14877  0.18957  1.0000
  Fe  Fe9       1.0  0.07417  0.89905  0.00322  1.0000
  C   C77       1.0  0.75925  0.33479  0.18501  1.0000
  S   S17       1.0  0.96959  0.88903  0.01011  1.0000
  H   H97       1.0  0.01858  0.36188  0.18667  1.0000
  C   C78       1.0  0.82334  0.01421  0.02984  1.0000
  S   S18       1.0  0.85852  0.95747  0.20177  1.0000
  S   S19       1.0  0.18585  0.08729  0.19745  1.0000
  H   H98       1.0  0.01768  0.14329  0.15217  1.0000
  C   C79       1.0  0.06497  0.01611  0.98487  1.0000
  H   H99       1.0  0.10434  0.08530  0.12201  1.0000
  S   S20       1.0  0.83664  0.24977  0.20978  1.0000
  C   C80       1.0  0.11121  0.31860  0.19940  1.0000
  H   H100      1.0  0.16382  0.31765  0.18965  1.0000
  C   C81       1.0  0.79709  0.92968  0.16538  1.0000
  Fe  Fe10      1.0  0.81283  0.16913  0.13801  1.0000
  S   S21       1.0  0.90033  0.13337  0.12456  1.0000
  Fe  Fe11      1.0  0.95440  0.16969  0.03193  1.0000
  S   S22       1.0  0.04772  0.92600  0.12059  1.0000
  H   H101      1.0  0.20999  0.04308  0.04603  1.0000
  S   S23       1.0  0.86424  0.19880  0.04017  1.0000
  C   C82       1.0  0.12029  0.12379  0.22020  1.0000
  H   H102      1.0  0.10174  0.29863  0.14952  1.0000
  H   H103      1.0  0.76675  0.29197  0.15764  1.0000
  Fe  Fe12      1.0  0.89431  0.27705  0.11104  1.0000
  C   C83       1.0  0.19193  0.86589  0.09349  1.0000
  H   H104      1.0  0.81373  0.05791  0.05782  1.0000
  C   C84       1.0  0.08955  0.11592  0.17251  1.0000
  H   H105      1.0  0.98861  0.06734  0.02258  1.0000
  H   H106      1.0  0.18863  0.35338  0.09313  1.0000
  H   H107      1.0  0.16628  0.15089  0.98445  1.0000
  H   H108      1.0  0.84451  0.98429  0.35304  1.0000
  C   C85       1.0  0.87048  0.08423  0.44537  1.0000
  H   H109      1.0  0.12298  0.16817  0.32317  1.0000
  S   S24       1.0  0.00132  0.89420  0.41886  1.0000
  N   N7        1.0  0.91223  0.05712  0.37256  1.0000
  H   H110      1.0  0.99057  0.05154  0.40229  1.0000
  H   H111      1.0  0.06720  0.36491  0.33445  1.0000
  H   H112      1.0  0.20337  0.08477  0.32704  1.0000
  H   H113      1.0  0.77866  0.34826  0.42308  1.0000
  N   N8        1.0  0.21777  0.00670  0.33160  1.0000
  C   C86       1.0  0.02129  0.18831  0.25490  1.0000
  H   H114      1.0  0.03630  0.22594  0.35344  1.0000
  H   H115      1.0  0.16737  0.93367  0.27985  1.0000
  C   C87       1.0  0.78619  0.20290  0.38674  1.0000
  C   C88       1.0  0.88061  0.14262  0.47300  1.0000
  C   C89       1.0  0.89610  0.99598  0.35193  1.0000
  C   C90       1.0  0.20860  0.06619  0.36396  1.0000
  C   C91       1.0  0.74956  0.20631  0.45773  1.0000
  S   S25       1.0  0.95910  0.22870  0.27857  1.0000
  H   H116      1.0  0.75401  0.88582  0.27616  1.0000
  H   H117      1.0  0.90318  0.97614  0.38655  1.0000
  H   H118      1.0  0.92870  0.97716  0.29693  1.0000
  H   H119      1.0  0.99973  0.11351  0.37797  1.0000
  H   H120      1.0  0.82596  0.23511  0.37169  1.0000
  H   H121      1.0  0.84844  0.32393  0.47002  1.0000
  C   C92       1.0  0.10100  0.16335  0.28528  1.0000
  C   C93       1.0  0.05138  0.19549  0.30278  1.0000
  C   C94       1.0  0.18419  0.91588  0.45359  1.0000
  C   C95       1.0  0.16237  0.97851  0.30652  1.0000
  C   C96       1.0  0.22237  0.98312  0.38306  1.0000
  H   H122      1.0  0.79840  0.15655  0.27985  1.0000
  C   C97       1.0  0.90419  0.07917  0.32162  1.0000
  H   H123      1.0  0.93093  0.86795  0.32099  1.0000
  C   C98       1.0  0.17639  0.93938  0.40817  1.0000
  H   H124      1.0  0.91740  0.16848  0.44117  1.0000
  H   H125      1.0  0.85205  0.07043  0.32439  1.0000
  H   H126      1.0  0.16349  0.07185  0.41272  1.0000
  H   H127      1.0  0.01584  0.04993  0.31088  1.0000
  H   H128      1.0  0.13451  0.92192  0.39255  1.0000
  H   H129      1.0  0.11341  0.98223  0.35047  1.0000
  C   C99       1.0  0.77060  0.15868  0.33515  1.0000
  C   C100      1.0  0.98260  0.06855  0.36564  1.0000
  H   H130      1.0  0.91795  0.12463  0.33109  1.0000
  H   H131      1.0  0.16101  0.99645  0.26689  1.0000
  H   H132      1.0  0.98971  0.34427  0.26902  1.0000
  H   H133      1.0  0.82730  0.88481  0.32409  1.0000
  H   H134      1.0  0.93558  0.06026  0.26610  1.0000
  H   H135      1.0  0.23008  0.35091  0.38649  1.0000
  C   C101      1.0  0.23790  0.93521  0.47542  1.0000
  H   H136      1.0  0.14891  0.88174  0.47074  1.0000
  H   H137      1.0  0.80919  0.00969  0.47538  1.0000
  H   H138      1.0  0.08157  0.29168  0.23506  1.0000
  C   C102      1.0  0.79619  0.13800  0.58647  1.0000
  C   C103      1.0  0.17721  0.07654  0.59549  1.0000
  H   H139      1.0  0.85463  0.21312  0.56359  1.0000
  C   C104      1.0  0.78359  0.08100  0.56063  1.0000
  Fe  Fe13      1.0  0.90918  0.03216  0.64887  1.0000
  H   H140      1.0  0.15211  0.33468  0.70125  1.0000
  S   S26       1.0  0.92087  0.12452  0.67771  1.0000
  S   S27       1.0  0.99648  0.98610  0.60630  1.0000
  Fe  Fe14      1.0  0.78107  0.34608  0.72630  1.0000
  H   H141      1.0  0.76062  0.24131  0.49799  1.0000
  H   H142      1.0  0.12871  0.26273  0.66505  1.0000
  C   C105      1.0  0.16425  0.90899  0.69680  1.0000
  H   H143      1.0  0.20651  0.99707  0.63262  1.0000
  H   H144      1.0  0.82994  0.30389  0.58096  1.0000
  H   H145      1.0  0.20262  0.92484  0.71830  1.0000
  C   C106      1.0  0.84445  0.16881  0.54279  1.0000
  Fe  Fe15      1.0  0.81190  0.92702  0.65098  1.0000
  C   C107      1.0  0.18215  0.13368  0.70805  1.0000
  C   C108      1.0  0.87139  0.33292  0.56070  1.0000
  H   H146      1.0  0.14328  0.10345  0.59883  1.0000
  S   S28       1.0  0.86575  0.97529  0.57023  1.0000
  N   N9        1.0  0.05246  0.31541  0.70313  1.0000
  N   N10       1.0  0.16959  0.07611  0.66680  1.0000
  H   H147      1.0  0.09523  0.00488  0.66906  1.0000
  C   C109      1.0  0.21762  0.04135  0.65932  1.0000
  C   C110      1.0  0.82021  0.05413  0.49124  1.0000
  H   H148      1.0  0.96213  0.27803  0.68478  1.0000
  C   C111      1.0  0.12280  0.30566  0.66980  1.0000
  H   H149      1.0  0.21717  0.04311  0.71170  1.0000
  H   H150      1.0  0.06299  0.06944  0.70130  1.0000
  Fe  Fe16      1.0  0.93363  0.93849  0.68563  1.0000
  H   H151      1.0  0.76915  0.15813  0.64096  1.0000
  C   C112      1.0  0.91277  0.36106  0.59857  1.0000
  S   S29       1.0  0.89155  0.87279  0.61133  1.0000
  C   C113      1.0  0.10220  0.04877  0.69941  1.0000
  H   H152      1.0  0.16563  0.03419  0.56357  1.0000
  C   C114      1.0  0.05094  0.90606  0.70957  1.0000
  H   H153      1.0  0.14593  0.31239  0.61600  1.0000
  H   H154      1.0  0.22857  0.09209  0.56529  1.0000
  H   H155      1.0  0.74623  0.05750  0.59551  1.0000
  H   H156      1.0  0.78924  0.06376  0.70775  1.0000
  H   H157      1.0  0.02589  0.23288  0.64268  1.0000
  H   H158      1.0  0.03082  0.28696  0.60712  1.0000
  Fe  Fe17      1.0  0.94736  0.92467  0.53510  1.0000
  S   S30       1.0  0.89138  0.35563  0.68356  1.0000
  C   C115      1.0  0.06270  0.86800  0.64321  1.0000
  C   C116      1.0  0.01639  0.27658  0.65783  1.0000
  C   C117      1.0  0.88147  0.34450  0.49815  1.0000
  C   C118      1.0  0.17550  0.86916  0.63190  1.0000
  C   C119      1.0  0.84213  0.14541  0.73005  1.0000
  C   C120      1.0  0.97793  0.24457  0.85258  1.0000
  H   H159      1.0  0.00553  0.21623  0.74163  1.0000
  C   C121      1.0  0.76655  0.04850  0.91605  1.0000
  H   H160      1.0  0.10662  0.23618  0.85215  1.0000
  H   H161      1.0  0.20316  0.01523  0.83723  1.0000
  H   H162      1.0  0.81245  0.06549  0.88188  1.0000
  H   H163      1.0  0.88919  0.07408  0.93654  1.0000
  C   C122      1.0  0.88700  0.02823  0.91534  1.0000
  H   H164      1.0  0.89367  0.01681  0.85869  1.0000
  H   H165      1.0  0.15179  0.08977  0.83524  1.0000
  S   S31       1.0  0.15661  0.94488  0.93140  1.0000
  C   C123      1.0  0.97492  0.28948  0.91137  1.0000
  C   C124      1.0  0.00353  0.25282  0.78512  1.0000
  C   C125      1.0  0.12726  0.06878  0.87647  1.0000
  H   H166      1.0  0.87959  0.23107  0.76191  1.0000
  C   C126      1.0  0.14560  0.21620  0.80576  1.0000
  H   H167      1.0  0.76985  0.26239  0.82985  1.0000
  C   C127      1.0  0.15669  0.02729  0.87818  1.0000
  C   C128      1.0  0.06618  0.08315  0.92848  1.0000
  C   C129      1.0  0.82620  0.93928  0.92579  1.0000
  H   H168      1.0  0.78240  0.91502  0.95657  1.0000
  H   H169      1.0  0.96050  0.20301  0.85930  1.0000
  H   H170      1.0  0.95496  0.28310  0.96366  1.0000
  H   H171      1.0  0.93131  0.01621  0.91601  1.0000
  C   C130      1.0  0.83608  0.20126  0.76514  1.0000
  C   C131      1.0  0.77354  0.21901  0.80399  1.0000
  H   H172      1.0  0.09249  0.04789  0.75394  1.0000
  C   C132      1.0  0.12447  0.00012  0.93165  1.0000
  H   H173      1.0  0.09271  0.95679  0.78699  1.0000
  S   S32       1.0  0.02828  0.13378  0.92580  1.0000
  H   H174      1.0  0.08104  0.14363  0.78523  1.0000
  C   C133      1.0  0.21146  0.17933  0.97924  1.0000
  S   S33       1.0  0.97333  0.92888  0.75945  1.0000
  N   N11       1.0  0.82442  0.99985  0.95691  1.0000
  C   C134      1.0  0.02406  0.35145  0.83572  1.0000
  C   C135      1.0  0.76424  0.01527  0.95801  1.0000
  H   H175      1.0  0.23917  0.06394  0.96771  1.0000
  H   H176      1.0  0.82748  0.92685  0.87067  1.0000
  H   H177      1.0  0.87096  0.92600  0.92379  1.0000
  C   C136      1.0  0.02531  0.30683  0.77474  1.0000
  S   S34       1.0  0.84907  0.98814  0.73252  1.0000
  C   C137      1.0  0.13165  0.16232  0.76694  1.0000
  C   C138      1.0  0.10188  0.92708  0.73586  1.0000
  H   H178      1.0  0.01096  0.88432  0.85378  1.0000
  H   H179      1.0  0.12361  0.86930  0.82191  1.0000
  C   C139      1.0  0.78514  0.10692  0.73572  1.0000
  H   H180      1.0  0.22012  0.28540  0.81658  1.0000
  C   C140      1.0  0.20945  0.24377  0.78606  1.0000
  C   C141      1.0  0.99835  0.34271  0.90298  1.0000
  H   H181      1.0  0.72396  0.73304  0.20791  1.0000
  C   C142      1.0  0.55121  0.71638  0.08066  1.0000
  H   H182      1.0  0.54478  0.37784  0.06874  1.0000
  C   C143      1.0  0.44961  0.47951  0.16568  1.0000
  H   H183      1.0  0.55094  0.57706  0.02123  1.0000
  C   C144      1.0  0.39058  0.47845  0.15726  1.0000
  H   H184      1.0  0.64513  0.69369  0.11168  1.0000
  H   H185      1.0  0.24497  0.51902  0.07667  1.0000
  S   S35       1.0  0.51681  0.52879  0.14016  1.0000
  Fe  Fe18      1.0  0.57158  0.54306  0.21122  1.0000
  C   C145      1.0  0.28628  0.64597  0.13611  1.0000
  H   H186      1.0  0.58329  0.37561  0.16130  1.0000
  C   C146      1.0  0.60873  0.65824  0.09895  1.0000
  S   S36       1.0  0.46396  0.83016  0.11620  1.0000
  H   H187      1.0  0.50740  0.71456  0.12980  1.0000
  N   N12       1.0  0.58309  0.66462  0.04901  1.0000
  C   C147      1.0  0.72018  0.48057  0.01594  1.0000
  H   H188      1.0  0.30035  0.65927  0.18203  1.0000
  H   H189      1.0  0.49014  0.61657  0.09301  1.0000
  H   H190      1.0  0.58485  0.75348  0.09587  1.0000
  H   H191      1.0  0.48756  0.47698  0.01428  1.0000
  C   C148      1.0  0.45482  0.44141  0.19571  1.0000
  H   H192      1.0  0.30541  0.84348  0.17499  1.0000
  C   C149      1.0  0.31350  0.60566  0.01103  1.0000
  S   S37       1.0  0.64944  0.86040  0.05539  1.0000
  C   C150      1.0  0.33683  0.43892  0.17875  1.0000
  H   H193      1.0  0.37941  0.61629  0.06510  1.0000
  H   H194      1.0  0.29113  0.43814  0.17247  1.0000
  H   H195      1.0  0.63305  0.61966  0.07701  1.0000
  H   H196      1.0  0.69207  0.74255  0.02772  1.0000
  H   H197      1.0  0.25501  0.41938  0.02600  1.0000
  H   H198      1.0  0.67870  0.78584  0.21855  1.0000
  C   C151      1.0  0.67158  0.43497  0.02299  1.0000
  C   C152      1.0  0.53090  0.61755  0.04131  1.0000
  C   C153      1.0  0.67997  0.38962  0.04091  1.0000
  H   H199      1.0  0.50831  0.61986  0.00533  1.0000
  C   C154      1.0  0.72352  0.77863  0.22339  1.0000
  C   C155      1.0  0.27381  0.85004  0.15246  1.0000
  H   H200      1.0  0.56805  0.65513  0.15005  1.0000
  S   S38       1.0  0.65242  0.49813  0.19455  1.0000
  C   C156      1.0  0.33113  0.62219  0.07016  1.0000
  H   H201      1.0  0.38621  0.50856  0.13507  1.0000
  H   H202      1.0  0.50019  0.44242  0.20281  1.0000
  C   C157      1.0  0.40162  0.40145  0.21599  1.0000
  H   H203      1.0  0.53446  0.72439  0.04322  1.0000
  C   C158      1.0  0.34289  0.39976  0.20692  1.0000
  H   H204      1.0  0.71173  0.51512  0.00403  1.0000
  H   H205      1.0  0.62746  0.43693  0.01543  1.0000
  H   H206      1.0  0.37575  0.46920  0.01210  1.0000
  Fe  Fe19      1.0  0.42696  0.82527  0.22738  1.0000
  C   C159      1.0  0.73964  0.39301  0.05118  1.0000
  C   C160      1.0  0.25115  0.61325  0.01757  1.0000
  C   C161      1.0  0.63825  0.66758  0.98150  1.0000
  H   H207      1.0  0.37684  0.73870  0.98780  1.0000
  C   C162      1.0  0.74148  0.36639  0.47517  1.0000
  C   C163      1.0  0.31516  0.47874  0.41717  1.0000
  H   H208      1.0  0.66549  0.79807  0.40110  1.0000
  C   C164      1.0  0.46093  0.44550  0.47204  1.0000
  C   C165      1.0  0.48693  0.70972  0.37407  1.0000
  C   C166      1.0  0.24857  0.73012  0.42039  1.0000
  S   S39       1.0  0.60611  0.41996  0.32438  1.0000
  H   H209      1.0  0.24695  0.76960  0.46221  1.0000
  H   H210      1.0  0.40581  0.37274  0.23989  1.0000
  H   H211      1.0  0.47147  0.36949  0.34435  1.0000
  H   H212      1.0  0.73392  0.68301  0.40595  1.0000
  H   H213      1.0  0.66659  0.73402  0.33364  1.0000
  C   C167      1.0  0.47526  0.76367  0.38553  1.0000
  S   S40       1.0  0.51600  0.53714  0.32222  1.0000
  C   C168      1.0  0.68557  0.40309  0.26764  1.0000
  C   C169      1.0  0.66686  0.77939  0.34611  1.0000
  C   C170      1.0  0.26781  0.43700  0.39938  1.0000
  H   H214      1.0  0.48882  0.46460  0.42743  1.0000
  H   H215      1.0  0.43510  0.81560  0.35591  1.0000
  S   S41       1.0  0.52870  0.69625  0.41929  1.0000
  C   C171      1.0  0.71470  0.86426  0.31406  1.0000
  H   H216      1.0  0.72911  0.48818  0.27645  1.0000
  C   C172      1.0  0.71244  0.41984  0.42169  1.0000
  S   S42       1.0  0.62750  0.62597  0.23870  1.0000
  Fe  Fe20      1.0  0.60279  0.50006  0.30847  1.0000
  H   H217      1.0  0.27472  0.62467  0.35264  1.0000
  Fe  Fe21      1.0  0.57489  0.61924  0.34948  1.0000
  H   H218      1.0  0.74243  0.45755  0.44251  1.0000
  C   C173      1.0  0.44485  0.77397  0.34619  1.0000
  S   S43       1.0  0.38694  0.74175  0.24677  1.0000
  C   C174      1.0  0.31347  0.37089  0.41953  1.0000
  N   N13       1.0  0.68546  0.38226  0.46845  1.0000
  S   S44       1.0  0.65674  0.58183  0.34721  1.0000
  C   C175      1.0  0.46664  0.66625  0.32454  1.0000
  H   H219      1.0  0.39681  0.50136  0.44985  1.0000
  H   H220      1.0  0.49014  0.79755  0.42426  1.0000
  H   H221      1.0  0.67182  0.43377  0.41652  1.0000
  H   H222      1.0  0.31639  0.52039  0.41517  1.0000
  H   H223      1.0  0.30009  0.72787  0.38238  1.0000
  H   H224      1.0  0.47428  0.62451  0.31581  1.0000
  C   C176      1.0  0.36175  0.46695  0.43655  1.0000
  C   C177      1.0  0.26667  0.38331  0.40106  1.0000
  C   C178      1.0  0.42561  0.73022  0.29598  1.0000
  C   C179      1.0  0.43557  0.67629  0.28610  1.0000
  H   H225      1.0  0.61901  0.78548  0.34655  1.0000
  H   H226      1.0  0.42018  0.64219  0.24798  1.0000
  N   N14       1.0  0.72425  0.80521  0.29563  1.0000
  N   N15       1.0  0.41310  0.39752  0.45454  1.0000
  C   C180      1.0  0.36274  0.41226  0.43751  1.0000
  H   H227      1.0  0.33472  0.74888  0.47627  1.0000
  Fe  Fe22      1.0  0.70348  0.58056  0.23306  1.0000
  H   H228      1.0  0.73088  0.78353  0.46249  1.0000
  C   C181      1.0  0.73711  0.44532  0.25117  1.0000
  H   H229      1.0  0.63669  0.71528  0.47663  1.0000
  H   H230      1.0  0.74234  0.63924  0.45066  1.0000
  S   S45       1.0  0.25213  0.84368  0.58441  1.0000
  C   C182      1.0  0.28394  0.61922  0.54715  1.0000
  H   H231      1.0  0.34955  0.40371  0.56225  1.0000
  C   C183      1.0  0.62734  0.71410  0.52937  1.0000
  C   C184      1.0  0.67996  0.72029  0.55281  1.0000
  C   C185      1.0  0.38040  0.37396  0.51606  1.0000
  S   S46       1.0  0.37218  0.44819  0.69704  1.0000
  C   C186      1.0  0.60031  0.55944  0.60904  1.0000
  H   H232      1.0  0.55020  0.59169  0.72070  1.0000
  C   C187      1.0  0.26287  0.67435  0.48649  1.0000
  S   S47       1.0  0.52862  0.52747  0.59108  1.0000
  C   C188      1.0  0.72012  0.57891  0.56610  1.0000
  C   C189      1.0  0.59740  0.58808  0.67761  1.0000
  C   C190      1.0  0.66203  0.72037  0.62418  1.0000
  C   C191      1.0  0.66160  0.55557  0.55323  1.0000
  C   C192      1.0  0.33974  0.65593  0.55219  1.0000
  H   H233      1.0  0.67548  0.45147  0.56138  1.0000
  Fe  Fe23      1.0  0.43066  0.52965  0.68097  1.0000
  H   H234      1.0  0.59674  0.82314  0.63823  1.0000
  C   C193      1.0  0.65583  0.61339  0.69004  1.0000
  S   S48       1.0  0.34804  0.56111  0.67585  1.0000
  H   H235      1.0  0.36989  0.64861  0.57614  1.0000
  C   C194      1.0  0.71726  0.60817  0.63450  1.0000
  S   S49       1.0  0.41835  0.85762  0.60933  1.0000
  C   C195      1.0  0.64543  0.41441  0.53947  1.0000
  H   H236      1.0  0.55214  0.82721  0.55253  1.0000
  H   H237      1.0  0.58307  0.71121  0.72131  1.0000
  H   H238      1.0  0.39987  0.73120  0.53104  1.0000
  H   H239      1.0  0.49426  0.69867  0.67646  1.0000
  H   H240      1.0  0.42178  0.79085  0.70562  1.0000
  H   H241      1.0  0.60399  0.42999  0.53782  1.0000
  C   C196      1.0  0.59569  0.71268  0.66788  1.0000
  C   C197      1.0  0.61922  0.85370  0.60861  1.0000
  C   C198      1.0  0.35655  0.70247  0.52681  1.0000
  Fe  Fe24      1.0  0.28784  0.48227  0.69945  1.0000
  H   H242      1.0  0.66370  0.53422  0.49999  1.0000
  C   C199      1.0  0.56123  0.70646  0.57368  1.0000
  H   H243      1.0  0.52193  0.70149  0.55450  1.0000
  H   H244      1.0  0.69827  0.72539  0.64730  1.0000
  C   C200      1.0  0.59406  0.85607  0.56015  1.0000
  C   C201      1.0  0.54547  0.70530  0.64260  1.0000
  H   H245      1.0  0.27020  0.58342  0.56797  1.0000
  H   H246      1.0  0.62486  0.38926  0.57818  1.0000
  S   S50       1.0  0.72009  0.39617  0.71286  1.0000
  H   H247      1.0  0.43588  0.47781  0.51964  1.0000
  C   C202      1.0  0.31880  0.71191  0.49461  1.0000
  H   H248      1.0  0.49898  0.43317  0.48334  1.0000
  C   C203      1.0  0.24582  0.62829  0.51510  1.0000
  H   H249      1.0  0.25251  0.73105  0.66533  1.0000
  H   H250      1.0  0.36668  0.70003  0.73132  1.0000
  H   H251      1.0  0.51498  0.83454  0.79591  1.0000
  C   C204      1.0  0.53801  0.47394  0.90442  1.0000
  C   C205      1.0  0.56084  0.76156  0.86799  1.0000
  C   C206      1.0  0.46709  0.70169  0.92432  1.0000
  C   C207      1.0  0.32208  0.73588  0.84335  1.0000
  H   H252      1.0  0.46250  0.46185  0.79122  1.0000
  H   H253      1.0  0.61165  0.76526  0.83236  1.0000
  C   C208      1.0  0.64147  0.62820  0.91596  1.0000
  C   C209      1.0  0.36132  0.73778  0.77381  1.0000
  C   C210      1.0  0.69339  0.63356  0.85304  1.0000
  H   H254      1.0  0.27550  0.80799  0.75196  1.0000
  H   H255      1.0  0.59935  0.82382  0.76823  1.0000
  Fe  Fe25      1.0  0.34141  0.49156  0.81249  1.0000
  H   H256      1.0  0.56279  0.67570  0.85684  1.0000
  H   H257      1.0  0.44542  0.66135  0.93329  1.0000
  H   H258      1.0  0.34794  0.58628  0.95979  1.0000
  H   H259      1.0  0.57406  0.46829  0.79340  1.0000
  C   C211      1.0  0.45592  0.79725  0.94252  1.0000
  C   C212      1.0  0.48206  0.47417  0.96591  1.0000
  C   C213      1.0  0.41891  0.46937  0.96446  1.0000
  H   H260      1.0  0.65332  0.63739  0.74251  1.0000
  C   C214      1.0  0.38418  0.83797  0.81450  1.0000
  S   S51       1.0  0.25206  0.51873  0.81644  1.0000
  H   H261      1.0  0.60460  0.59276  0.91174  1.0000
  C   C215      1.0  0.74359  0.67764  0.85333  1.0000
  H   H262      1.0  0.28426  0.78346  0.95178  1.0000
  S   S52       1.0  0.27746  0.67414  0.86367  1.0000
  C   C216      1.0  0.39175  0.78910  0.75923  1.0000
  S   S53       1.0  0.33284  0.45884  0.89998  1.0000
  C   C217      1.0  0.46781  0.46544  0.84009  1.0000
  C   C218      1.0  0.69097  0.71128  0.97996  1.0000
  S   S54       1.0  0.40642  0.57062  0.79667  1.0000
  C   C219      1.0  0.42859  0.74524  0.95491  1.0000
  N   N16       1.0  0.55238  0.86034  0.88006  1.0000
  Fe  Fe26      1.0  0.65809  0.40128  0.82629  1.0000
  C   C220      1.0  0.34672  0.83525  0.88380  1.0000
  Fe  Fe27      1.0  0.31886  0.59522  0.79295  1.0000
  C   C221      1.0  0.53315  0.70986  0.88120  1.0000
  C   C222      1.0  0.53090  0.46902  0.84130  1.0000
  C   C223      1.0  0.31456  0.78469  0.89799  1.0000
  H   H263      1.0  0.69494  0.60308  0.80361  1.0000
  C   C224      1.0  0.41181  0.46514  0.90157  1.0000
  S   S55       1.0  0.61647  0.47734  0.90595  1.0000
  C   C225      1.0  0.52318  0.80705  0.89849  1.0000
  H   H264      1.0  0.42295  0.82892  0.96763  1.0000
  C   C226      1.0  0.56180  0.85228  0.80556  1.0000
  H   H265      1.0  0.65583  0.85186  0.84955  1.0000
  C   C227      1.0  0.74287  0.71600  0.91683  1.0000
  H   H266      1.0  0.64902  0.95298  0.17695  1.0000
  C   C228      1.0  0.29638  0.88671  0.11015  1.0000
  C   C229      1.0  0.65756  0.13972  0.14440  1.0000
  H   H267      1.0  0.49918  0.91233  0.98149  1.0000
  C   C230      1.0  0.27877  0.25393  0.03305  1.0000
  N   N17       1.0  0.62967  0.34072  0.04938  1.0000
  C   C231      1.0  0.25606  0.89331  0.07939  1.0000
  H   H268      1.0  0.56546  0.30132  0.13187  1.0000
  S   S56       1.0  0.32825  0.20261  0.13872  1.0000
  C   C232      1.0  0.60440  0.33719  0.12322  1.0000
  C   C233      1.0  0.54603  0.14900  0.16157  1.0000
  C   C234      1.0  0.68143  0.15639  0.08231  1.0000
  Fe  Fe28      1.0  0.55200  0.88180  0.13731  1.0000
  H   H269      1.0  0.25771  0.10972  0.04317  1.0000
  H   H270      1.0  0.43861  0.08658  0.00093  1.0000
  H   H271      1.0  0.69595  0.27995  0.01869  1.0000
  C   C235      1.0  0.70469  0.88658  0.09937  1.0000
  H   H272      1.0  0.35171  0.35990  0.04632  1.0000
  S   S57       1.0  0.37275  0.92765  0.09910  1.0000
  S   S58       1.0  0.51452  0.18219  0.07221  1.0000
  Fe  Fe29      1.0  0.41481  0.19241  0.15853  1.0000
  C   C236      1.0  0.69285  0.93288  0.15823  1.0000
  C   C237      1.0  0.73983  0.95507  0.19064  1.0000
  S   S59       1.0  0.51140  0.96256  0.17492  1.0000
  C   C238      1.0  0.56967  0.16557  0.09960  1.0000
  S   S60       1.0  0.71149  0.12314  0.17320  1.0000
  C   C239      1.0  0.32301  0.03843  0.05190  1.0000
  C   C240      1.0  0.25312  0.06580  0.01207  1.0000
  H   H273      1.0  0.33079  0.08058  0.08592  1.0000
  N   N18       1.0  0.31471  0.04071  0.98816  1.0000
  Fe  Fe30      1.0  0.26743  0.15243  0.21547  1.0000
  H   H274      1.0  0.73333  0.15768  0.05029  1.0000
  C   C241      1.0  0.58970  0.13553  0.18364  1.0000
  H   H275      1.0  0.49392  0.14563  0.19163  1.0000
  C   C242      1.0  0.39307  0.33423  0.02397  1.0000
  H   H276      1.0  0.57109  0.12222  0.23133  1.0000
  H   H277      1.0  0.64386  0.33131  0.13777  1.0000
  H   H278      1.0  0.27845  0.01647  0.08509  1.0000
  H   H279      1.0  0.27428  0.92017  0.04531  1.0000
  S   S61       1.0  0.35462  0.13490  0.22647  1.0000
  Fe  Fe31      1.0  0.42022  0.90965  0.16097  1.0000
  C   C243      1.0  0.63746  0.16852  0.05938  1.0000
  H   H280      1.0  0.36495  0.01543  0.03813  1.0000
  H   H281      1.0  0.28284  0.28155  0.08176  1.0000
  H   H282      1.0  0.65606  0.17865  0.00960  1.0000
  H   H283      1.0  0.38973  0.31507  0.06461  1.0000
  H   H284      1.0  0.69473  0.97112  0.03511  1.0000
  H   H285      1.0  0.53582  0.30388  0.03867  1.0000
  S   S62       1.0  0.27823  0.34713  0.22713  1.0000
  H   H286      1.0  0.27662  0.01487  0.22596  1.0000
  H   H287      1.0  0.62262  0.25272  0.99955  1.0000
  C   C244      1.0  0.66025  0.28973  0.00183  1.0000
  H   H288      1.0  0.59514  0.99689  0.03919  1.0000
  H   H289      1.0  0.43949  0.36360  0.01549  1.0000
  C   C245      1.0  0.70054  0.99630  0.00150  1.0000
  C   C246      1.0  0.64299  0.01030  0.00367  1.0000
  C   C247      1.0  0.57202  0.34175  0.03261  1.0000
  H   H290      1.0  0.25142  0.09118  0.37819  1.0000
  C   C248      1.0  0.57896  0.31658  0.47233  1.0000
  S   S63       1.0  0.37418  0.90053  0.27146  1.0000
  C   C249      1.0  0.40255  0.10304  0.46525  1.0000
  C   C250      1.0  0.27976  0.00172  0.26856  1.0000
  S   S64       1.0  0.24770  0.22577  0.30970  1.0000
  H   H291      1.0  0.29061  0.95804  0.24603  1.0000
  C   C251      1.0  0.64757  0.33193  0.43767  1.0000
  N   N19       1.0  0.62336  0.07782  0.44835  1.0000
  H   H292      1.0  0.71390  0.88667  0.36821  1.0000
  C   C252      1.0  0.41936  0.13489  0.34744  1.0000
  C   C253      1.0  0.64555  0.24789  0.34100  1.0000
  Fe  Fe32      1.0  0.46930  0.94760  0.28250  1.0000
  H   H293      1.0  0.73141  0.30528  0.34114  1.0000
  H   H294      1.0  0.65701  0.31495  0.24735  1.0000
  C   C254      1.0  0.43654  0.07136  0.39730  1.0000
  C   C255      1.0  0.68069  0.11932  0.42626  1.0000
  C   C256      1.0  0.62168  0.02639  0.39081  1.0000
  H   H295      1.0  0.55767  0.11306  0.42824  1.0000
  S   S65       1.0  0.51923  0.87120  0.24546  1.0000
  H   H296      1.0  0.42069  0.31497  0.38383  1.0000
  H   H297      1.0  0.66819  0.00708  0.36811  1.0000
  H   H298      1.0  0.49304  0.25705  0.46890  1.0000
  H   H299      1.0  0.32497  0.99362  0.47018  1.0000
  S   S66       1.0  0.46491  0.01002  0.38577  1.0000
  H   H300      1.0  0.47284  0.06429  0.28619  1.0000
  H   H301      1.0  0.67125  0.22127  0.28987  1.0000
  H   H302      1.0  0.58018  0.99468  0.41001  1.0000
  C   C257      1.0  0.56203  0.10293  0.47226  1.0000
  H   H303      1.0  0.55229  0.19669  0.35269  1.0000
  H   H304      1.0  0.70748  0.08587  0.31140  1.0000
  C   C258      1.0  0.57849  0.23406  0.37623  1.0000
  H   H305      1.0  0.49381  0.34718  0.40120  1.0000
  C   C259      1.0  0.38148  0.16427  0.41429  1.0000
  H   H306      1.0  0.32350  0.02718  0.28020  1.0000
  C   C260      1.0  0.44547  0.08775  0.33856  1.0000
  Fe  Fe33      1.0  0.33973  0.21240  0.31640  1.0000
  C   C261      1.0  0.54522  0.26832  0.44166  1.0000
  H   H307      1.0  0.31133  0.03675  0.39245  1.0000
  C   C262      1.0  0.67962  0.29607  0.37094  1.0000
  S   S67       1.0  0.34033  0.21744  0.42243  1.0000
  C   C263      1.0  0.28279  0.97920  0.45366  1.0000
  C   C264      1.0  0.69696  0.34774  0.23549  1.0000
  C   C265      1.0  0.69735  0.16551  0.47735  1.0000
  C   C266      1.0  0.37419  0.14918  0.47370  1.0000
  C   C267      1.0  0.71830  0.11766  0.35420  1.0000
  H   H308      1.0  0.61247  0.03397  0.34790  1.0000
  C   C268      1.0  0.27489  0.00329  0.40877  1.0000
  H   H309      1.0  0.42897  0.14892  0.30258  1.0000
  H   H310      1.0  0.31127  0.32845  0.41907  1.0000
  S   S68       1.0  0.40481  0.26886  0.24863  1.0000
  C   C269      1.0  0.45118  0.35548  0.39339  1.0000
  S   S69       1.0  0.58377  0.90628  0.47281  1.0000
  Fe  Fe34      1.0  0.31348  0.27532  0.23379  1.0000
  H   H311      1.0  0.66667  0.86875  0.31327  1.0000
  H   H312      1.0  0.73250  0.99227  0.23385  1.0000
  H   H313      1.0  0.48636  0.26175  0.59286  1.0000
  H   H314      1.0  0.28659  0.14484  0.64323  1.0000
  H   H315      1.0  0.26928  0.05403  0.62695  1.0000
  S   S70       1.0  0.37626  0.10021  0.68280  1.0000
  H   H316      1.0  0.34746  0.33494  0.50563  1.0000
  C   C270      1.0  0.49070  0.23163  0.61499  1.0000
  C   C271      1.0  0.50199  0.15262  0.67078  1.0000
  Fe  Fe35      1.0  0.48502  0.92282  0.55697  1.0000
  C   C272      1.0  0.67624  0.93353  0.53287  1.0000
  Fe  Fe36      1.0  0.65661  0.31564  0.69127  1.0000
  H   H317      1.0  0.39561  0.18681  0.61941  1.0000
  C   C273      1.0  0.25958  0.21765  0.72716  1.0000
  C   C274      1.0  0.55271  0.19644  0.65794  1.0000
  C   C275      1.0  0.44429  0.14988  0.65875  1.0000
  H   H318      1.0  0.61313  0.09460  0.55756  1.0000
  H   H319      1.0  0.59663  0.19915  0.66868  1.0000
  S   S71       1.0  0.61133  0.28875  0.60947  1.0000
  C   C276      1.0  0.54723  0.23562  0.62933  1.0000
  C   C277      1.0  0.70065  0.93148  0.58191  1.0000
  H   H320      1.0  0.50745  0.12158  0.69073  1.0000
  Fe  Fe37      1.0  0.41536  0.92182  0.70994  1.0000
  H   H321      1.0  0.58459  0.02610  0.52041  1.0000
  Fe  Fe38      1.0  0.39934  0.01396  0.65953  1.0000
  H   H322      1.0  0.39609  0.09070  0.51104  1.0000
  H   H323      1.0  0.67205  0.04749  0.49436  1.0000
  S   S72       1.0  0.72297  0.26550  0.69434  1.0000
  C   C278      1.0  0.43905  0.18934  0.63057  1.0000
  S   S73       1.0  0.40302  0.95616  0.55435  1.0000
  S   S74       1.0  0.48715  0.98555  0.65770  1.0000
  H   H324      1.0  0.30923  0.23925  0.71187  1.0000
  C   C279      1.0  0.67297  0.89121  0.61910  1.0000
  H   H325      1.0  0.72369  0.33553  0.50651  1.0000
  H   H326      1.0  0.51716  0.07459  0.49343  1.0000
  C   C280      1.0  0.62371  0.06105  0.50759  1.0000
  H   H327      1.0  0.66896  0.17161  0.53302  1.0000
  H   H328      1.0  0.56063  0.14210  0.51447  1.0000
  Fe  Fe39      1.0  0.33584  0.89636  0.61588  1.0000
  C   C281      1.0  0.62258  0.89613  0.52243  1.0000
  H   H329      1.0  0.34572  0.17240  0.52580  1.0000
  H   H330      1.0  0.55055  0.34069  0.52367  1.0000
  S   S75       1.0  0.70752  0.88579  0.67586  1.0000
  S   S76       1.0  0.32710  0.95597  0.72140  1.0000
  H   H331      1.0  0.69641  0.96582  0.50599  1.0000
  H   H332      1.0  0.24519  0.91578  0.50868  1.0000
  H   H333      1.0  0.73848  0.96279  0.59370  1.0000
  C   C282      1.0  0.24621  0.16353  0.68842  1.0000
  H   H334      1.0  0.41708  0.36404  0.53158  1.0000
  H   H335      1.0  0.42095  0.10925  0.79099  1.0000
  C   C283      1.0  0.37154  0.07174  0.94403  1.0000
  H   H336      1.0  0.32582  0.06514  0.86937  1.0000
  H   H337      1.0  0.49536  0.28533  0.92901  1.0000
  H   H338      1.0  0.45505  0.23042  0.87857  1.0000
  C   C284      1.0  0.71651  0.18104  0.80859  1.0000
  C   C285      1.0  0.70858  0.06144  0.91774  1.0000
  H   H339      1.0  0.29972  0.98047  0.89620  1.0000
  C   C286      1.0  0.32960  0.25413  0.96604  1.0000
  H   H340      1.0  0.36196  0.34478  0.91973  1.0000
  H   H341      1.0  0.35615  0.21069  0.85378  1.0000
  H   H342      1.0  0.63840  0.92079  0.87851  1.0000
  Fe  Fe40      1.0  0.66182  0.28042  0.80913  1.0000
  S   S77       1.0  0.42404  0.90257  0.79953  1.0000
  H   H343      1.0  0.53452  0.94586  0.91142  1.0000
  H   H344      1.0  0.68704  0.29345  0.94705  1.0000
  C   C287      1.0  0.42415  0.10462  0.83728  1.0000
  H   H345      1.0  0.67825  0.09531  0.77745  1.0000
  H   H346      1.0  0.34184  0.87224  0.92701  1.0000
  C   C288      1.0  0.51032  0.90580  0.92436  1.0000
  N   N20       1.0  0.39231  0.29187  0.95754  1.0000
  C   C289      1.0  0.48307  0.12171  0.84969  1.0000
  H   H347      1.0  0.60238  0.05428  0.96428  1.0000
  C   C290      1.0  0.30646  0.98308  0.94534  1.0000
  S   S78       1.0  0.63925  0.20575  0.84794  1.0000
  C   C291      1.0  0.43188  0.09086  0.95628  1.0000
  C   C292      1.0  0.64698  0.04248  0.96147  1.0000
  C   C293      1.0  0.36930  0.07986  0.88332  1.0000
  S   S79       1.0  0.72438  0.35840  0.84186  1.0000
  C   C294      1.0  0.44757  0.25870  0.93229  1.0000
  C   C295      1.0  0.48666  0.11543  0.90950  1.0000
  C   C296      1.0  0.31900  0.21441  0.90627  1.0000
  C   C297      1.0  0.72223  0.12475  0.77513  1.0000
  H   H348      1.0  0.26235  0.95837  0.97460  1.0000
  H   H349      1.0  0.43848  0.23269  0.96811  1.0000
  C   C298      1.0  0.26053  0.17801  0.91294  1.0000
  C   C299      1.0  0.61760  0.87923  0.88821  1.0000
  H   H350      1.0  0.25355  0.14831  0.86632  1.0000
  H   H351      1.0  0.53251  0.12922  0.91943  1.0000
  C   C300      1.0  0.40446  0.32205  0.90495  1.0000
  S   S80       1.0  0.58999  0.32409  0.80393  1.0000
  H   H352      1.0  0.57852  0.89205  0.79031  1.0000
  H   H353      1.0  0.35059  0.96245  0.92949  1.0000
  H   H354      1.0  0.61352  0.88158  0.94227  1.0000
  H   H355      1.0  0.41323  0.29428  0.85079  1.0000
  H   H356      1.0  0.52612  0.13980  0.81294  1.0000
  H   H357      1.0  0.46295  0.89752  0.91550  1.0000
  H   H358      1.0  0.44927  0.35314  0.90038  1.0000
  H   H359      1.0  0.71150  0.08757  0.88625  1.0000
  H   H360      1.0  0.58784  0.34326  0.97709  1.0000
