data_image0
_chemical_formula_structural       CHC2H2CHCHNCH5C3H4C2SC2HC2SCH3FeCHCH2CH2CHCH3CH2C3SH3CHCH2C2HCHSC2HS2NCHC2HC2HSFeCHSNCH2CFeCHCHCHCH5C2SHCH2C2HSHCH2FeC3SCFeCFe2NHCHCSC2H3CHFeH2SHCHSC2HC4HCSH3SNH2FeH4CH2CHSHS2H4C2H3C2H4CH2CHC3HFeCH2CHCH4CHFeCSHCHSCNHCHSH2C2SC2HCHC3H5C4H3C2H4SCHCFeHNHCH2NHC2H2C2FeCHC3HCHFeH2CSCH2CFeSHCH3CSH3CHCFeC2H7NHCS2CH2SCHC4HS2HCHSHSFeC2HC2HCSCNC2H5CHC2HC2H2FeCHCHC2HCH2NH3CH2C5SH6C2HC2FeC3HSH2FeC2HC2H2CHCSNSHSHSH2S2H2C3HCH3SHFeC4H3C5HCHFeCH2CH2C3NH3NHCH2CS2HCSHCH2SC2HCFeH2SHFeHCHCH2CSCFeH3CSHSH3CHCHSC2HSH3S2HC2FeCHC3HFe2SCH4C2HCHCHNC4H2CH4CH3C3HC5H2SCHCSHNCNCHCHC2FeHCHFeH2CH3C3HCHCHFeC2H2C4H2NC3HCHCHFeH3CHCHCHCHSHCSCH2CSCHCHSHSNFeCSHCH2C2H3CHFeCSHFeSHCSH2NH2SH3C2SCHCHCS2C2H2FeHFeC4S2C2FeCSH5C2FeHCH3NH3C3HCH3C2H2FeC3SHCHCH7NCFeCH5CH3S2C2HCHCH2NH2CH3C4FeHC3H2C3HSH3SNC3HC2HC2HCH2CHC3HC3HCH2SH2CH4CHNH4CFeH4CHSC2FeSCFeH4CSHFeHFeHCSCH3CHC3SH2CHCSC3H2SC3NH5CS2H2C2HSCSC3H4FeCFeH3CH5SC2HC2SH2FeHC2HCH2SCNCH2CHCHSH2C3H2SCHCSH5SH2C3H2C3HC2FeC2FeCHSCH4CH3SHFeCNH3SHSHCHNCH2SHC2H2C5FeSHC3HC2NHC2H4CHC2HC4H5C2HC2SNHCS2C4H3C2HC2HFeHCHCSCSC2HSFeH2C2HCH3S2CH3C3H2SHCSCFeCH5C3HCH3SH3CHC4H2SC2H2CHCSHCHCHFeH3SC2H4CNH3FeCH6FeHCHCFeH2SCHCSHFeCH4C3HCFeSH2CSHCSHSCH2CS2C4NC4SC2HC2HCH6CHFeCFeH2CHC2NHCSHSHC3H2SCSFeH7CSH2CHCHCHCH2CHSCHCH4CHC2HCH2FeHCHSCHNCS2HC3H2C6SFeHC4H2C2HCSC2HC2SCH4C2HFeCH2CSCHCH4CHC2H2FeSH3CH3CHC2H2NC2HCSH3CHCSH3CHC2HSH2C2HS2CHNCHCHC2FeHFeC2H2C2SCSHCH5CHCSHCH4C3HFeHFeHC2FeHCHC2HNHSC3FeCFeNH2CHC3SC2H6SHCHCH4C2H3SNFeS2CHSCH3CSFeH3SHCH2SCHFeC3
_chemical_formula_sum              "C600 H720 N40 S160 Fe80"
_cell_length_a       21.1516
_cell_length_b       32.6308
_cell_length_c       31.4241
_cell_angle_alpha    87.0579
_cell_angle_beta     88.9809
_cell_angle_gamma    84.0127

_space_group_name_H-M_alt    "P 1"
_space_group_IT_number       1

loop_
  _space_group_symop_operation_xyz
  'x, y, z'

loop_
  _atom_site_type_symbol
  _atom_site_label
  _atom_site_symmetry_multiplicity
  _atom_site_fract_x
  _atom_site_fract_y
  _atom_site_fract_z
  _atom_site_occupancy
  C   C1        1.0  0.03093  0.53055  0.57709  1.0000
  H   H1        1.0  0.10760  0.45301  0.39236  1.0000
  C   C2        1.0  0.57861  0.43553  0.48646  1.0000
  C   C3        1.0  0.05236  0.38331  0.41656  1.0000
  H   H2        1.0  0.89661  0.50514  0.47329  1.0000
  H   H3        1.0  0.06602  0.40704  0.43632  1.0000
  C   C4        1.0  0.91082  0.50263  0.34455  1.0000
  H   H4        1.0  0.30841  0.57678  0.49139  1.0000
  C   C5        1.0  0.12535  0.44002  0.36201  1.0000
  H   H5        1.0  0.81770  0.45894  0.44848  1.0000
  N   N1        1.0  0.84802  0.51191  0.41288  1.0000
  C   C6        1.0  0.35334  0.54966  0.38557  1.0000
  H   H6        1.0  0.74932  0.53658  0.41597  1.0000
  H   H7        1.0  0.61463  0.55386  0.39692  1.0000
  H   H8        1.0  0.22527  0.57935  0.50048  1.0000
  H   H9        1.0  0.78705  0.52834  0.46672  1.0000
  H   H10       1.0  0.97097  0.48339  0.56357  1.0000
  C   C7        1.0  0.23155  0.46334  0.46305  1.0000
  C   C8        1.0  0.41837  0.53760  0.38408  1.0000
  C   C9        1.0  0.26408  0.59820  0.48942  1.0000
  H   H11       1.0  0.54798  0.49046  0.57133  1.0000
  H   H12       1.0  0.97498  0.37068  0.45922  1.0000
  H   H13       1.0  0.32656  0.54438  0.41471  1.0000
  H   H14       1.0  0.27653  0.46531  0.44644  1.0000
  C   C10       1.0  0.63387  0.55101  0.36495  1.0000
  C   C11       1.0  0.58145  0.46220  0.57652  1.0000
  S   S1        1.0  0.23486  0.50330  0.57973  1.0000
  C   C12       1.0  0.00054  0.36245  0.43019  1.0000
  C   C13       1.0  0.90501  0.51446  0.43918  1.0000
  H   H15       1.0  0.62783  0.43728  0.49391  1.0000
  C   C14       1.0  0.12052  0.48816  0.47301  1.0000
  C   C15       1.0  0.59987  0.38863  0.57088  1.0000
  S   S2        1.0  0.70083  0.39831  0.35258  1.0000
  C   C16       1.0  0.45238  0.54281  0.34626  1.0000
  H   H16       1.0  0.50268  0.53254  0.34504  1.0000
  H   H17       1.0  0.44213  0.52306  0.41187  1.0000
  H   H18       1.0  0.17647  0.39590  0.43039  1.0000
  Fe  Fe1       1.0  0.63954  0.60350  0.52203  1.0000
  C   C17       1.0  0.19291  0.38570  0.39860  1.0000
  H   H19       1.0  0.07978  0.50974  0.46459  1.0000
  C   C18       1.0  0.86137  0.52468  0.36790  1.0000
  H   H20       1.0  0.87198  0.44644  0.40592  1.0000
  H   H21       1.0  0.16712  0.45687  0.35273  1.0000
  C   C19       1.0  0.16911  0.43127  0.51826  1.0000
  H   H22       1.0  0.94739  0.49474  0.42809  1.0000
  H   H23       1.0  0.80515  0.57076  0.43261  1.0000
  C   C20       1.0  0.56178  0.43897  0.44342  1.0000
  H   H24       1.0  0.07132  0.45661  0.52344  1.0000
  C   C21       1.0  0.66454  0.51272  0.35456  1.0000
  H   H25       1.0  0.87775  0.60627  0.56861  1.0000
  H   H26       1.0  0.26876  0.41380  0.50654  1.0000
  H   H27       1.0  0.78867  0.57794  0.36102  1.0000
  C   C22       1.0  0.42728  0.52499  0.54534  1.0000
  H   H28       1.0  0.40389  0.43046  0.45387  1.0000
  H   H29       1.0  0.39719  0.50074  0.54087  1.0000
  C   C23       1.0  0.47211  0.57085  0.59176  1.0000
  C   C24       1.0  0.82680  0.55901  0.34609  1.0000
  C   C25       1.0  0.17878  0.49103  0.45186  1.0000
  S   S3        1.0  0.66470  0.56227  0.57989  1.0000
  H   H30       1.0  0.48559  0.43971  0.39850  1.0000
  H   H31       1.0  0.59760  0.44259  0.41882  1.0000
  H   H32       1.0  0.37622  0.36507  0.36524  1.0000
  C   C26       1.0  0.79480  0.53799  0.43261  1.0000
  H   H33       1.0  0.83792  0.39230  0.35203  1.0000
  C   C27       1.0  0.22696  0.43382  0.49660  1.0000
  H   H34       1.0  0.46598  0.52462  0.48125  1.0000
  H   H35       1.0  0.91777  0.54675  0.43887  1.0000
  C   C28       1.0  0.49890  0.43732  0.43183  1.0000
  C   C29       1.0  0.50771  0.58564  0.55795  1.0000
  H   H36       1.0  0.07395  0.50963  0.57830  1.0000
  C   C30       1.0  0.46925  0.42745  0.50620  1.0000
  H   H37       1.0  0.23620  0.40150  0.39037  1.0000
  S   S4        1.0  0.01109  0.57611  0.37832  1.0000
  C   C31       1.0  0.53288  0.42950  0.51927  1.0000
  C   C32       1.0  0.45275  0.43213  0.46317  1.0000
  H   H38       1.0  0.47671  0.39059  0.59012  1.0000
  S   S5        1.0  0.16754  0.40167  0.56612  1.0000
  S   S6        1.0  0.84317  0.52320  0.56215  1.0000
  N   N2        1.0  0.14305  0.39476  0.36589  1.0000
  C   C33       1.0  0.50756  0.56833  0.51839  1.0000
  H   H39       1.0  0.27127  0.57480  0.35249  1.0000
  C   C34       1.0  0.83153  0.46874  0.41543  1.0000
  C   C35       1.0  0.46581  0.53869  0.51152  1.0000
  H   H40       1.0  0.66721  0.48688  0.37774  1.0000
  C   C36       1.0  0.03328  0.57227  0.58441  1.0000
  C   C37       1.0  0.11561  0.45793  0.50599  1.0000
  H   H41       1.0  0.43109  0.42207  0.52844  1.0000
  S   S7        1.0  0.56529  0.58122  0.48067  1.0000
  Fe  Fe2       1.0  0.10849  0.57966  0.40339  1.0000
  C   C38       1.0  0.43327  0.53982  0.58602  1.0000
  H   H42       1.0  0.79107  0.46506  0.39417  1.0000
  S   S8        1.0  0.18694  0.52831  0.41073  1.0000
  N   N3        1.0  0.55226  0.42504  0.56455  1.0000
  C   C39       1.0  0.08707  0.37307  0.37875  1.0000
  H   H43       1.0  0.93930  0.47632  0.35893  1.0000
  H   H44       1.0  0.64372  0.39131  0.55149  1.0000
  C   C40       1.0  0.97275  0.51577  0.56850  1.0000
  Fe  Fe3       1.0  0.76465  0.57526  0.56426  1.0000
  C   C41       1.0  0.91687  0.54275  0.56709  1.0000
  H   H45       1.0  0.62545  0.46699  0.55803  1.0000
  C   C42       1.0  0.92001  0.58492  0.57162  1.0000
  H   H46       1.0  0.46078  0.44576  0.59180  1.0000
  C   C43       1.0  0.32182  0.56668  0.34905  1.0000
  H   H47       1.0  0.53097  0.60164  0.39038  1.0000
  C   C44       1.0  0.97803  0.59958  0.58068  1.0000
  H   H48       1.0  0.24795  0.60236  0.57497  1.0000
  H   H49       1.0  0.33028  0.60094  0.56047  1.0000
  H   H50       1.0  0.25543  0.60738  0.45526  1.0000
  H   H51       1.0  0.58014  0.35996  0.56217  1.0000
  H   H52       1.0  0.72803  0.38522  0.45315  1.0000
  C   C45       1.0  0.80159  0.40342  0.63559  1.0000
  C   C46       1.0  0.51893  0.39048  0.71819  1.0000
  S   S9        1.0  0.13172  0.47788  0.65516  1.0000
  H   H53       1.0  0.61501  0.38433  0.60472  1.0000
  C   C47       1.0  0.43160  0.55948  0.80705  1.0000
  H   H54       1.0  0.38088  0.58951  0.68188  1.0000
  H   H55       1.0  0.24930  0.55986  0.79658  1.0000
  C   C48       1.0  0.33382  0.45671  0.77750  1.0000
  C   C49       1.0  0.32984  0.54486  0.83704  1.0000
  H   H56       1.0  0.59435  0.46037  0.61089  1.0000
  S   S10       1.0  0.24219  0.53618  0.67625  1.0000
  H   H57       1.0  0.65956  0.55512  0.68527  1.0000
  C   C50       1.0  0.49022  0.56393  0.71956  1.0000
  H   H58       1.0  0.87244  0.45324  0.71068  1.0000
  H   H59       1.0  0.99242  0.54682  0.71952  1.0000
  Fe  Fe4       1.0  0.30538  0.49831  0.63221  1.0000
  C   C51       1.0  0.27469  0.45680  0.79856  1.0000
  C   C52       1.0  0.03732  0.36740  0.63291  1.0000
  C   C53       1.0  0.01219  0.40835  0.62613  1.0000
  S   S11       1.0  0.40454  0.51529  0.63181  1.0000
  C   C54       1.0  0.39552  0.54357  0.84038  1.0000
  Fe  Fe5       1.0  0.21333  0.47520  0.70017  1.0000
  C   C55       1.0  0.68403  0.56713  0.79056  1.0000
  Fe  Fe6       1.0  0.16848  0.53511  0.62629  1.0000
  Fe  Fe7       1.0  0.20228  0.44550  0.61102  1.0000
  N   N4        1.0  0.84404  0.40571  0.67213  1.0000
  H   H60       1.0  0.78852  0.45699  0.70087  1.0000
  C   C56       1.0  0.40257  0.57709  0.76909  1.0000
  H   H61       1.0  0.02584  0.58427  0.78410  1.0000
  C   C57       1.0  0.66096  0.57022  0.71505  1.0000
  S   S12       1.0  0.60193  0.37227  0.82343  1.0000
  C   C58       1.0  0.45971  0.37711  0.70993  1.0000
  C   C59       1.0  0.82265  0.37873  0.70808  1.0000
  H   H62       1.0  0.09431  0.59219  0.75102  1.0000
  H   H63       1.0  0.83989  0.47212  0.65956  1.0000
  H   H64       1.0  0.06090  0.56241  0.69111  1.0000
  C   C60       1.0  0.19393  0.36460  0.83569  1.0000
  H   H65       1.0  0.43597  0.45033  0.78473  1.0000
  Fe  Fe8       1.0  0.67037  0.47692  0.83056  1.0000
  H   H66       1.0  0.69888  0.51513  0.75061  1.0000
  H   H67       1.0  0.78188  0.60663  0.72071  1.0000
  S   S13       1.0  0.10347  0.58976  0.60206  1.0000
  H   H68       1.0  0.46789  0.53692  0.70856  1.0000
  C   C61       1.0  0.01026  0.57227  0.69934  1.0000
  H   H69       1.0  0.88892  0.58100  0.69940  1.0000
  S   S14       1.0  0.58565  0.47103  0.79027  1.0000
  C   C62       1.0  0.88402  0.60665  0.71995  1.0000
  C   C63       1.0  0.94951  0.42094  0.63848  1.0000
  H   H70       1.0  0.33591  0.46193  0.74327  1.0000
  C   C64       1.0  0.91028  0.39265  0.65855  1.0000
  C   C65       1.0  0.39054  0.44975  0.80091  1.0000
  C   C66       1.0  0.68298  0.54764  0.75195  1.0000
  C   C67       1.0  0.33583  0.57596  0.76586  1.0000
  H   H71       1.0  0.98495  0.57540  0.66848  1.0000
  C   C68       1.0  0.30025  0.56022  0.79959  1.0000
  S   S15       1.0  0.73023  0.42190  0.80707  1.0000
  H   H72       1.0  0.29466  0.37872  0.77742  1.0000
  H   H73       1.0  0.30950  0.58744  0.73789  1.0000
  H   H74       1.0  0.77662  0.39145  0.72213  1.0000
  S   S16       1.0  0.64717  0.39058  0.70582  1.0000
  N   N5        1.0  0.44135  0.59579  0.73518  1.0000
  H   H75       1.0  0.80507  0.37157  0.62399  1.0000
  H   H76       1.0  0.48234  0.55796  0.81126  1.0000
  Fe  Fe9       1.0  0.64217  0.41244  0.77187  1.0000
  H   H77       1.0  0.47736  0.58226  0.62295  1.0000
  H   H78       1.0  0.81387  0.42455  0.60842  1.0000
  H   H79       1.0  0.41675  0.39275  0.72322  1.0000
  H   H80       1.0  0.52151  0.41625  0.73807  1.0000
  C   C69       1.0  0.57394  0.37191  0.69880  1.0000
  H   H81       1.0  0.51379  0.41812  0.62858  1.0000
  H   H82       1.0  0.75088  0.41192  0.64464  1.0000
  C   C70       1.0  0.83642  0.44879  0.68639  1.0000
  H   H83       1.0  0.93253  0.45296  0.63196  1.0000
  S   S17       1.0  0.28088  0.43684  0.65888  1.0000
  H   H84       1.0  0.20710  0.38326  0.72430  1.0000
  S   S18       1.0  0.20272  0.46163  0.77049  1.0000
  S   S19       1.0  0.70555  0.53828  0.83729  1.0000
  H   H85       1.0  0.85793  0.37471  0.73421  1.0000
  H   H86       1.0  0.52519  0.55232  0.74442  1.0000
  H   H87       1.0  0.51837  0.57616  0.69247  1.0000
  H   H88       1.0  0.04172  0.43042  0.61121  1.0000
  C   C71       1.0  0.04520  0.60547  0.75950  1.0000
  C   C72       1.0  0.49857  0.41955  0.59479  1.0000
  H   H89       1.0  0.98031  0.56866  0.00201  1.0000
  H   H90       1.0  0.35735  0.50123  0.93748  1.0000
  H   H91       1.0  0.35943  0.58240  0.05932  1.0000
  C   C73       1.0  0.63192  0.56435  0.00145  1.0000
  C   C74       1.0  0.46167  0.42298  0.99822  1.0000
  H   H92       1.0  0.68338  0.53780  0.05645  1.0000
  H   H93       1.0  0.66301  0.46618  0.04315  1.0000
  H   H94       1.0  0.94348  0.60062  0.06775  1.0000
  H   H95       1.0  0.45954  0.44076  0.96696  1.0000
  C   C75       1.0  0.08240  0.36857  0.85562  1.0000
  H   H96       1.0  0.15441  0.39115  0.06664  1.0000
  H   H97       1.0  0.01342  0.54378  0.95514  1.0000
  C   C76       1.0  0.21482  0.51799  0.98950  1.0000
  H   H98       1.0  0.52993  0.56029  0.06812  1.0000
  C   C77       1.0  0.01687  0.56981  0.97623  1.0000
  C   C78       1.0  0.35151  0.37206  0.98792  1.0000
  C   C79       1.0  0.31969  0.46096  0.07265  1.0000
  H   H99       1.0  0.43223  0.36543  0.05596  1.0000
  Fe  Fe10      1.0  0.12506  0.51978  0.07370  1.0000
  C   C80       1.0  0.40656  0.50215  0.08838  1.0000
  H   H100      1.0  0.15362  0.39373  0.89139  1.0000
  H   H101      1.0  0.17385  0.57725  0.00964  1.0000
  C   C81       1.0  0.31713  0.51776  0.95306  1.0000
  H   H102      1.0  0.59959  0.45258  0.98101  1.0000
  C   C82       1.0  0.34897  0.49742  0.06737  1.0000
  H   H103      1.0  0.53692  0.60590  0.87144  1.0000
  H   H104      1.0  0.32668  0.43789  0.90026  1.0000
  H   H105      1.0  0.04395  0.37835  0.87727  1.0000
  H   H106      1.0  0.05531  0.58680  0.89461  1.0000
  C   C83       1.0  0.59729  0.55762  0.96465  1.0000
  H   H107      1.0  0.41042  0.55750  0.01950  1.0000
  Fe  Fe11      1.0  0.68479  0.38729  0.86071  1.0000
  C   C84       1.0  0.06254  0.60901  0.91934  1.0000
  S   S20       1.0  0.63253  0.44329  0.88733  1.0000
  H   H108      1.0  0.22727  0.45080  0.85938  1.0000
  C   C85       1.0  0.26661  0.49655  0.96906  1.0000
  H   H109      1.0  0.24049  0.37227  0.84355  1.0000
  S   S21       1.0  0.08240  0.58409  0.08698  1.0000
  C   C86       1.0  0.60772  0.48397  0.98705  1.0000
  N   N6        1.0  0.46891  0.37797  0.99221  1.0000
  H   H110      1.0  0.53284  0.38526  0.93855  1.0000
  C   C87       1.0  0.14420  0.37695  0.86367  1.0000
  H   H111      1.0  0.06385  0.56360  0.99198  1.0000
  S   S22       1.0  0.45676  0.43660  0.87667  1.0000
  H   H112      1.0  0.50159  0.43242  0.01669  1.0000
  H   H113      1.0  0.55600  0.50852  0.93274  1.0000
  C   C88       1.0  0.54860  0.57937  0.89466  1.0000
  C   C89       1.0  0.26182  0.58192  0.97540  1.0000
  S   S23       1.0  0.37368  0.58823  0.93252  1.0000
  C   C90       1.0  0.89261  0.60155  0.07183  1.0000
  C   C91       1.0  0.53047  0.36756  0.96968  1.0000
  H   H114      1.0  0.25252  0.36325  0.98364  1.0000
  C   C92       1.0  0.84103  0.60404  0.91333  1.0000
  H   H115      1.0  0.41729  0.43297  0.01578  1.0000
  C   C93       1.0  0.64385  0.49153  0.02190  1.0000
  C   C94       1.0  0.32894  0.44299  0.86603  1.0000
  C   C95       1.0  0.38798  0.44302  0.84529  1.0000
  H   H116      1.0  0.50278  0.56671  0.90271  1.0000
  H   H117      1.0  0.80404  0.58333  0.91599  1.0000
  H   H118      1.0  0.58041  0.55604  0.87765  1.0000
  H   H119      1.0  0.90458  0.56395  0.95123  1.0000
  H   H120      1.0  0.51650  0.36104  0.05215  1.0000
  C   C96       1.0  0.40945  0.57096  0.05136  1.0000
  C   C97       1.0  0.31398  0.56065  0.95550  1.0000
  C   C98       1.0  0.65529  0.53177  0.02936  1.0000
  C   C99       1.0  0.50600  0.53158  0.07304  1.0000
  H   H121      1.0  0.43555  0.59888  0.04764  1.0000
  H   H122      1.0  0.30190  0.53304  0.86320  1.0000
  H   H123      1.0  0.41835  0.52992  0.86906  1.0000
  C   C100      1.0  0.41318  0.36672  0.96915  1.0000
  C   C101      1.0  0.58368  0.51649  0.95910  1.0000
  H   H124      1.0  0.26821  0.46355  0.96630  1.0000
  H   H125      1.0  0.57168  0.37494  0.98842  1.0000
  H   H126      1.0  0.64252  0.59493  0.00824  1.0000
  H   H127      1.0  0.05068  0.37385  0.05924  1.0000
  S   S24       1.0  0.15337  0.49158  0.01180  1.0000
  C   C102      1.0  0.21318  0.56053  0.99345  1.0000
  H   H128      1.0  0.34390  0.38496  0.01875  1.0000
  C   C103      1.0  0.89944  0.59325  0.93344  1.0000
  Fe  Fe12      1.0  0.55288  0.43184  0.84509  1.0000
  H   H129      1.0  0.32479  0.52169  0.04724  1.0000
  N   N7        1.0  0.57934  0.59218  0.93330  1.0000
  H   H130      1.0  0.67521  0.58765  0.90839  1.0000
  C   C104      1.0  0.76070  0.60589  0.08361  1.0000
  H   H131      1.0  0.27532  0.45825  0.05671  1.0000
  H   H132      1.0  0.51127  0.51476  0.04314  1.0000
  N   N8        1.0  0.43786  0.54074  0.08446  1.0000
  H   H133      1.0  0.10998  0.59969  0.93378  1.0000
  C   C105      1.0  0.29861  0.35979  0.96792  1.0000
  C   C106      1.0  0.27263  0.45030  0.84287  1.0000
  H   H134      1.0  0.70988  0.60733  0.08773  1.0000
  H   H135      1.0  0.80070  0.47571  0.24165  1.0000
  C   C107      1.0  0.87746  0.42319  0.19693  1.0000
  C   C108      1.0  0.68660  0.54000  0.28376  1.0000
  Fe  Fe13      1.0  0.57466  0.44354  0.22527  1.0000
  C   C109      1.0  0.86730  0.58425  0.10918  1.0000
  H   H136      1.0  0.02961  0.37687  0.11479  1.0000
  C   C110      1.0  0.34614  0.42849  0.09918  1.0000
  C   C111      1.0  0.69145  0.50737  0.31423  1.0000
  C   C112      1.0  0.75860  0.36280  0.33060  1.0000
  H   H137      1.0  0.08835  0.44826  0.33743  1.0000
  C   C113      1.0  0.62569  0.60342  0.16361  1.0000
  H   H138      1.0  0.67201  0.54936  0.13542  1.0000
  Fe  Fe14      1.0  0.02218  0.55172  0.13545  1.0000
  H   H139      1.0  0.21514  0.39784  0.31700  1.0000
  H   H140      1.0  0.78243  0.42382  0.25404  1.0000
  C   C114      1.0  0.60048  0.53404  0.18129  1.0000
  S   S25       1.0  0.91665  0.56067  0.14971  1.0000
  C   C115      1.0  0.32870  0.41533  0.26606  1.0000
  H   H141      1.0  0.72481  0.41340  0.16428  1.0000
  H   H142      1.0  0.81720  0.59822  0.28855  1.0000
  C   C116      1.0  0.84236  0.57099  0.30409  1.0000
  Fe  Fe15      1.0  0.15496  0.57950  0.13918  1.0000
  S   S26       1.0  0.53123  0.36617  0.31697  1.0000
  H   H143      1.0  0.32257  0.40063  0.10359  1.0000
  C   C117      1.0  0.82316  0.36790  0.33374  1.0000
  H   H144      1.0  0.36980  0.39272  0.26623  1.0000
  H   H145      1.0  0.39027  0.55950  0.22442  1.0000
  H   H146      1.0  0.65449  0.60231  0.26874  1.0000
  C   C118      1.0  0.63639  0.56109  0.15804  1.0000
  S   S27       1.0  0.05884  0.48811  0.11700  1.0000
  H   H147      1.0  0.17832  0.49431  0.26789  1.0000
  H   H148      1.0  0.33076  0.52773  0.24378  1.0000
  H   H149      1.0  0.42281  0.40670  0.14102  1.0000
  C   C119      1.0  0.27827  0.41163  0.23878  1.0000
  H   H150      1.0  0.14093  0.39906  0.12211  1.0000
  C   C120      1.0  0.80147  0.47094  0.15628  1.0000
  Fe  Fe16      1.0  0.13221  0.49147  0.16640  1.0000
  C   C121      1.0  0.33969  0.55998  0.23442  1.0000
  C   C122      1.0  0.89210  0.54923  0.28252  1.0000
  H   H151      1.0  0.44952  0.56258  0.28100  1.0000
  H   H152      1.0  0.23362  0.56339  0.28508  1.0000
  H   H153      1.0  0.53353  0.51288  0.09827  1.0000
  H   H154      1.0  0.72687  0.45942  0.22452  1.0000
  H   H155      1.0  0.47485  0.46996  0.13340  1.0000
  H   H156      1.0  0.70600  0.53563  0.25193  1.0000
  H   H157      1.0  0.45699  0.54053  0.15166  1.0000
  N   N9        1.0  0.80928  0.43603  0.18876  1.0000
  H   H158      1.0  0.45569  0.59006  0.12436  1.0000
  C   C123      1.0  0.62913  0.58522  0.33496  1.0000
  S   S28       1.0  0.20191  0.51798  0.12177  1.0000
  S   S29       1.0  0.48404  0.41435  0.22468  1.0000
  C   C124      1.0  0.22054  0.47253  0.26706  1.0000
  H   H159      1.0  0.52671  0.52818  0.22872  1.0000
  H   H160      1.0  0.82995  0.46365  0.12698  1.0000
  S   S30       1.0  0.09132  0.55239  0.18895  1.0000
  C   C125      1.0  0.98499  0.44110  0.21111  1.0000
  H   H161      1.0  0.71462  0.47749  0.30638  1.0000
  C   C126      1.0  0.54361  0.59179  0.21601  1.0000
  C   C127      1.0  0.80125  0.58604  0.11476  1.0000
  C   C128      1.0  0.65619  0.57843  0.29383  1.0000
  C   C129      1.0  0.96639  0.36963  0.21036  1.0000
  H   H162      1.0  0.79841  0.38902  0.14425  1.0000
  S   S31       1.0  0.56353  0.46185  0.29277  1.0000
  S   S32       1.0  0.16096  0.43423  0.20623  1.0000
  H   H163      1.0  0.31143  0.56947  0.20533  1.0000
  C   C130      1.0  0.40251  0.43205  0.12023  1.0000
  H   H164      1.0  0.77058  0.37705  0.19782  1.0000
  S   S33       1.0  0.38957  0.45358  0.32610  1.0000
  H   H165      1.0  0.90551  0.48559  0.20118  1.0000
  S   S34       1.0  0.63501  0.38508  0.24120  1.0000
  Fe  Fe17      1.0  0.61733  0.40070  0.30911  1.0000
  C   C131      1.0  0.77844  0.44946  0.22904  1.0000
  C   C132      1.0  0.22483  0.44068  0.23867  1.0000
  H   H166      1.0  0.05728  0.39011  0.22141  1.0000
  C   C133      1.0  0.55484  0.54915  0.21097  1.0000
  C   C134      1.0  0.00771  0.39948  0.21475  1.0000
  H   H167      1.0  0.75092  0.47848  0.14679  1.0000
  C   C135      1.0  0.43221  0.46836  0.11528  1.0000
  S   S35       1.0  0.61190  0.48174  0.17146  1.0000
  C   C136      1.0  0.77479  0.40235  0.17309  1.0000
  N   N10       1.0  0.32274  0.58786  0.26976  1.0000
  C   C137      1.0  0.92073  0.45293  0.20276  1.0000
  C   C138      1.0  0.90208  0.38110  0.20220  1.0000
  H   H168      1.0  0.81608  0.50006  0.16794  1.0000
  H   H169      1.0  0.28069  0.38619  0.21790  1.0000
  H   H170      1.0  0.38236  0.56777  0.13553  1.0000
  H   H171      1.0  0.01747  0.46433  0.21459  1.0000
  H   H172      1.0  0.96551  0.49878  0.28586  1.0000
  C   C139      1.0  0.43305  0.56064  0.12585  1.0000
  H   H173      1.0  0.50709  0.60415  0.23757  1.0000
  C   C140      1.0  0.26990  0.47500  0.29578  1.0000
  C   C141      1.0  0.17160  0.38242  0.32444  1.0000
  H   H174      1.0  0.13815  0.39023  0.29757  1.0000
  C   C142      1.0  0.32484  0.44725  0.29423  1.0000
  C   C143      1.0  0.92597  0.51496  0.30260  1.0000
  H   H175      1.0  0.78137  0.57270  0.14352  1.0000
  H   H176      1.0  0.90567  0.55972  0.25056  1.0000
  Fe  Fe18      1.0  0.47844  0.42635  0.29442  1.0000
  C   C144      1.0  0.42130  0.55967  0.30956  1.0000
  H   H177      1.0  0.26600  0.49856  0.31890  1.0000
  C   C145      1.0  0.35479  0.57128  0.30949  1.0000
  H   H178      1.0  0.20822  0.36503  0.10440  1.0000
  C   C146      1.0  0.15702  0.37531  0.09892  1.0000
  C   C147      1.0  0.25234  0.59271  0.27390  1.0000
  H   H179      1.0  0.22887  0.60174  0.24301  1.0000
  C   C148      1.0  0.83349  0.66009  0.41133  1.0000
  H   H180      1.0  0.53785  0.60911  0.56357  1.0000
  H   H181      1.0  0.83156  0.78565  0.47655  1.0000
  N   N11       1.0  0.26641  0.63498  0.51519  1.0000
  H   H182      1.0  0.25373  0.72092  0.49375  1.0000
  H   H183      1.0  0.62463  0.67148  0.39134  1.0000
  H   H184      1.0  0.04325  0.78242  0.37562  1.0000
  C   C149      1.0  0.42386  0.66895  0.47335  1.0000
  H   H185      1.0  0.08027  0.83493  0.42048  1.0000
  H   H186      1.0  0.82328  0.83033  0.34637  1.0000
  C   C150      1.0  0.65392  0.83391  0.49925  1.0000
  C   C151      1.0  0.20106  0.65650  0.51653  1.0000
  C   C152      1.0  0.00904  0.80177  0.39373  1.0000
  C   C153      1.0  0.81001  0.80641  0.37042  1.0000
  C   C154      1.0  0.50502  0.75028  0.57158  1.0000
  S   S36       1.0  0.07684  0.62595  0.45196  1.0000
  H   H187      1.0  0.83085  0.77581  0.36013  1.0000
  H   H188      1.0  0.44422  0.72975  0.45117  1.0000
  H   H189      1.0  0.34149  0.78186  0.35612  1.0000
  H   H190      1.0  0.89059  0.63627  0.35890  1.0000
  H   H191      1.0  0.23260  0.78866  0.38784  1.0000
  H   H192      1.0  0.47188  0.65506  0.46754  1.0000
  C   C155      1.0  0.89814  0.82207  0.41477  1.0000
  C   C156      1.0  0.70066  0.76395  0.51624  1.0000
  H   H193      1.0  0.85026  0.75143  0.43412  1.0000
  C   C157      1.0  0.31411  0.66156  0.49729  1.0000
  C   C158      1.0  0.31829  0.75457  0.36476  1.0000
  Fe  Fe19      1.0  0.09698  0.67240  0.39978  1.0000
  C   C159      1.0  0.53519  0.62486  0.36371  1.0000
  C   C160      1.0  0.34873  0.71548  0.35696  1.0000
  C   C161      1.0  0.31836  0.68031  0.36811  1.0000
  H   H194      1.0  0.93127  0.77235  0.37300  1.0000
  S   S37       1.0  0.56108  0.75368  0.37801  1.0000
  H   H195      1.0  0.75771  0.80523  0.36853  1.0000
  H   H196      1.0  0.07909  0.72464  0.55265  1.0000
  Fe  Fe20      1.0  0.72897  0.66640  0.54618  1.0000
  C   C162      1.0  0.40856  0.71103  0.46452  1.0000
  C   C163      1.0  0.04580  0.70765  0.53543  1.0000
  H   H197      1.0  0.70146  0.72919  0.40048  1.0000
  C   C164      1.0  0.70170  0.80663  0.51887  1.0000
  C   C165      1.0  0.84962  0.65657  0.36829  1.0000
  H   H198      1.0  0.33507  0.76168  0.46530  1.0000
  H   H199      1.0  0.56382  0.76371  0.46212  1.0000
  C   C166      1.0  0.94437  0.79660  0.39210  1.0000
  H   H200      1.0  0.65169  0.71600  0.49134  1.0000
  C   C167      1.0  0.75991  0.70576  0.34844  1.0000
  S   S38       1.0  0.14676  0.72817  0.41135  1.0000
  N   N12       1.0  0.60145  0.62634  0.34786  1.0000
  S   S39       1.0  0.17982  0.75289  0.59065  1.0000
  H   H201      1.0  0.99031  0.77307  0.48847  1.0000
  S   S40       1.0  0.99887  0.67899  0.37350  1.0000
  H   H202      1.0  0.92732  0.78633  0.52640  1.0000
  S   S41       1.0  0.10308  0.85253  0.53524  1.0000
  H   H203      1.0  0.34257  0.65005  0.36323  1.0000
  H   H204      1.0  0.34776  0.76033  0.57371  1.0000
  S   S42       1.0  0.74014  0.61250  0.50382  1.0000
  S   S43       1.0  0.76201  0.72953  0.53763  1.0000
  H   H205      1.0  0.23424  0.65681  0.39469  1.0000
  H   H206      1.0  0.18543  0.66840  0.48418  1.0000
  C   C168      1.0  0.60550  0.81831  0.47720  1.0000
  C   C169      1.0  0.48807  0.78726  0.54848  1.0000
  C   C170      1.0  0.77903  0.68551  0.42284  1.0000
  H   H207      1.0  0.45712  0.78805  0.52128  1.0000
  C   C171      1.0  0.94069  0.70475  0.51007  1.0000
  H   H208      1.0  0.76673  0.68877  0.45609  1.0000
  H   H209      1.0  0.51546  0.65498  0.37617  1.0000
  H   H210      1.0  0.63665  0.61981  0.41242  1.0000
  S   S44       1.0  0.88402  0.63474  0.45027  1.0000
  H   H211      1.0  0.95860  0.70616  0.47655  1.0000
  Fe  Fe21      1.0  0.54315  0.82184  0.38506  1.0000
  C   C172      1.0  0.74242  0.70868  0.39139  1.0000
  C   C173      1.0  0.02996  0.83140  0.41892  1.0000
  C   C174      1.0  0.22553  0.72316  0.39234  1.0000
  C   C175      1.0  0.37751  0.64460  0.48962  1.0000
  H   H212      1.0  0.94156  0.67146  0.51997  1.0000
  H   H213      1.0  0.19776  0.68287  0.53772  1.0000
  H   H214      1.0  0.97965  0.63177  0.58634  1.0000
  C   C176      1.0  0.65167  0.74869  0.49482  1.0000
  C   C177      1.0  0.60341  0.77579  0.47637  1.0000
  C   C178      1.0  0.34712  0.72896  0.47254  1.0000
  C   C179      1.0  0.95713  0.72512  0.58379  1.0000
  C   C180      1.0  0.25693  0.68412  0.38575  1.0000
  H   H215      1.0  0.89034  0.71838  0.50926  1.0000
  C   C181      1.0  0.25662  0.75839  0.38251  1.0000
  H   H216      1.0  0.69116  0.63785  0.37313  1.0000
  Fe  Fe22      1.0  0.98142  0.62778  0.42096  1.0000
  C   C182      1.0  0.51177  0.82331  0.55993  1.0000
  H   H217      1.0  0.06315  0.70765  0.50174  1.0000
  H   H218      1.0  0.28921  0.64746  0.57934  1.0000
  C   C183      1.0  0.64012  0.63937  0.38264  1.0000
  H   H219      1.0  0.49919  0.85197  0.54150  1.0000
  H   H220      1.0  0.76977  0.77268  0.44301  1.0000
  C   C184      1.0  0.92128  0.85138  0.44094  1.0000
  C   C185      1.0  0.30040  0.70485  0.48878  1.0000
  C   C186      1.0  0.82004  0.77970  0.44313  1.0000
  N   N13       1.0  0.97920  0.72666  0.53878  1.0000
  H   H221      1.0  0.36243  0.83474  0.56476  1.0000
  H   H222      1.0  0.87411  0.69098  0.57626  1.0000
  H   H223      1.0  0.16587  0.63570  0.52934  1.0000
  N   N14       1.0  0.82995  0.81540  0.41389  1.0000
  H   H224      1.0  0.05073  0.67525  0.54886  1.0000
  C   C187      1.0  0.97619  0.77036  0.52269  1.0000
  H   H225      1.0  0.73974  0.81856  0.53549  1.0000
  H   H226      1.0  0.00840  0.78821  0.54020  1.0000
  C   C188      1.0  0.28427  0.62080  0.55935  1.0000
  S   S45       1.0  0.62567  0.66158  0.55767  1.0000
  S   S46       1.0  0.55026  0.85112  0.44758  1.0000
  H   H227      1.0  0.48671  0.72222  0.56248  1.0000
  C   C189      1.0  0.98620  0.85596  0.44267  1.0000
  S   S47       1.0  0.13354  0.62621  0.35294  1.0000
  H   H228      1.0  0.73607  0.84735  0.42347  1.0000
  C   C190      1.0  0.78717  0.85153  0.42774  1.0000
  H   H229      1.0  0.79160  0.85655  0.46228  1.0000
  H   H230      1.0  0.39169  0.61232  0.49644  1.0000
  S   S48       1.0  0.45781  0.83008  0.34295  1.0000
  C   C191      1.0  0.32976  0.82985  0.67215  1.0000
  C   C192      1.0  0.68089  0.79635  0.63395  1.0000
  H   H231      1.0  0.18493  0.66650  0.60941  1.0000
  C   C193      1.0  0.04262  0.72358  0.81831  1.0000
  Fe  Fe23      1.0  0.24290  0.66803  0.81903  1.0000
  H   H232      1.0  0.66705  0.74491  0.70180  1.0000
  H   H233      1.0  0.32634  0.72940  0.64529  1.0000
  S   S49       1.0  0.94940  0.76540  0.77138  1.0000
  H   H234      1.0  0.41627  0.85592  0.72325  1.0000
  Fe  Fe24      1.0  0.65781  0.62120  0.61396  1.0000
  H   H235      1.0  0.58905  0.73308  0.69015  1.0000
  C   C194      1.0  0.37121  0.84770  0.73869  1.0000
  H   H236      1.0  0.62967  0.81488  0.71094  1.0000
  C   C195      1.0  0.81080  0.65476  0.75759  1.0000
  H   H237      1.0  0.17851  0.77673  0.67895  1.0000
  H   H238      1.0  0.85307  0.70078  0.79063  1.0000
  C   C196      1.0  0.47350  0.62952  0.75259  1.0000
  S   S50       1.0  0.60471  0.63934  0.67285  1.0000
  C   C197      1.0  0.19466  0.67599  0.71585  1.0000
  Fe  Fe25      1.0  0.13936  0.81868  0.59510  1.0000
  H   H239      1.0  0.50093  0.64556  0.72763  1.0000
  H   H240      1.0  0.59086  0.84721  0.67050  1.0000
  H   H241      1.0  0.31543  0.77181  0.70713  1.0000
  C   C198      1.0  0.33274  0.76192  0.64146  1.0000
  S   S51       1.0  0.19915  0.64391  0.76230  1.0000
  H   H242      1.0  0.83678  0.84466  0.69024  1.0000
  S   S52       1.0  0.34715  0.66502  0.83152  1.0000
  H   H243      1.0  0.55817  0.71934  0.62218  1.0000
  H   H244      1.0  0.05761  0.70901  0.78911  1.0000
  H   H245      1.0  0.66485  0.62433  0.82190  1.0000
  C   C199      1.0  0.86178  0.67400  0.77150  1.0000
  H   H246      1.0  0.07628  0.63418  0.68062  1.0000
  C   C200      1.0  0.18923  0.71913  0.71677  1.0000
  H   H247      1.0  0.83540  0.69632  0.64890  1.0000
  S   S53       1.0  0.05551  0.83961  0.63600  1.0000
  C   C201      1.0  0.55398  0.82234  0.59373  1.0000
  C   C202      1.0  0.92401  0.65957  0.76010  1.0000
  H   H248      1.0  0.03319  0.75790  0.60738  1.0000
  S   S54       1.0  0.37645  0.78168  0.83274  1.0000
  H   H249      1.0  0.43851  0.65333  0.76600  1.0000
  H   H250      1.0  0.37869  0.81449  0.74899  1.0000
  H   H251      1.0  0.19683  0.62419  0.67607  1.0000
  S   S55       1.0  0.76059  0.62979  0.60553  1.0000
  S   S56       1.0  0.66663  0.71857  0.82239  1.0000
  H   H252      1.0  0.43383  0.62861  0.67373  1.0000
  C   C203      1.0  0.59603  0.81491  0.68409  1.0000
  C   C204      1.0  0.18298  0.72437  0.63946  1.0000
  Fe  Fe26      1.0  0.85256  0.79421  0.78636  1.0000
  C   C205      1.0  0.98999  0.74403  0.61521  1.0000
  H   H253      1.0  0.62204  0.66354  0.75747  1.0000
  C   C206      1.0  0.63945  0.63126  0.75581  1.0000
  C   C207      1.0  0.96684  0.74650  0.65704  1.0000
  C   C208      1.0  0.56193  0.77022  0.79885  1.0000
  H   H254      1.0  0.36581  0.63799  0.70779  1.0000
  Fe  Fe27      1.0  0.72008  0.77329  0.80761  1.0000
  Fe  Fe28      1.0  0.74120  0.84779  0.75014  1.0000
  S   S57       1.0  0.77255  0.78049  0.74592  1.0000
  C   C209      1.0  0.35303  0.82108  0.59613  1.0000
  H   H255      1.0  0.97953  0.85105  0.79907  1.0000
  H   H256      1.0  0.26356  0.81591  0.74993  1.0000
  H   H257      1.0  0.69990  0.77461  0.60955  1.0000
  H   H258      1.0  0.89228  0.73258  0.70105  1.0000
  C   C210      1.0  0.99053  0.75331  0.81863  1.0000
  C   C211      1.0  0.32564  0.78667  0.67660  1.0000
  H   H259      1.0  0.59389  0.78741  0.77979  1.0000
  C   C212      1.0  0.02748  0.64385  0.69241  1.0000
  H   H260      1.0  0.76258  0.66609  0.76658  1.0000
  C   C213      1.0  0.19390  0.65740  0.67692  1.0000
  H   H261      1.0  0.05184  0.63482  0.77446  1.0000
  N   N15       1.0  0.61976  0.78473  0.65226  1.0000
  C   C214      1.0  0.63297  0.74391  0.67538  1.0000
  C   C215      1.0  0.57306  0.78511  0.61765  1.0000
  C   C216      1.0  0.18768  0.68144  0.63898  1.0000
  C   C217      1.0  0.82188  0.62124  0.73176  1.0000
  H   H262      1.0  0.67626  0.82791  0.61846  1.0000
  H   H263      1.0  0.96169  0.67625  0.77080  1.0000
  C   C218      1.0  0.25808  0.84631  0.73202  1.0000
  H   H264      1.0  0.71779  0.79630  0.65873  1.0000
  H   H265      1.0  0.57274  0.85093  0.60034  1.0000
  H   H266      1.0  0.02973  0.67344  0.70819  1.0000
  H   H267      1.0  0.65479  0.72007  0.65390  1.0000
  C   C219      1.0  0.93726  0.62525  0.73430  1.0000
  H   H268      1.0  0.99690  0.65028  0.66392  1.0000
  H   H269      1.0  0.18840  0.73373  0.74688  1.0000
  H   H270      1.0  0.50774  0.61827  0.77804  1.0000
  C   C220      1.0  0.34714  0.84595  0.63118  1.0000
  C   C221      1.0  0.34500  0.77927  0.60114  1.0000
  C   C222      1.0  0.54659  0.74905  0.60588  1.0000
  H   H271      1.0  0.54910  0.80800  0.69753  1.0000
  C   C223      1.0  0.87879  0.70950  0.63942  1.0000
  C   C224      1.0  0.66351  0.60908  0.79228  1.0000
  C   C225      1.0  0.49739  0.78458  0.80152  1.0000
  C   C226      1.0  0.91085  0.72979  0.66891  1.0000
  C   C227      1.0  0.18286  0.74344  0.67843  1.0000
  H   H272      1.0  0.99192  0.76201  0.68031  1.0000
  H   H273      1.0  0.48015  0.81308  0.78470  1.0000
  S   S58       1.0  0.68074  0.83981  0.80880  1.0000
  C   C228      1.0  0.58509  0.73388  0.82132  1.0000
  H   H274      1.0  0.92165  0.84420  0.63533  1.0000
  C   C229      1.0  0.45603  0.76248  0.82664  1.0000
  S   S59       1.0  0.22205  0.73314  0.83720  1.0000
  H   H275      1.0  0.21808  0.84636  0.70944  1.0000
  N   N16       1.0  0.31733  0.85601  0.70914  1.0000
  C   C230      1.0  0.63813  0.61183  0.71732  1.0000
  N   N17       1.0  0.00363  0.61164  0.72157  1.0000
  C   C231      1.0  0.90152  0.70691  0.59749  1.0000
  H   H276      1.0  0.04773  0.85818  0.73415  1.0000
  C   C232      1.0  0.40357  0.61374  0.69804  1.0000
  H   H277      1.0  0.22314  0.83564  0.83486  1.0000
  C   C233      1.0  0.30288  0.79097  0.98212  1.0000
  C   C234      1.0  0.87201  0.80221  0.97031  1.0000
  Fe  Fe29      1.0  0.76941  0.84755  0.84429  1.0000
  H   H278      1.0  0.08664  0.82329  0.91125  1.0000
  C   C235      1.0  0.53440  0.62368  0.95339  1.0000
  H   H279      1.0  0.25905  0.61500  0.97690  1.0000
  Fe  Fe30      1.0  0.32214  0.64361  0.89813  1.0000
  H   H280      1.0  0.56079  0.68290  0.86210  1.0000
  H   H281      1.0  0.87830  0.82255  0.94261  1.0000
  C   C236      1.0  0.19485  0.81320  0.96067  1.0000
  H   H282      1.0  0.87440  0.79155  0.07902  1.0000
  H   H283      1.0  0.14485  0.81348  0.96835  1.0000
  H   H284      1.0  0.95864  0.83131  0.07535  1.0000
  C   C237      1.0  0.00702  0.76246  0.89376  1.0000
  C   C238      1.0  0.82968  0.64152  0.89006  1.0000
  C   C239      1.0  0.11815  0.82739  0.88311  1.0000
  H   H285      1.0  0.13779  0.79638  0.87338  1.0000
  C   C240      1.0  0.35510  0.67364  0.05481  1.0000
  H   H286      1.0  0.06614  0.63963  0.90294  1.0000
  C   C241      1.0  0.86859  0.78477  0.04614  1.0000
  H   H287      1.0  0.44725  0.70849  0.86789  1.0000
  Fe  Fe31      1.0  0.64515  0.67855  0.03971  1.0000
  C   C242      1.0  0.54223  0.82320  0.90084  1.0000
  C   C243      1.0  0.93525  0.65782  0.90648  1.0000
  H   H288      1.0  0.22020  0.77722  0.01850  1.0000
  H   H289      1.0  0.30405  0.84306  0.88674  1.0000
  C   C244      1.0  0.25271  0.64986  0.07483  1.0000
  C   C245      1.0  0.65457  0.84509  0.01533  1.0000
  C   C246      1.0  0.71241  0.82893  0.94986  1.0000
  C   C247      1.0  0.85470  0.76311  0.96245  1.0000
  H   H290      1.0  0.86816  0.69742  0.86853  1.0000
  H   H291      1.0  0.99456  0.77856  0.92245  1.0000
  N   N18       1.0  0.16985  0.85333  0.89120  1.0000
  C   C248      1.0  0.63735  0.61132  0.91906  1.0000
  C   C249      1.0  0.28302  0.82988  0.91511  1.0000
  C   C250      1.0  0.06079  0.73368  0.89275  1.0000
  H   H292      1.0  0.66664  0.78488  0.98941  1.0000
  C   C251      1.0  0.32545  0.80957  0.94481  1.0000
  H   H293      1.0  0.84932  0.75448  0.93009  1.0000
  C   C252      1.0  0.47878  0.72537  0.84788  1.0000
  H   H294      1.0  0.06758  0.63629  0.99801  1.0000
  Fe  Fe32      1.0  0.59014  0.76417  0.06053  1.0000
  H   H295      1.0  0.02058  0.67362  0.96595  1.0000
  H   H296      1.0  0.08585  0.84108  0.85741  1.0000
  H   H297      1.0  0.33593  0.77404  0.00431  1.0000
  C   C253      1.0  0.85176  0.62088  0.04032  1.0000
  H   H298      1.0  0.51745  0.64936  0.93030  1.0000
  C   C254      1.0  0.87683  0.66829  0.88661  1.0000
  H   H299      1.0  0.97008  0.67964  0.90275  1.0000
  C   C255      1.0  0.97194  0.77250  0.85645  1.0000
  H   H300      1.0  0.20549  0.64369  0.06611  1.0000
  C   C256      1.0  0.78575  0.62355  0.04658  1.0000
  H   H301      1.0  0.72844  0.80699  0.92635  1.0000
  S   S60       1.0  0.40811  0.68982  0.01527  1.0000
  H   H302      1.0  0.49137  0.61014  0.96627  1.0000
  C   C257      1.0  0.96122  0.84914  0.04441  1.0000
  S   S61       1.0  0.30588  0.70702  0.92340  1.0000
  C   C258      1.0  0.94842  0.62013  0.93077  1.0000
  H   H303      1.0  0.82844  0.70549  0.98946  1.0000
  H   H304      1.0  0.11648  0.69005  0.85449  1.0000
  C   C259      1.0  0.87963  0.81422  0.01265  1.0000
  S   S62       1.0  0.11371  0.72664  0.93529  1.0000
  C   C260      1.0  0.84322  0.73530  0.99600  1.0000
  H   H305      1.0  0.27791  0.67212  0.01154  1.0000
  C   C261      1.0  0.21609  0.83176  0.92184  1.0000
  H   H306      1.0  0.78420  0.64988  0.87473  1.0000
  S   S63       1.0  0.58012  0.72660  0.00377  1.0000
  H   H307      1.0  0.98306  0.64464  0.00712  1.0000
  S   S64       1.0  0.73427  0.64926  0.00851  1.0000
  N   N19       1.0  0.89922  0.85496  0.02247  1.0000
  Fe  Fe33      1.0  0.50186  0.70053  0.04204  1.0000
  C   C262      1.0  0.85024  0.74601  0.03781  1.0000
  S   S65       1.0  0.80341  0.78035  0.84803  1.0000
  H   H308      1.0  0.55618  0.63808  0.97994  1.0000
  C   C263      1.0  0.54322  0.71095  0.84489  1.0000
  H   H309      1.0  0.50172  0.80420  0.89869  1.0000
  H   H310      1.0  0.37617  0.80714  0.93824  1.0000
  C   C264      1.0  0.02073  0.64247  0.98200  1.0000
  C   C265      1.0  0.67695  0.81649  0.98546  1.0000
  H   H311      1.0  0.57816  0.81304  0.87618  1.0000
  H   H312      1.0  0.84142  0.72406  0.06378  1.0000
  H   H313      1.0  0.93273  0.79657  0.85647  1.0000
  C   C266      1.0  0.23770  0.79275  0.99001  1.0000
  H   H314      1.0  0.56587  0.81495  0.93183  1.0000
  Fe  Fe34      1.0  0.32361  0.72848  0.85561  1.0000
  C   C267      1.0  0.07668  0.71325  0.85545  1.0000
  S   S66       1.0  0.60435  0.83142  0.05738  1.0000
  H   H315      1.0  0.65751  0.62820  0.94443  1.0000
  Fe  Fe35      1.0  0.20546  0.70506  0.90260  1.0000
  S   S67       1.0  0.22014  0.63986  0.88304  1.0000
  H   H316      1.0  0.62822  0.63432  0.89217  1.0000
  C   C268      1.0  0.29370  0.66584  0.04394  1.0000
  S   S68       1.0  0.56527  0.64845  0.07248  1.0000
  H   H317      1.0  0.99821  0.83211  0.02455  1.0000
  H   H318      1.0  0.87104  0.63465  0.01163  1.0000
  N   N20       1.0  0.01072  0.61022  0.95185  1.0000
  H   H319      1.0  0.52381  0.85470  0.98224  1.0000
  H   H320      1.0  0.57150  0.65071  0.28527  1.0000
  S   S69       1.0  0.54623  0.77421  0.27521  1.0000
  H   H321      1.0  0.69973  0.65449  0.22555  1.0000
  H   H322      1.0  0.77275  0.79297  0.23493  1.0000
  H   H323      1.0  0.65328  0.62465  0.14584  1.0000
  C   C269      1.0  0.98053  0.70034  0.16598  1.0000
  C   C270      1.0  0.64941  0.79953  0.16699  1.0000
  S   S70       1.0  0.22122  0.62570  0.15720  1.0000
  C   C271      1.0  0.34407  0.74441  0.22470  1.0000
  H   H324      1.0  0.82625  0.74880  0.14030  1.0000
  C   C272      1.0  0.57828  0.61879  0.19156  1.0000
  H   H325      1.0  0.38605  0.74542  0.24388  1.0000
  C   C273      1.0  0.29609  0.74478  0.15567  1.0000
  S   S71       1.0  0.95486  0.78305  0.15382  1.0000
  S   S72       1.0  0.00784  0.61845  0.26519  1.0000
  C   C274      1.0  0.78319  0.66063  0.18695  1.0000
  C   C275      1.0  0.98477  0.66383  0.23505  1.0000
  H   H326      1.0  0.09854  0.69046  0.24484  1.0000
  H   H327      1.0  0.64846  0.66409  0.30111  1.0000
  Fe  Fe36      1.0  0.52967  0.84078  0.29093  1.0000
  H   H328      1.0  0.34904  0.64708  0.16055  1.0000
  Fe  Fe37      1.0  0.03316  0.62715  0.33236  1.0000
  C   C276      1.0  0.96350  0.73746  0.18550  1.0000
  C   C277      1.0  0.34338  0.62904  0.25793  1.0000
  C   C278      1.0  0.37478  0.66672  0.09701  1.0000
  C   C279      1.0  0.14283  0.69681  0.22746  1.0000
  S   S73       1.0  0.71711  0.73455  0.30809  1.0000
  S   S74       1.0  0.61341  0.83731  0.33407  1.0000
  C   C280      1.0  0.27242  0.64311  0.11707  1.0000
  C   C281      1.0  0.22909  0.73984  0.22005  1.0000
  Fe  Fe38      1.0  0.94119  0.84053  0.18986  1.0000
  C   C282      1.0  0.34973  0.74608  0.18045  1.0000
  S   S75       1.0  0.42257  0.70949  0.33058  1.0000
  H   H329      1.0  0.13212  0.69680  0.19290  1.0000
  H   H330      1.0  0.33528  0.65019  0.28459  1.0000
  H   H331      1.0  0.75086  0.80528  0.11484  1.0000
  H   H332      1.0  0.39590  0.74810  0.16537  1.0000
  H   H333      1.0  0.96040  0.70113  0.28873  1.0000
  C   C283      1.0  0.95520  0.73781  0.22973  1.0000
  C   C284      1.0  0.72660  0.67537  0.20672  1.0000
  Fe  Fe39      1.0  0.48204  0.76280  0.33110  1.0000
  H   H334      1.0  0.82698  0.67724  0.30370  1.0000
  C   C285      1.0  0.33336  0.65187  0.12806  1.0000
  H   H335      1.0  0.86125  0.67573  0.14697  1.0000
  H   H336      1.0  0.68892  0.79378  0.24433  1.0000
  H   H337      1.0  0.42200  0.67274  0.10580  1.0000
  N   N21       1.0  0.71751  0.79059  0.17841  1.0000
  H   H338      1.0  0.94115  0.76651  0.24475  1.0000
  H   H339      1.0  0.98669  0.70006  0.13173  1.0000
  H   H340      1.0  0.50330  0.61830  0.33772  1.0000
  C   C286      1.0  0.59989  0.65860  0.31263  1.0000
  C   C287      1.0  0.79601  0.72961  0.15848  1.0000
  C   C288      1.0  0.23675  0.74122  0.17505  1.0000
  H   H341      1.0  0.71986  0.83871  0.22252  1.0000
  C   C289      1.0  0.28476  0.74154  0.24442  1.0000
  H   H342      1.0  0.30079  0.74547  0.12120  1.0000
  H   H343      1.0  0.19692  0.73892  0.15449  1.0000
  H   H344      1.0  0.31662  0.64406  0.23013  1.0000
  C   C290      1.0  0.75422  0.81557  0.14792  1.0000
  C   C291      1.0  0.16539  0.73569  0.28703  1.0000
  H   H345      1.0  0.23597  0.61721  0.29594  1.0000
  H   H346      1.0  0.64083  0.79004  0.13455  1.0000
  Fe  Fe40      1.0  0.62364  0.76986  0.32341  1.0000
  C   C292      1.0  0.72531  0.80469  0.22183  1.0000
  C   C293      1.0  0.96613  0.70088  0.25460  1.0000
  C   C294      1.0  0.73851  0.74580  0.17858  1.0000
  S   S76       1.0  0.55880  0.67185  0.19192  1.0000
  H   H347      1.0  0.28400  0.74067  0.27877  1.0000
  C   C295      1.0  0.11988  0.77088  0.22419  1.0000
  H   H348      1.0  0.17871  0.67019  0.23459  1.0000
  C   C296      1.0  0.81321  0.67950  0.33695  1.0000
  H   H349      1.0  0.66160  0.72719  0.22013  1.0000
  H   H350      1.0  0.61685  0.78416  0.18912  1.0000
  H   H351      1.0  0.18100  0.76470  0.29857  1.0000
  H   H352      1.0  0.19651  0.70896  0.30102  1.0000
  H   H353      1.0  0.11698  0.73303  0.30084  1.0000
  H   H354      1.0  0.07254  0.77015  0.24009  1.0000
  H   H355      1.0  0.00473  0.63488  0.17553  1.0000
  N   N22       1.0  0.16567  0.73595  0.23969  1.0000
  C   C297      1.0  0.70454  0.71724  0.20278  1.0000
  Fe  Fe41      1.0  0.57400  0.69294  0.12376  1.0000
  C   C298      1.0  0.99057  0.66349  0.19072  1.0000
  H   H356      1.0  0.57688  0.68872  0.32264  1.0000
  H   H357      1.0  0.13735  0.80109  0.23018  1.0000
  H   H358      1.0  0.80506  0.81409  0.15686  1.0000
  H   H359      1.0  0.39483  0.62749  0.24960  1.0000
  H   H360      1.0  0.63344  0.83312  0.16718  1.0000
  C   C299      1.0  0.81731  0.68755  0.16239  1.0000
  H   H361      1.0  0.80115  0.62838  0.19090  1.0000
  H   H362      1.0  0.11077  0.77042  0.18946  1.0000
  H   H363      1.0  0.73577  0.84883  0.14701  1.0000
  S   S77       1.0  0.50524  0.74295  0.09528  1.0000
  S   S78       1.0  0.66012  0.71772  0.09402  1.0000
  C   C300      1.0  0.40032  0.94184  0.55336  1.0000
  C   C301      1.0  0.57745  0.96640  0.42465  1.0000
  H   H364      1.0  0.35244  0.92528  0.49769  1.0000
  C   C302      1.0  0.78119  0.99720  0.37309  1.0000
  H   H365      1.0  0.77435  0.01608  0.40028  1.0000
  C   C303      1.0  0.83940  0.08561  0.56560  1.0000
  H   H366      1.0  0.44634  0.96579  0.40934  1.0000
  H   H367      1.0  0.79533  0.91862  0.55007  1.0000
  N   N23       1.0  0.44864  0.08794  0.57789  1.0000
  H   H368      1.0  0.44736  0.93369  0.54033  1.0000
  H   H369      1.0  0.03641  0.91705  0.34868  1.0000
  C   C304      1.0  0.47287  0.98945  0.39216  1.0000
  H   H370      1.0  0.56169  0.96225  0.53400  1.0000
  H   H371      1.0  0.45907  0.03658  0.50801  1.0000
  H   H372      1.0  0.44710  0.99753  0.36171  1.0000
  C   C305      1.0  0.80427  0.90224  0.58054  1.0000
  C   C306      1.0  0.54228  0.93510  0.36231  1.0000
  C   C307      1.0  0.02070  0.02330  0.49617  1.0000
  C   C308      1.0  0.34667  0.93697  0.52928  1.0000
  Fe  Fe42      1.0  0.15327  0.90472  0.55678  1.0000
  H   H373      1.0  0.67006  0.95574  0.39304  1.0000
  C   C309      1.0  0.37381  0.10224  0.40587  1.0000
  C   C310      1.0  0.27842  0.96145  0.58731  1.0000
  C   C311      1.0  0.39817  0.07098  0.55414  1.0000
  H   H374      1.0  0.80857  0.10783  0.54704  1.0000
  H   H375      1.0  0.91635  0.01738  0.41652  1.0000
  C   C312      1.0  0.95244  0.97061  0.48626  1.0000
  C   C313      1.0  0.36210  0.03268  0.49536  1.0000
  C   C314      1.0  0.28566  0.94665  0.54622  1.0000
  H   H376      1.0  0.12418  0.99617  0.46035  1.0000
  S   S79       1.0  0.21884  0.93992  0.51595  1.0000
  H   H377      1.0  0.65531  0.86687  0.50027  1.0000
  H   H378      1.0  0.37282  0.01364  0.46844  1.0000
  H   H379      1.0  0.19483  0.95831  0.41180  1.0000
  S   S80       1.0  0.92471  0.88228  0.55001  1.0000
  N   N24       1.0  0.98985  0.00105  0.46342  1.0000
  C   C315      1.0  0.03537  0.97948  0.43362  1.0000
  C   C316      1.0  0.46520  0.09437  0.35852  1.0000
  C   C317      1.0  0.82368  0.96112  0.37566  1.0000
  H   H380      1.0  0.49741  0.97018  0.47037  1.0000
  C   C318      1.0  0.01307  0.95642  0.40088  1.0000
  C   C319      1.0  0.33320  0.08192  0.56438  1.0000
  H   H381      1.0  0.46878  0.01788  0.41060  1.0000
  C   C320      1.0  0.05498  0.93473  0.37311  1.0000
  C   C321      1.0  0.58479  0.96177  0.50287  1.0000
  H   H382      1.0  0.23522  0.07837  0.54854  1.0000
  C   C322      1.0  0.94570  0.03179  0.43941  1.0000
  H   H383      1.0  0.92444  0.95394  0.46460  1.0000
  H   H384      1.0  0.91725  0.98552  0.50881  1.0000
  C   C323      1.0  0.40054  0.09141  0.36654  1.0000
  H   H385      1.0  0.96290  0.95465  0.39657  1.0000
  C   C324      1.0  0.87689  0.01468  0.58560  1.0000
  C   C325      1.0  0.54829  0.96658  0.46585  1.0000
  C   C326      1.0  0.12031  0.93564  0.37680  1.0000
  H   H386      1.0  0.55079  0.08374  0.58452  1.0000
  C   C327      1.0  0.68079  0.95394  0.46025  1.0000
  C   C328      1.0  0.56898  0.00496  0.35610  1.0000
  C   C329      1.0  0.10234  0.97983  0.43644  1.0000
  H   H387      1.0  0.26099  0.03355  0.48826  1.0000
  C   C330      1.0  0.64474  0.95823  0.42308  1.0000
  H   H388      1.0  0.52518  0.07977  0.53171  1.0000
  H   H389      1.0  0.31969  0.10222  0.58973  1.0000
  S   S81       1.0  0.78406  0.02544  0.52602  1.0000
  H   H390      1.0  0.52064  0.03685  0.57060  1.0000
  H   H391      1.0  0.98502  0.03871  0.51833  1.0000
  C   C331      1.0  0.41129  0.04586  0.51871  1.0000
  H   H392      1.0  0.52027  0.91110  0.38219  1.0000
  H   H393      1.0  0.57637  0.03298  0.37332  1.0000
  H   H394      1.0  0.05333  0.00183  0.51641  1.0000
  H   H395      1.0  0.79702  0.88007  0.40901  1.0000
  C   C332      1.0  0.28444  0.06867  0.54078  1.0000
  H   H396      1.0  0.32471  0.09804  0.41308  1.0000
  N   N25       1.0  0.54060  0.97396  0.38476  1.0000
  H   H397      1.0  0.59181  0.92254  0.35477  1.0000
  H   H398      1.0  0.87462  0.98192  0.58275  1.0000
  H   H399      1.0  0.73227  0.94954  0.45832  1.0000
  H   H400      1.0  0.85000  0.95270  0.40448  1.0000
  C   C333      1.0  0.14389  0.95809  0.40842  1.0000
  Fe  Fe43      1.0  0.02286  0.87747  0.57719  1.0000
  H   H401      1.0  0.04798  0.04791  0.48132  1.0000
  H   H402      1.0  0.91168  0.04899  0.46128  1.0000
  H   H403      1.0  0.97220  0.05479  0.42105  1.0000
  H   H404      1.0  0.67920  0.95360  0.52871  1.0000
  C   C334      1.0  0.65092  0.95629  0.50003  1.0000
  H   H405      1.0  0.98396  0.94717  0.50501  1.0000
  S   S82       1.0  0.65547  0.06358  0.44483  1.0000
  C   C335      1.0  0.83654  0.04329  0.56156  1.0000
  C   C336      1.0  0.29888  0.04398  0.50641  1.0000
  Fe  Fe44      1.0  0.73965  0.07592  0.48219  1.0000
  S   S83       1.0  0.79609  0.09519  0.42520  1.0000
  C   C337      1.0  0.51402  0.07108  0.56554  1.0000
  Fe  Fe45      1.0  0.70812  0.08856  0.38914  1.0000
  H   H406      1.0  0.61572  0.99299  0.34255  1.0000
  H   H407      1.0  0.89020  0.87108  0.46057  1.0000
  H   H408      1.0  0.15274  0.91882  0.35524  1.0000
  H   H409      1.0  0.00266  0.87851  0.46288  1.0000
  C   C338      1.0  0.86451  0.88175  0.58917  1.0000
  S   S84       1.0  0.19676  0.86846  0.61270  1.0000
  H   H410      1.0  0.23126  0.96884  0.60052  1.0000
  Fe  Fe46      1.0  0.10978  0.89321  0.64792  1.0000
  H   H411      1.0  0.66505  0.99087  0.66789  1.0000
  Fe  Fe47      1.0  0.51133  0.98360  0.77475  1.0000
  H   H412      1.0  0.74737  0.95765  0.71461  1.0000
  C   C339      1.0  0.07759  0.91649  0.75096  1.0000
  S   S85       1.0  0.43530  0.02525  0.80552  1.0000
  C   C340      1.0  0.23304  0.99654  0.82795  1.0000
  H   H413      1.0  0.44038  0.04568  0.63156  1.0000
  H   H414      1.0  0.36304  0.86549  0.76801  1.0000
  H   H415      1.0  0.67426  0.06094  0.63503  1.0000
  C   C341      1.0  0.88134  0.09926  0.59464  1.0000
  H   H416      1.0  0.22189  0.01063  0.72352  1.0000
  C   C342      1.0  0.76780  0.88232  0.65157  1.0000
  C   C343      1.0  0.07225  0.94679  0.78078  1.0000
  C   C344      1.0  0.03284  0.94323  0.81645  1.0000
  S   S86       1.0  0.36389  0.02963  0.71185  1.0000
  H   H417      1.0  0.74103  0.05847  0.78421  1.0000
  H   H418      1.0  0.93793  0.01645  0.70738  1.0000
  C   C345      1.0  0.82751  0.86095  0.65982  1.0000
  H   H419      1.0  0.24259  0.86940  0.75600  1.0000
  C   C346      1.0  0.87594  0.86094  0.62876  1.0000
  S   S87       1.0  0.82637  0.86218  0.78559  1.0000
  C   C347      1.0  0.31002  0.90091  0.69723  1.0000
  C   C348      1.0  0.71571  0.08729  0.77268  1.0000
  C   C349      1.0  0.44103  0.07919  0.62438  1.0000
  H   H420      1.0  0.35367  0.87804  0.62487  1.0000
  H   H421      1.0  0.72159  0.94453  0.83823  1.0000
  S   S88       1.0  0.51976  0.02342  0.71550  1.0000
  C   C350      1.0  0.83848  0.97370  0.77804  1.0000
  C   C351      1.0  0.04347  0.88205  0.75700  1.0000
  C   C352      1.0  0.65953  0.08706  0.75042  1.0000
  N   N26       1.0  0.86118  0.98481  0.73449  1.0000
  H   H422      1.0  0.48034  0.08985  0.64268  1.0000
  H   H423      1.0  0.32672  0.97905  0.64240  1.0000
  H   H424      1.0  0.10323  0.10146  0.65101  1.0000
  H   H425      1.0  0.06765  0.07662  0.72427  1.0000
  H   H426      1.0  0.39667  0.09511  0.63769  1.0000
  C   C353      1.0  0.75335  0.98818  0.70130  1.0000
  S   S89       1.0  0.13000  0.92251  0.70809  1.0000
  S   S90       1.0  0.70738  0.88339  0.69057  1.0000
  H   H427      1.0  0.76622  0.09805  0.65157  1.0000
  H   H428      1.0  0.27147  0.90879  0.67366  1.0000
  C   C354      1.0  0.19280  0.09276  0.70974  1.0000
  C   C355      1.0  0.00499  0.87798  0.79372  1.0000
  H   H429      1.0  0.28473  0.04975  0.81657  1.0000
  S   S91       1.0  0.46140  0.96212  0.62379  1.0000
  C   C356      1.0  0.81085  0.04838  0.69205  1.0000
  S   S92       1.0  0.06962  0.93349  0.59293  1.0000
  C   C357      1.0  0.80854  0.00752  0.70967  1.0000
  C   C358      1.0  0.39323  0.95722  0.59413  1.0000
  C   C359      1.0  0.75611  0.90280  0.61184  1.0000
  H   H430      1.0  0.71003  0.91941  0.60540  1.0000
  H   H431      1.0  0.95494  0.99065  0.75778  1.0000
  H   H432      1.0  0.82289  0.00174  0.79556  1.0000
  H   H433      1.0  0.07893  0.02422  0.70952  1.0000
  Fe  Fe48      1.0  0.44642  0.98705  0.68926  1.0000
  C   C360      1.0  0.92179  0.07048  0.61842  1.0000
  Fe  Fe49      1.0  0.43726  0.06241  0.74345  1.0000
  H   H434      1.0  0.10288  0.04818  0.63961  1.0000
  H   H435      1.0  0.64135  0.05786  0.74525  1.0000
  H   H436      1.0  0.17771  0.99545  0.67972  1.0000
  C   C361      1.0  0.33225  0.96734  0.61096  1.0000
  H   H437      1.0  0.89763  0.95306  0.67931  1.0000
  H   H438      1.0  0.16261  0.87785  0.82591  1.0000
  H   H439      1.0  0.25938  0.09349  0.65596  1.0000
  H   H440      1.0  0.09900  0.97309  0.77643  1.0000
  H   H441      1.0  0.90350  0.03753  0.75576  1.0000
  S   S93       1.0  0.28795  0.96111  0.80329  1.0000
  C   C362      1.0  0.24232  0.03826  0.83027  1.0000
  C   C363      1.0  0.92065  0.02828  0.61310  1.0000
  H   H442      1.0  0.87629  0.95522  0.79718  1.0000
  C   C364      1.0  0.13313  0.07129  0.65105  1.0000
  C   C365      1.0  0.71058  0.04655  0.65642  1.0000
  S   S94       1.0  0.97197  0.08615  0.65664  1.0000
  H   H443      1.0  0.35497  0.91163  0.68413  1.0000
  H   H444      1.0  0.85008  0.06605  0.69732  1.0000
  Fe  Fe50      1.0  0.36958  0.98893  0.77162  1.0000
  H   H445      1.0  0.95234  0.00595  0.63111  1.0000
  C   C366      1.0  0.91663  0.00860  0.73893  1.0000
  C   C367      1.0  0.70556  0.00721  0.67471  1.0000
  H   H446      1.0  0.24239  0.02510  0.66926  1.0000
  C   C368      1.0  0.88398  0.94637  0.71317  1.0000
  H   H447      1.0  0.84714  0.92452  0.71308  1.0000
  H   H448      1.0  0.53954  0.86632  0.82751  1.0000
  S   S95       1.0  0.59530  0.95272  0.80896  1.0000
  C   C369      1.0  0.20218  0.02108  0.69163  1.0000
  N   N27       1.0  0.15826  0.05934  0.69422  1.0000
  C   C370      1.0  0.10385  0.04949  0.72207  1.0000
  H   H449      1.0  0.92586  0.92932  0.72943  1.0000
  H   H450      1.0  0.29700  0.91977  0.72519  1.0000
  C   C371      1.0  0.00007  0.90872  0.82354  1.0000
  H   H451      1.0  0.17130  0.07403  0.62669  1.0000
  C   C372      1.0  0.76255  0.06735  0.66567  1.0000
  H   H452      1.0  0.11980  0.03890  0.75473  1.0000
  S   S96       1.0  0.44577  0.94355  0.74646  1.0000
  H   H453      1.0  0.79782  0.95474  0.77790  1.0000
  H   H454      1.0  0.13898  0.10334  0.76947  1.0000
  C   C373      1.0  0.24433  0.10690  0.68561  1.0000
  C   C374      1.0  0.61216  0.02833  0.83935  1.0000
  C   C375      1.0  0.63873  0.98808  0.83228  1.0000
  H   H455      1.0  0.56411  0.03846  0.82970  1.0000
  H   H456      1.0  0.02872  0.96687  0.83906  1.0000
  S   S97       1.0  0.01227  0.98487  0.94619  1.0000
  C   C376      1.0  0.63506  0.00822  0.02145  1.0000
  H   H457      1.0  0.73431  0.05286  0.99058  1.0000
  C   C377      1.0  0.86935  0.06719  0.07050  1.0000
  S   S98       1.0  0.77099  0.88631  0.90104  1.0000
  H   H458      1.0  0.17780  0.91310  0.91518  1.0000
  H   H459      1.0  0.59150  0.98846  0.92048  1.0000
  H   H460      1.0  0.78586  0.99264  0.87112  1.0000
  H   H461      1.0  0.76108  0.98183  0.01163  1.0000
  H   H462      1.0  0.33823  0.91075  0.01205  1.0000
  S   S99       1.0  0.93145  0.02627  0.86205  1.0000
  H   H463      1.0  0.19023  0.05218  0.03163  1.0000
  H   H464      1.0  0.56162  0.92531  0.89619  1.0000
  C   C378      1.0  0.47938  0.87038  0.97070  1.0000
  C   C379      1.0  0.85108  0.87650  0.05080  1.0000
  C   C380      1.0  0.73715  0.00268  0.86337  1.0000
  H   H465      1.0  0.86215  0.90839  0.05672  1.0000
  H   H466      1.0  0.78228  0.99421  0.06389  1.0000
  C   C381      1.0  0.16149  0.02629  0.04092  1.0000
  C   C382      1.0  0.90680  0.88265  0.98414  1.0000
  C   C383      1.0  0.14076  0.05034  0.86789  1.0000
  H   H467      1.0  0.63401  0.05572  0.09103  1.0000
  C   C384      1.0  0.19618  0.06519  0.85056  1.0000
  C   C385      1.0  0.74196  0.98756  0.04414  1.0000
  Fe  Fe51      1.0  0.92738  0.00761  0.98494  1.0000
  C   C386      1.0  0.50056  0.87617  0.85026  1.0000
  C   C387      1.0  0.67001  0.88570  0.01060  1.0000
  Fe  Fe52      1.0  0.99706  0.04670  0.91054  1.0000
  C   C388      1.0  0.53399  0.97973  0.97672  1.0000
  H   H468      1.0  0.48863  0.97289  0.03798  1.0000
  S   S100      1.0  0.75768  0.07704  0.89325  1.0000
  C   C389      1.0  0.41029  0.90171  0.91472  1.0000
  H   H469      1.0  0.59338  0.88688  0.93496  1.0000
  H   H470      1.0  0.23392  0.88673  0.85143  1.0000
  H   H471      1.0  0.62781  0.08673  0.86443  1.0000
  H   H472      1.0  0.86140  0.88945  0.96655  1.0000
  C   C390      1.0  0.70095  0.97542  0.84435  1.0000
  H   H473      1.0  0.87876  0.07534  0.03759  1.0000
  H   H474      1.0  0.14299  0.01428  0.01158  1.0000
  H   H475      1.0  0.20367  0.09722  0.85260  1.0000
  S   S101      1.0  0.85811  0.98275  0.94314  1.0000
  H   H476      1.0  0.71907  0.92914  0.97185  1.0000
  Fe  Fe53      1.0  0.85373  0.04461  0.90883  1.0000
  C   C391      1.0  0.13285  0.00877  0.86577  1.0000
  N   N28       1.0  0.68968  0.02145  0.04407  1.0000
  H   H477      1.0  0.10305  0.07738  0.98754  1.0000
  H   H478      1.0  0.92173  0.91285  0.99272  1.0000
  H   H479      1.0  0.67971  0.01078  0.95812  1.0000
  S   S102      1.0  0.92021  0.98838  0.05405  1.0000
  H   H480      1.0  0.67146  0.08348  0.01772  1.0000
  S   S103      1.0  0.91757  0.07122  0.95368  1.0000
  H   H481      1.0  0.31886  0.92948  0.93557  1.0000
  C   C392      1.0  0.37460  0.90243  0.98842  1.0000
  H   H482      1.0  0.10466  0.90867  0.88799  1.0000
  N   N29       1.0  0.52057  0.86792  0.89521  1.0000
  C   C393      1.0  0.14111  0.89198  0.90950  1.0000
  H   H483      1.0  0.65253  0.90789  0.03356  1.0000
  H   H484      1.0  0.04991  0.99492  0.05142  1.0000
  S   S104      1.0  0.95600  0.90420  0.87089  1.0000
  H   H485      1.0  0.49545  0.96890  0.95959  1.0000
  C   C394      1.0  0.46959  0.87968  0.92652  1.0000
  C   C395      1.0  0.57509  0.89173  0.90207  1.0000
  H   H486      1.0  0.44145  0.87348  0.03455  1.0000
  H   H487      1.0  0.09101  0.99720  0.87920  1.0000
  C   C396      1.0  0.01802  0.09511  0.07976  1.0000
  C   C397      1.0  0.58786  0.99079  0.95472  1.0000
  C   C398      1.0  0.70733  0.89774  0.97583  1.0000
  C   C399      1.0  0.17842  0.98211  0.84578  1.0000
  C   C400      1.0  0.71094  0.04271  0.87096  1.0000
  Fe  Fe54      1.0  0.94169  0.96597  0.90058  1.0000
  S   S105      1.0  0.07990  0.08294  0.89131  1.0000
  H   H488      1.0  0.74860  0.07181  0.04073  1.0000
  C   C401      1.0  0.36372  0.91281  0.94539  1.0000
  C   C402      1.0  0.57972  0.99627  0.04309  1.0000
  C   C403      1.0  0.43246  0.88139  0.00105  1.0000
  H   H489      1.0  0.80301  0.87895  0.03658  1.0000
  C   C404      1.0  0.64812  0.05556  0.85923  1.0000
  C   C405      1.0  0.71174  0.05893  0.02218  1.0000
  N   N30       1.0  0.10916  0.03991  0.07080  1.0000
  H   H490      1.0  0.39859  0.91081  0.88200  1.0000
  C   C406      1.0  0.53012  0.98221  0.02084  1.0000
  C   C407      1.0  0.63799  0.00432  0.97664  1.0000
  H   H491      1.0  0.19452  0.00089  0.05557  1.0000
  H   H492      1.0  0.97801  0.87927  0.05168  1.0000
  H   H493      1.0  0.17034  0.95039  0.84301  1.0000
  H   H494      1.0  0.11641  0.88595  0.94037  1.0000
  C   C408      1.0  0.19891  0.86377  0.84912  1.0000
  H   H495      1.0  0.61577  0.88316  0.88015  1.0000
  C   C409      1.0  0.06887  0.09046  0.01028  1.0000
  C   C410      1.0  0.06606  0.07534  0.05350  1.0000
  H   H496      1.0  0.72587  0.95820  0.05780  1.0000
  C   C411      1.0  0.72770  0.86956  0.94517  1.0000
  C   C412      1.0  0.07202  0.00452  0.08063  1.0000
  C   C413      1.0  0.88592  0.02695  0.08678  1.0000
  C   C414      1.0  0.67499  0.03156  0.08903  1.0000
  H   H497      1.0  0.57396  0.99702  0.07724  1.0000
  H   H498      1.0  0.94368  0.86923  0.96169  1.0000
  H   H499      1.0  0.48860  0.90974  0.84261  1.0000
  H   H500      1.0  0.45891  0.85954  0.84322  1.0000
  H   H501      1.0  0.84813  0.86053  0.08272  1.0000
  C   C415      1.0  0.69005  0.91936  0.21664  1.0000
  C   C416      1.0  0.90540  0.03287  0.30001  1.0000
  H   H502      1.0  0.35862  0.07381  0.12434  1.0000
  C   C417      1.0  0.43733  0.03555  0.21952  1.0000
  C   C418      1.0  0.13905  0.05057  0.11059  1.0000
  S   S106      1.0  0.76163  0.94012  0.14669  1.0000
  N   N31       1.0  0.36998  0.09797  0.18596  1.0000
  H   H503      1.0  0.63511  0.90111  0.27131  1.0000
  C   C419      1.0  0.13178  0.01649  0.21905  1.0000
  S   S107      1.0  0.16245  0.09488  0.33950  1.0000
  S   S108      1.0  0.08640  0.95064  0.18429  1.0000
  C   C420      1.0  0.54765  0.06278  0.18253  1.0000
  C   C421      1.0  0.75584  0.98337  0.30079  1.0000
  C   C422      1.0  0.96794  0.02021  0.31111  1.0000
  C   C423      1.0  0.63473  0.90824  0.23741  1.0000
  H   H504      1.0  0.53652  0.91584  0.15237  1.0000
  H   H505      1.0  0.73103  0.99216  0.27134  1.0000
  H   H506      1.0  0.17596  0.99685  0.22302  1.0000
  C   C424      1.0  0.57918  0.91726  0.17052  1.0000
  C   C425      1.0  0.07894  0.00084  0.20215  1.0000
  H   H507      1.0  0.10198  0.97725  0.09462  1.0000
  C   C426      1.0  0.82874  0.08712  0.13996  1.0000
  C   C427      1.0  0.55124  0.02579  0.20700  1.0000
  H   H508      1.0  0.03294  0.01193  0.10408  1.0000
  Fe  Fe55      1.0  0.85210  0.91883  0.18257  1.0000
  H   H509      1.0  0.66521  0.00386  0.10909  1.0000
  C   C428      1.0  0.63507  0.92773  0.14973  1.0000
  H   H510      1.0  0.49915  0.98335  0.24433  1.0000
  C   C429      1.0  0.48892  0.08611  0.17600  1.0000
  S   S109      1.0  0.51046  0.89106  0.23959  1.0000
  C   C430      1.0  0.31436  0.07910  0.20507  1.0000
  S   S110      1.0  0.85148  0.86141  0.22446  1.0000
  C   C431      1.0  0.79812  0.94752  0.30362  1.0000
  C   C432      1.0  0.57936  0.90660  0.21429  1.0000
  H   H511      1.0  0.63547  0.93369  0.11557  1.0000
  S   S111      1.0  0.89663  0.89802  0.33747  1.0000
  Fe  Fe56      1.0  0.99559  0.92170  0.19520  1.0000
  H   H512      1.0  0.98124  0.01447  0.18344  1.0000
  H   H513      1.0  0.31707  0.07603  0.24044  1.0000
  C   C433      1.0  0.74936  0.00914  0.33492  1.0000
  C   C434      1.0  0.07103  0.08331  0.22431  1.0000
  H   H514      1.0  0.73262  0.91991  0.23429  1.0000
  C   C435      1.0  0.69086  0.92864  0.17287  1.0000
  H   H515      1.0  0.39695  0.02346  0.23536  1.0000
  H   H516      1.0  0.97428  0.08748  0.20261  1.0000
  H   H517      1.0  0.16843  0.06964  0.24371  1.0000
  S   S112      1.0  0.00472  0.86399  0.23739  1.0000
  S   S113      1.0  0.90903  0.95132  0.22768  1.0000
  C   C436      1.0  0.84350  0.04659  0.15598  1.0000
  H   H518      1.0  0.98596  0.98799  0.30982  1.0000
  H   H519      1.0  0.17075  0.02416  0.12466  1.0000
  H   H520      1.0  0.01094  0.08456  0.11248  1.0000
  C   C437      1.0  0.12755  0.05758  0.23073  1.0000
  C   C438      1.0  0.01812  0.06765  0.20755  1.0000
  C   C439      1.0  0.92149  0.10504  0.30997  1.0000
  H   H521      1.0  0.31020  0.04815  0.19271  1.0000
  H   H522      1.0  0.80612  0.92872  0.27674  1.0000
  S   S114      1.0  0.93905  0.89609  0.14537  1.0000
  H   H523      1.0  0.83352  0.03835  0.18905  1.0000
  C   C440      1.0  0.35893  0.10390  0.13943  1.0000
  S   S115      1.0  0.70450  0.05709  0.32850  1.0000
  C   C441      1.0  0.43169  0.07297  0.19390  1.0000
  Fe  Fe57      1.0  0.91424  0.89185  0.26717  1.0000
  C   C442      1.0  0.49625  0.01231  0.22549  1.0000
  H   H524      1.0  0.59668  0.00742  0.21166  1.0000
  H   H525      1.0  0.88388  0.98541  0.14178  1.0000
  H   H526      1.0  0.87497  0.01050  0.29062  1.0000
  H   H527      1.0  0.59069  0.07334  0.16851  1.0000
  H   H528      1.0  0.10379  0.05932  0.13575  1.0000
  C   C443      1.0  0.02183  0.02623  0.19705  1.0000
  C   C444      1.0  0.87244  0.01669  0.12941  1.0000
  C   C445      1.0  0.88215  0.07445  0.29963  1.0000
  H   H529      1.0  0.83338  0.08249  0.29005  1.0000
  C   C446      1.0  0.84099  0.09732  0.09708  1.0000
  H   H530      1.0  0.71632  0.04313  0.10454  1.0000
  H   H531      1.0  0.53867  0.01474  0.32805  1.0000
  H   H532      1.0  0.48586  0.08635  0.32795  1.0000
  S   S116      1.0  0.35222  0.07633  0.32683  1.0000
  H   H533      1.0  0.16738  0.07705  0.10480  1.0000
  H   H534      1.0  0.05646  0.03922  0.33080  1.0000
  H   H535      1.0  0.51613  0.93946  0.33164  1.0000
  C   C447      1.0  0.00744  0.04917  0.32277  1.0000
  H   H536      1.0  0.26873  0.09833  0.19779  1.0000
  C   C448      1.0  0.98486  0.09108  0.32228  1.0000
  C   C449      1.0  0.83413  0.93738  0.33996  1.0000
  C   C450      1.0  0.28279  0.28799  0.35153  1.0000
  C   C451      1.0  0.06703  0.34029  0.35579  1.0000
  H   H537      1.0  0.79766  0.34225  0.50450  1.0000
  H   H538      1.0  0.03464  0.21445  0.40622  1.0000
  S   S117      1.0  0.80613  0.21345  0.42972  1.0000
  C   C452      1.0  0.54105  0.30979  0.43220  1.0000
  C   C453      1.0  0.99761  0.19910  0.42237  1.0000
  H   H539      1.0  0.96436  0.17081  0.34807  1.0000
  H   H540      1.0  0.13166  0.20430  0.52586  1.0000
  C   C454      1.0  0.69249  0.27364  0.48519  1.0000
  H   H541      1.0  0.94517  0.35530  0.55769  1.0000
  C   C455      1.0  0.44329  0.13319  0.56986  1.0000
  S   S118      1.0  0.39120  0.34327  0.45417  1.0000
  H   H542      1.0  0.11664  0.21917  0.47030  1.0000
  C   C456      1.0  0.28249  0.27094  0.39325  1.0000
  H   H543      1.0  0.13100  0.33104  0.48274  1.0000
  C   C457      1.0  0.65110  0.29754  0.45617  1.0000
  H   H544      1.0  0.56798  0.24626  0.49022  1.0000
  Fe  Fe58      1.0  0.40156  0.30036  0.51164  1.0000
  H   H545      1.0  0.02459  0.21665  0.51020  1.0000
  H   H546      1.0  0.20846  0.26680  0.54578  1.0000
  H   H547      1.0  0.94231  0.31414  0.41779  1.0000
  S   S119      1.0  0.42324  0.23189  0.50873  1.0000
  C   C458      1.0  0.94555  0.25593  0.53079  1.0000
  C   C459      1.0  0.35023  0.32156  0.41476  1.0000
  H   H548      1.0  0.52695  0.32077  0.46430  1.0000
  H   H549      1.0  0.49989  0.29572  0.41948  1.0000
  H   H550      1.0  0.11267  0.29331  0.44603  1.0000
  H   H551      1.0  0.92211  0.24429  0.39993  1.0000
  C   C460      1.0  0.96474  0.14311  0.46817  1.0000
  N   N32       1.0  0.12117  0.27016  0.51116  1.0000
  H   H552      1.0  0.66506  0.24906  0.39098  1.0000
  H   H553      1.0  0.31600  0.27449  0.45715  1.0000
  H   H554      1.0  0.59950  0.28334  0.58068  1.0000
  Fe  Fe59      1.0  0.14312  0.14693  0.38361  1.0000
  C   C461      1.0  0.02696  0.31772  0.53414  1.0000
  H   H555      1.0  0.91395  0.23178  0.52992  1.0000
  H   H556      1.0  0.19297  0.22181  0.49242  1.0000
  H   H557      1.0  0.54610  0.33719  0.41056  1.0000
  H   H558      1.0  0.63170  0.29912  0.37185  1.0000
  H   H559      1.0  0.39890  0.14846  0.58363  1.0000
  H   H560      1.0  0.85941  0.14944  0.37024  1.0000
  Fe  Fe60      1.0  0.62203  0.12959  0.45356  1.0000
  H   H561      1.0  0.68700  0.24182  0.49429  1.0000
  C   C462      1.0  0.64819  0.22217  0.58458  1.0000
  H   H562      1.0  0.48361  0.14710  0.58364  1.0000
  C   C463      1.0  0.01259  0.16156  0.44539  1.0000
  Fe  Fe61      1.0  0.35027  0.22961  0.56086  1.0000
  H   H563      1.0  0.25499  0.24561  0.40148  1.0000
  H   H564      1.0  0.86438  0.14517  0.48181  1.0000
  S   S120      1.0  0.09033  0.13690  0.44552  1.0000
  C   C464      1.0  0.90137  0.16021  0.46503  1.0000
  H   H565      1.0  0.61884  0.21560  0.45495  1.0000
  C   C465      1.0  0.05237  0.27839  0.52070  1.0000
  S   S121      1.0  0.27612  0.18537  0.56488  1.0000
  H   H566      1.0  0.63838  0.35760  0.42190  1.0000
  Fe  Fe62      1.0  0.49099  0.23805  0.56165  1.0000
  C   C466      1.0  0.01560  0.31931  0.37005  1.0000
  H   H567      1.0  0.19112  0.29217  0.46746  1.0000
  H   H568      1.0  0.45234  0.19502  0.36082  1.0000
  H   H569      1.0  0.05710  0.34233  0.53677  1.0000
  H   H570      1.0  0.44246  0.14154  0.53521  1.0000
  C   C467      1.0  0.74454  0.28984  0.50234  1.0000
  C   C468      1.0  0.88588  0.19625  0.43976  1.0000
  C   C469      1.0  0.98225  0.33047  0.40702  1.0000
  H   H571      1.0  0.55231  0.11191  0.38321  1.0000
  C   C470      1.0  0.92250  0.29458  0.54460  1.0000
  Fe  Fe63      1.0  0.75044  0.15871  0.43710  1.0000
  S   S122      1.0  0.58350  0.19791  0.56829  1.0000
  H   H572      1.0  0.20832  0.35207  0.40198  1.0000
  H   H573      1.0  0.58376  0.25675  0.37295  1.0000
  C   C471      1.0  0.14095  0.22707  0.49943  1.0000
  S   S123      1.0  0.47578  0.30718  0.55968  1.0000
  H   H574      1.0  0.53872  0.23036  0.44129  1.0000
  C   C472      1.0  0.15744  0.27804  0.54930  1.0000
  S   S124      1.0  0.32261  0.29795  0.55919  1.0000
  H   H575      1.0  0.97630  0.11495  0.48733  1.0000
  S   S125      1.0  0.70048  0.14016  0.49743  1.0000
  C   C473      1.0  0.93416  0.21647  0.41956  1.0000
  H   H576      1.0  0.38860  0.12863  0.46582  1.0000
  H   H577      1.0  0.15572  0.31138  0.55560  1.0000
  C   C474      1.0  0.75674  0.33019  0.49155  1.0000
  S   S126      1.0  0.66810  0.15404  0.39441  1.0000
  S   S127      1.0  0.24293  0.16427  0.38061  1.0000
  C   C475      1.0  0.62069  0.27078  0.39055  1.0000
  C   C476      1.0  0.13946  0.29798  0.47526  1.0000
  C   C477      1.0  0.00958  0.24767  0.51924  1.0000
  C   C478      1.0  0.47456  0.12263  0.42783  1.0000
  N   N33       1.0  0.59922  0.28007  0.43444  1.0000
  C   C479      1.0  0.35034  0.33869  0.37310  1.0000
  C   C480      1.0  0.41033  0.11881  0.43608  1.0000
  C   C481      1.0  0.50254  0.10930  0.38956  1.0000
  C   C482      1.0  0.66552  0.33833  0.44541  1.0000
  S   S128      1.0  0.51885  0.14506  0.46505  1.0000
  C   C483      1.0  0.31664  0.28755  0.42485  1.0000
  C   C484      1.0  0.58069  0.24155  0.45622  1.0000
  H   H578      1.0  0.77626  0.27031  0.52336  1.0000
  C   C485      1.0  0.96298  0.32552  0.54606  1.0000
  C   C486      1.0  0.71731  0.35440  0.46305  1.0000
  H   H579      1.0  0.87344  0.30019  0.55500  1.0000
  C   C487      1.0  0.64310  0.26484  0.58847  1.0000
  H   H580      1.0  0.13908  0.26195  0.57830  1.0000
  H   H581      1.0  0.00125  0.29433  0.35203  1.0000
  H   H582      1.0  0.70980  0.16530  0.59098  1.0000
  H   H583      1.0  0.21641  0.27274  0.68161  1.0000
  H   H584      1.0  0.58269  0.12178  0.71888  1.0000
  H   H585      1.0  0.53227  0.18139  0.69792  1.0000
  C   C488      1.0  0.27697  0.13893  0.69900  1.0000
  H   H586      1.0  0.81329  0.34779  0.69788  1.0000
  Fe  Fe64      1.0  0.89825  0.19182  0.75888  1.0000
  C   C489      1.0  0.25950  0.15769  0.73679  1.0000
  Fe  Fe65      1.0  0.87488  0.23476  0.67279  1.0000
  H   H587      1.0  0.50896  0.29884  0.64593  1.0000
  H   H588      1.0  0.61287  0.32399  0.65901  1.0000
  C   C490      1.0  0.29682  0.34466  0.77753  1.0000
  H   H589      1.0  0.16249  0.15483  0.60112  1.0000
  C   C491      1.0  0.24220  0.28573  0.76675  1.0000
  C   C492      1.0  0.66219  0.23178  0.71057  1.0000
  N   N34       1.0  0.23404  0.33131  0.76735  1.0000
  H   H590      1.0  0.01820  0.30636  0.65452  1.0000
  C   C493      1.0  0.24578  0.23105  0.63330  1.0000
  S   S129      1.0  0.86831  0.18308  0.82664  1.0000
  H   H591      1.0  0.09367  0.17889  0.66168  1.0000
  S   S130      1.0  0.96698  0.20807  0.64479  1.0000
  H   H592      1.0  0.74598  0.31896  0.81950  1.0000
  C   C494      1.0  0.73793  0.12452  0.78154  1.0000
  C   C495      1.0  0.14990  0.22791  0.67544  1.0000
  C   C496      1.0  0.57600  0.22046  0.75977  1.0000
  H   H593      1.0  0.90847  0.32668  0.67442  1.0000
  H   H594      1.0  0.28108  0.27470  0.74438  1.0000
  S   S131      1.0  0.81233  0.28290  0.63599  1.0000
  C   C497      1.0  0.57479  0.19718  0.68834  1.0000
  S   S132      1.0  0.38236  0.33159  0.66755  1.0000
  Fe  Fe66      1.0  0.94438  0.14944  0.67935  1.0000
  H   H595      1.0  0.25580  0.34210  0.70043  1.0000
  H   H596      1.0  0.10712  0.20701  0.80239  1.0000
  H   H597      1.0  0.37598  0.26179  0.79982  1.0000
  H   H598      1.0  0.69929  0.21683  0.68926  1.0000
  H   H599      1.0  0.25383  0.27165  0.79899  1.0000
  H   H600      1.0  0.19840  0.15791  0.79177  1.0000
  H   H601      1.0  0.54871  0.25008  0.74878  1.0000
  C   C498      1.0  0.11939  0.33571  0.79121  1.0000
  S   S133      1.0  0.84718  0.17451  0.70175  1.0000
  H   H602      1.0  0.54114  0.19901  0.77164  1.0000
  H   H603      1.0  0.88241  0.13192  0.59855  1.0000
  C   C499      1.0  0.62656  0.12411  0.73521  1.0000
  H   H604      1.0  0.31445  0.33119  0.80882  1.0000
  C   C500      1.0  0.64984  0.16267  0.74152  1.0000
  H   H605      1.0  0.17425  0.33691  0.71142  1.0000
  C   C501      1.0  0.51145  0.32482  0.66549  1.0000
  H   H606      1.0  0.14862  0.24430  0.82741  1.0000
  C   C502      1.0  0.57025  0.33871  0.67312  1.0000
  H   H607      1.0  0.60148  0.17951  0.66315  1.0000
  H   H608      1.0  0.80119  0.19858  0.61630  1.0000
  C   C503      1.0  0.75111  0.25965  0.61377  1.0000
  H   H609      1.0  0.68625  0.24454  0.73731  1.0000
  S   S134      1.0  0.43942  0.13110  0.73534  1.0000
  C   C504      1.0  0.40493  0.20379  0.77228  1.0000
  H   H610      1.0  0.19863  0.27314  0.75663  1.0000
  C   C505      1.0  0.21035  0.14394  0.76184  1.0000
  H   H611      1.0  0.28815  0.24567  0.62617  1.0000
  H   H612      1.0  0.42253  0.21801  0.74314  1.0000
  H   H613      1.0  0.02195  0.34120  0.81337  1.0000
  H   H614      1.0  0.28429  0.18289  0.74668  1.0000
  C   C506      1.0  0.45601  0.34487  0.68279  1.0000
  H   H615      1.0  0.72413  0.18969  0.77530  1.0000
  C   C507      1.0  0.18284  0.34413  0.79815  1.0000
  C   C508      1.0  0.20532  0.24612  0.66556  1.0000
  H   H616      1.0  0.69115  0.31666  0.60554  1.0000
  C   C509      1.0  0.38414  0.14274  0.81500  1.0000
  H   H617      1.0  0.79826  0.25576  0.78763  1.0000
  H   H618      1.0  0.63878  0.25917  0.69249  1.0000
  Fe  Fe67      1.0  0.00677  0.22198  0.70735  1.0000
  H   H619      1.0  0.31578  0.14962  0.67988  1.0000
  C   C510      1.0  0.77480  0.29623  0.83903  1.0000
  H   H620      1.0  0.55525  0.22729  0.67310  1.0000
  S   S135      1.0  0.09758  0.24928  0.71382  1.0000
  C   C511      1.0  0.99913  0.33850  0.65045  1.0000
  H   H621      1.0  0.78037  0.12441  0.80054  1.0000
  N   N35       1.0  0.61624  0.20228  0.72511  1.0000
  C   C512      1.0  0.21686  0.34905  0.72412  1.0000
  S   S136      1.0  0.99289  0.16129  0.73955  1.0000
  S   S137      1.0  0.91698  0.25420  0.73241  1.0000
  H   H622      1.0  0.10744  0.31994  0.76351  1.0000
  C   C513      1.0  0.70524  0.16180  0.76671  1.0000
  C   C514      1.0  0.69490  0.28366  0.60252  1.0000
  C   C515      1.0  0.22992  0.19876  0.60948  1.0000
  H   H623      1.0  0.06659  0.25619  0.81306  1.0000
  H   H624      1.0  0.33388  0.33488  0.75343  1.0000
  C   C516      1.0  0.37786  0.22863  0.80423  1.0000
  C   C517      1.0  0.75704  0.21710  0.60886  1.0000
  C   C518      1.0  0.07008  0.34772  0.81960  1.0000
  C   C519      1.0  0.17490  0.17986  0.61956  1.0000
  C   C520      1.0  0.40798  0.16079  0.77741  1.0000
  C   C521      1.0  0.13537  0.19403  0.65320  1.0000
  S   S138      1.0  0.41978  0.22940  0.61375  1.0000
  Fe  Fe68      1.0  0.39834  0.29770  0.60778  1.0000
  H   H625      1.0  0.60488  0.22670  0.78753  1.0000
  C   C522      1.0  0.10216  0.23140  0.82610  1.0000
  C   C523      1.0  0.80453  0.26060  0.82101  1.0000
  C   C524      1.0  0.17690  0.11216  0.74862  1.0000
  C   C525      1.0  0.93626  0.35068  0.66239  1.0000
  H   H626      1.0  0.08618  0.35788  0.62390  1.0000
  H   H627      1.0  0.38553  0.10962  0.81903  1.0000
  C   C526      1.0  0.70546  0.19834  0.59430  1.0000
  C   C527      1.0  0.35358  0.21077  0.84167  1.0000
  H   H628      1.0  0.03172  0.16782  0.84174  1.0000
  C   C528      1.0  0.01216  0.26452  0.91421  1.0000
  S   S139      1.0  0.98315  0.25297  0.05411  1.0000
  C   C529      1.0  0.49440  0.24904  0.88210  1.0000
  C   C530      1.0  0.55516  0.19064  0.91777  1.0000
  H   H629      1.0  0.71960  0.13560  0.96054  1.0000
  C   C531      1.0  0.00564  0.29589  0.94314  1.0000
  C   C532      1.0  0.07278  0.24938  0.89787  1.0000
  S   S140      1.0  0.36841  0.19793  0.06802  1.0000
  C   C533      1.0  0.71507  0.18308  0.88916  1.0000
  H   H630      1.0  0.82836  0.12837  0.08429  1.0000
  H   H631      1.0  0.17312  0.26014  0.89865  1.0000
  H   H632      1.0  0.44953  0.26369  0.87012  1.0000
  H   H633      1.0  0.14819  0.32366  0.03911  1.0000
  C   C534      1.0  0.02309  0.19469  0.86239  1.0000
  C   C535      1.0  0.67148  0.14963  0.95068  1.0000
  H   H634      1.0  0.11884  0.17121  0.91749  1.0000
  Fe  Fe69      1.0  0.33755  0.22383  0.94844  1.0000
  C   C536      1.0  0.12573  0.26901  0.91074  1.0000
  H   H635      1.0  0.55386  0.16034  0.93310  1.0000
  H   H636      1.0  0.59445  0.30331  0.02864  1.0000
  C   C537      1.0  0.61179  0.21057  0.91398  1.0000
  S   S141      1.0  0.31619  0.24322  0.87975  1.0000
  C   C538      1.0  0.36465  0.33838  0.90818  1.0000
  H   H637      1.0  0.76345  0.16818  0.89740  1.0000
  C   C539      1.0  0.47289  0.35578  0.03468  1.0000
  H   H638      1.0  0.98516  0.21597  0.84651  1.0000
  H   H639      1.0  0.17923  0.19387  0.88581  1.0000
  H   H640      1.0  0.11263  0.28410  0.06943  1.0000
  H   H641      1.0  0.07194  0.22754  0.98960  1.0000
  C   C540      1.0  0.56679  0.24147  0.02988  1.0000
  H   H642      1.0  0.75437  0.20281  0.96498  1.0000
  C   C541      1.0  0.05060  0.21695  0.05605  1.0000
  C   C542      1.0  0.13127  0.18296  0.88481  1.0000
  H   H643      1.0  0.54603  0.30015  0.86270  1.0000
  H   H644      1.0  0.19124  0.29472  0.08151  1.0000
  Fe  Fe70      1.0  0.43586  0.18945  0.01304  1.0000
  S   S142      1.0  0.73777  0.34284  0.90707  1.0000
  H   H645      1.0  0.67803  0.22067  0.98646  1.0000
  H   H646      1.0  0.02072  0.33104  0.08701  1.0000
  H   H647      1.0  0.45520  0.19375  0.90455  1.0000
  C   C543      1.0  0.14143  0.18312  0.01919  1.0000
  H   H648      1.0  0.71048  0.24779  0.94214  1.0000
  H   H649      1.0  0.33807  0.15367  0.87593  1.0000
  H   H650      1.0  0.64178  0.15271  0.98002  1.0000
  C   C544      1.0  0.81788  0.27218  0.90787  1.0000
  H   H651      1.0  0.53620  0.24764  0.00285  1.0000
  C   C545      1.0  0.57617  0.20164  0.04896  1.0000
  C   C546      1.0  0.60012  0.27295  0.04417  1.0000
  H   H652      1.0  0.16021  0.31365  0.95026  1.0000
  H   H653      1.0  0.16871  0.17830  0.99014  1.0000
  N   N36       1.0  0.67452  0.19017  0.92753  1.0000
  C   C547      1.0  0.84588  0.23612  0.89019  1.0000
  C   C548      1.0  0.83903  0.23024  0.84687  1.0000
  H   H654      1.0  0.44509  0.26502  0.08256  1.0000
  C   C549      1.0  0.16094  0.16148  0.05693  1.0000
  S   S143      1.0  0.53389  0.16230  0.03149  1.0000
  H   H655      1.0  0.82253  0.27640  0.94160  1.0000
  H   H656      1.0  0.96907  0.25208  0.90587  1.0000
  H   H657      1.0  0.36954  0.32558  0.87707  1.0000
  C   C550      1.0  0.60678  0.25066  0.89348  1.0000
  H   H658      1.0  0.03016  0.13476  0.96200  1.0000
  C   C551      1.0  0.70558  0.21651  0.95630  1.0000
  S   S144      1.0  0.36880  0.15911  0.97313  1.0000
  H   H659      1.0  0.69415  0.16226  0.86751  1.0000
  H   H660      1.0  0.13637  0.15602  0.86437  1.0000
  H   H661      1.0  0.64796  0.26754  0.88860  1.0000
  C   C552      1.0  0.35725  0.16773  0.84727  1.0000
  H   H662      1.0  0.05346  0.33694  0.97953  1.0000
  C   C553      1.0  0.78076  0.30162  0.88264  1.0000
  C   C554      1.0  0.14342  0.30942  0.07172  1.0000
  H   H663      1.0  0.65230  0.12695  0.93041  1.0000
  S   S145      1.0  0.26202  0.23679  0.99838  1.0000
  H   H664      1.0  0.87175  0.21238  0.91030  1.0000
  H   H665      1.0  0.00418  0.18231  0.89319  1.0000
  C   C555      1.0  0.05886  0.31336  0.95634  1.0000
  C   C556      1.0  0.11878  0.30010  0.94001  1.0000
  H   H666      1.0  0.53849  0.33401  0.96392  1.0000
  S   S146      1.0  0.41081  0.25324  0.98396  1.0000
  S   S147      1.0  0.23447  0.13160  0.05752  1.0000
  C   C557      1.0  0.05189  0.35608  0.09044  1.0000
  H   H667      1.0  0.72131  0.21217  0.87060  1.0000
  N   N37       1.0  0.08167  0.21517  0.86842  1.0000
  C   C558      1.0  0.54876  0.26957  0.87811  1.0000
  H   H668      1.0  0.47334  0.32193  0.03158  1.0000
  C   C559      1.0  0.49768  0.20964  0.90163  1.0000
  H   H669      1.0  0.95009  0.16934  0.01020  1.0000
  C   C560      1.0  0.08680  0.21108  0.01887  1.0000
  C   C561      1.0  0.02700  0.12372  0.99496  1.0000
  Fe  Fe71      1.0  0.29883  0.17407  0.02578  1.0000
  H   H670      1.0  0.95909  0.30579  0.95639  1.0000
  Fe  Fe72      1.0  0.33834  0.25941  0.03643  1.0000
  C   C562      1.0  0.98148  0.14295  0.02189  1.0000
  C   C563      1.0  0.64301  0.26478  0.07751  1.0000
  H   H671      1.0  0.94332  0.14465  0.08553  1.0000
  H   H672      1.0  0.26480  0.33206  0.91315  1.0000
  C   C564      1.0  0.97763  0.12899  0.06431  1.0000
  C   C565      1.0  0.62024  0.19313  0.08170  1.0000
  S   S148      1.0  0.32241  0.31304  0.07858  1.0000
  C   C566      1.0  0.41798  0.35013  0.92813  1.0000
  S   S149      1.0  0.81944  0.21802  0.08982  1.0000
  H   H673      1.0  0.46225  0.34636  0.91053  1.0000
  C   C567      1.0  0.30534  0.34252  0.92830  1.0000
  H   H674      1.0  0.62839  0.16230  0.09624  1.0000
  H   H675      1.0  0.04866  0.27690  0.13144  1.0000
  H   H676      1.0  0.69010  0.32665  0.30478  1.0000
  H   H677      1.0  0.69616  0.19548  0.25624  1.0000
  H   H678      1.0  0.58566  0.11374  0.25086  1.0000
  C   C568      1.0  0.11759  0.31957  0.14575  1.0000
  H   H679      1.0  0.01865  0.11201  0.33008  1.0000
  C   C569      1.0  0.62057  0.13392  0.26205  1.0000
  S   S150      1.0  0.23310  0.16024  0.27615  1.0000
  H   H680      1.0  0.82284  0.18988  0.33548  1.0000
  C   C570      1.0  0.84298  0.15689  0.33711  1.0000
  H   H681      1.0  0.91818  0.34745  0.31246  1.0000
  H   H682      1.0  0.59795  0.21576  0.19109  1.0000
  H   H683      1.0  0.80339  0.13807  0.33136  1.0000
  H   H684      1.0  0.83013  0.14534  0.25579  1.0000
  C   C571      1.0  0.07846  0.26712  0.19570  1.0000
  C   C572      1.0  0.37120  0.13895  0.20407  1.0000
  C   C573      1.0  0.86852  0.34250  0.31143  1.0000
  H   H685      1.0  0.52974  0.25921  0.13625  1.0000
  Fe  Fe73      1.0  0.91049  0.24298  0.10537  1.0000
  H   H686      1.0  0.68655  0.21810  0.12182  1.0000
  Fe  Fe74      1.0  0.20913  0.20633  0.32565  1.0000
  H   H687      1.0  0.39547  0.12092  0.12256  1.0000
  C   C574      1.0  0.15705  0.32988  0.17885  1.0000
  C   C575      1.0  0.53639  0.19017  0.26604  1.0000
  Fe  Fe75      1.0  0.13455  0.14340  0.28819  1.0000
  H   H688      1.0  0.18647  0.31866  0.24374  1.0000
  C   C576      1.0  0.43755  0.28148  0.11148  1.0000
  H   H689      1.0  0.11712  0.26275  0.25882  1.0000
  C   C577      1.0  0.41345  0.21482  0.29971  1.0000
  C   C578      1.0  0.64681  0.20356  0.26824  1.0000
  H   H690      1.0  0.98415  0.33726  0.21393  1.0000
  N   N38       1.0  0.11774  0.34000  0.10256  1.0000
  H   H691      1.0  0.91050  0.14980  0.23896  1.0000
  S   S151      1.0  0.90633  0.28202  0.25668  1.0000
  C   C579      1.0  0.15583  0.31000  0.21920  1.0000
  C   C580      1.0  0.07862  0.28728  0.15532  1.0000
  C   C581      1.0  0.42530  0.21924  0.25608  1.0000
  Fe  Fe76      1.0  0.82610  0.18673  0.15488  1.0000
  C   C582      1.0  0.87344  0.16010  0.26289  1.0000
  Fe  Fe77      1.0  0.25943  0.11641  0.33169  1.0000
  N   N39       1.0  0.60145  0.17790  0.24964  1.0000
  H   H692      1.0  0.09053  0.32989  0.32686  1.0000
  H   H693      1.0  0.41349  0.34137  0.21490  1.0000
  C   C583      1.0  0.84940  0.31200  0.28613  1.0000
  H   H694      1.0  0.86129  0.19395  0.25745  1.0000
  C   C584      1.0  0.73978  0.33141  0.30649  1.0000
  C   C585      1.0  0.94437  0.17761  0.31585  1.0000
  C   C586      1.0  0.48570  0.27823  0.14189  1.0000
  S   S152      1.0  0.53911  0.29675  0.21616  1.0000
  C   C587      1.0  0.60788  0.18282  0.20250  1.0000
  C   C588      1.0  0.46196  0.19840  0.32683  1.0000
  H   H695      1.0  0.64844  0.19970  0.30350  1.0000
  H   H696      1.0  0.65715  0.17273  0.19128  1.0000
  H   H697      1.0  0.62423  0.12830  0.29711  1.0000
  H   H698      1.0  0.36671  0.22448  0.31259  1.0000
  H   H699      1.0  0.63350  0.23696  0.25984  1.0000
  H   H700      1.0  0.38078  0.13571  0.23898  1.0000
  S   S153      1.0  0.06697  0.13525  0.23614  1.0000
  H   H701      1.0  0.55868  0.17423  0.33281  1.0000
  C   C589      1.0  0.37244  0.32838  0.15534  1.0000
  H   H702      1.0  0.57559  0.16417  0.18609  1.0000
  C   C590      1.0  0.38111  0.30692  0.11792  1.0000
  H   H703      1.0  0.32504  0.15842  0.19968  1.0000
  H   H704      1.0  0.04224  0.19941  0.12288  1.0000
  H   H705      1.0  0.87241  0.35633  0.20089  1.0000
  H   H706      1.0  0.48855  0.11451  0.15663  1.0000
  C   C591      1.0  0.48549  0.20658  0.23923  1.0000
  C   C592      1.0  0.42075  0.32523  0.18576  1.0000
  H   H707      1.0  0.31243  0.12221  0.13247  1.0000
  H   H708      1.0  0.92348  0.21040  0.31484  1.0000
  H   H709      1.0  0.76998  0.28242  0.26516  1.0000
  S   S154      1.0  0.10754  0.19383  0.33269  1.0000
  N   N40       1.0  0.89655  0.14919  0.30664  1.0000
  Fe  Fe78      1.0  0.86910  0.26061  0.19582  1.0000
  S   S155      1.0  0.86395  0.29961  0.13471  1.0000
  S   S156      1.0  0.92292  0.20576  0.16710  1.0000
  C   C593      1.0  0.78504  0.30628  0.28399  1.0000
  H   H710      1.0  0.49160  0.21160  0.20529  1.0000
  S   S157      1.0  0.79461  0.12473  0.17357  1.0000
  C   C594      1.0  0.11682  0.27863  0.22766  1.0000
  H   H711      1.0  0.38785  0.23339  0.23530  1.0000
  H   H712      1.0  0.14026  0.15092  0.12388  1.0000
  H   H713      1.0  0.18981  0.35301  0.17446  1.0000
  C   C595      1.0  0.47776  0.30051  0.17882  1.0000
  S   S158      1.0  0.77321  0.23879  0.18840  1.0000
  Fe  Fe79      1.0  0.77349  0.27177  0.12426  1.0000
  H   H714      1.0  0.40801  0.15678  0.18861  1.0000
  H   H715      1.0  0.04887  0.24216  0.20219  1.0000
  H   H716      1.0  0.98374  0.17580  0.29197  1.0000
  S   S159      1.0  0.23753  0.26963  0.31197  1.0000
  H   H717      1.0  0.32830  0.34723  0.16097  1.0000
  C   C596      1.0  0.52260  0.18641  0.31040  1.0000
  H   H718      1.0  0.31724  0.33492  0.30916  1.0000
  H   H719      1.0  0.18764  0.34908  0.32486  1.0000
  S   S160      1.0  0.68614  0.30403  0.09416  1.0000
  C   C597      1.0  0.65334  0.22473  0.09611  1.0000
  H   H720      1.0  0.66819  0.12287  0.24864  1.0000
  Fe  Fe80      1.0  0.54344  0.35665  0.24688  1.0000
  C   C598      1.0  0.12485  0.16707  0.09434  1.0000
  C   C599      1.0  0.06948  0.19486  0.09387  1.0000
  C   C600      1.0  0.31693  0.32173  0.34145  1.0000
