data_image0
_chemical_formula_structural       FeS2FeSHFeSFeS3FeS2FeS2FeHFeS3H2CS2FeSFeSH2NC5H3CSC7H4C6H6C2HC2H2CNCHC2HCFeCH5CH3CH2CH2NC9H14FeNC4H3C2H2CH6CH6CHCH2CH3CNCH2NH2CH3C2SC3HCHC2HCSC3SCHCHSFeS2FeS2FeSFeS3HCH2SC7H4SH2C2H3C3SCHFeHC6HCH2C3H5C3HFeSFeC2H3CHCH2CSH3CNC9H16SH2NC6FeHCH3CNH3CHC2H3C2H2CHCNHCH3FeSFeSHFeSHSHCH4C3NHC7H3C2HCHCH9CHCHC2HC2HCHCHC3HC2H2NC3HNH2C2H4CHCH2SHCSCH2CH4FeC2H3SH6C2SFeSCFeS2FeSFeS3FeS2FeSHFeSFeS3FeHSFeS3HCHC3HC3H2C2SCHCH5C6H4C6H6NHNH2CHC4SH3C2H2SH2C3H5CHFeHCH2C3H2NC9H16CHC2H2C2NHC2H5CHCNH5C2H2CH2C3HSC3HFeHCH2CHCFeSFeS2FeS2FeSFeS3FeHSHC5H2C6H4CH2C2H3SC5H2CHC6H2NH2C2H2CHC2NH3CH2C2HCHCHC2SCH2SH4C2HCH3C3H3C2H2CH3NCHCHNH3CH4C2H4C2HCHC4FeSFeSHCSHSHC2NHCHCSCH2C6H2CHC4H4C2NHS2CHC2HCH2FeH2CH3CH2NCH4SFeCHCHCH3CHC3H2C2H2CH4CHCHC3H5C2HCH2CH3CHCHSHSFeSFeSHNCHCH6SH2C2H3C6H3C6H4CHCSHC2HCNH3C6HCH3CH5CHFeHCH2CNCHCS2CH7SCHCFeCHCHC2H2C2HCHCHC4HCSH2SH2FeS2FeS2FeSFeS3FeS2FeS2C2HC6H4C6H2C7H4C2HC2HC2H2CH2CHCHC2H5C4HCHC2H2NH3C2HC2H2C4HCH4CNH3CHC2H2CH2CH3CH3C2H7SHFeNHCHCHCH4FeCFeS2FeSFeS3FeS2FeS2FeSFeS3FeSFeS2CFeHS2NS2FeSCHC3H2C4H4CHC7H4C6H2CH3C2H3CHCH5FeCH3SCSH2C3HCHCHC2H3CH3CH2C2H2CH2C2H2C2NHCH3C2HC2H6CHC3NCH5C2NCHC2H2CH2NHCH2CHCHC2S2CH2CHC2H4CHC2SCHCHC2H3CFeSFeSFeS3HCH2CH2CSHC2NHC2H4NHC3HC6HCH2C6H4SCH4CH4C2HCSHC2HCFeC3HCH2SH3CHCH4CHCHSHC2H6C3SCHCH2C2HFeNH3CH4C2H3SFeS2FeS2FeSFeS3FeS2FeS2CH2FeHCHSC6H4NHC3H2C2HC6H3CHCH5CHC3H2CHCH2CNCH2C3H3CH2C2H5CH4C2HC2H3CH2NH2C4HCHNC3HCH3CH2C2H6FeCHS2FeS2CHFeSFeS3FeS2FeS2FeSFeS3FeSHFeSFeSFeS2C3H2SCHCH2C2HCHCSHC3H2C6HCH3C6H4C6H3CHCNC4H2CS2CHNH6CH4CH4NC9H14NC5H6CH2C3HCHC2H5CH3SCNH2CH5CHCHCH2C2H2C2H3FeCFeHCHC2H2SCHCH2S
_chemical_formula_sum              "Fe96 S192 H864 C720 N48"
_cell_length_a       33.1577
_cell_length_b       51.2476
_cell_length_c       65.5214
_cell_angle_alpha    90.379
_cell_angle_beta     102.359
_cell_angle_gamma    90.1842

_space_group_name_H-M_alt    "P 1"
_space_group_IT_number       1

loop_
  _space_group_symop_operation_xyz
  'x, y, z'

loop_
  _atom_site_type_symbol
  _atom_site_label
  _atom_site_symmetry_multiplicity
  _atom_site_fract_x
  _atom_site_fract_y
  _atom_site_fract_z
  _atom_site_occupancy
  Fe  Fe1       1.0  0.34166  0.22923  0.24828  1.0000
  S   S1        1.0  0.32980  0.27092  0.23949  1.0000
  S   S2        1.0  0.28387  0.20844  0.25339  1.0000
  Fe  Fe2       1.0  0.43556  0.23584  0.25138  1.0000
  S   S3        1.0  0.42849  0.27875  0.24276  1.0000
  H   H1        1.0  0.19472  0.44274  0.06257  1.0000
  Fe  Fe3       1.0  0.38474  0.28013  0.26528  1.0000
  S   S4        1.0  0.36803  0.31389  0.28525  1.0000
  Fe  Fe4       1.0  0.37343  0.26615  0.21786  1.0000
  S   S5        1.0  0.34796  0.27453  0.18299  1.0000
  S   S6        1.0  0.39501  0.23822  0.27517  1.0000
  S   S7        1.0  0.38212  0.22340  0.22532  1.0000
  Fe  Fe5       1.0  0.27558  0.36780  0.04840  1.0000
  S   S8        1.0  0.32612  0.33873  0.05990  1.0000
  S   S9        1.0  0.20566  0.36246  0.04329  1.0000
  Fe  Fe6       1.0  0.33581  0.41401  0.05236  1.0000
  S   S10       1.0  0.39072  0.38866  0.06469  1.0000
  S   S11       1.0  0.34433  0.45573  0.04202  1.0000
  Fe  Fe7       1.0  0.36242  0.36036  0.03947  1.0000
  H   H2        1.0  0.48775  0.29777  0.06330  1.0000
  Fe  Fe8       1.0  0.35149  0.36893  0.08439  1.0000
  S   S12       1.0  0.38209  0.36125  0.11860  1.0000
  S   S13       1.0  0.30934  0.38651  0.02583  1.0000
  S   S14       1.0  0.29913  0.39703  0.07424  1.0000
  H   H3        1.0  0.20804  0.30596  0.06871  1.0000
  H   H4        1.0  0.20940  0.25017  0.29550  1.0000
  C   C1        1.0  0.48181  0.11679  0.27631  1.0000
  S   S15       1.0  0.05678  0.12472  0.14798  1.0000
  S   S16       1.0  0.06518  0.10534  0.19675  1.0000
  Fe  Fe9       1.0  0.09359  0.13639  0.17997  1.0000
  S   S17       1.0  0.16207  0.14415  0.18216  1.0000
  Fe  Fe10      1.0  0.02492  0.09607  0.16536  1.0000
  S   S18       1.0  0.04917  0.16730  0.18527  1.0000
  H   H5        1.0  0.06447  0.02668  0.23386  1.0000
  H   H6        1.0  0.21356  0.24034  0.10957  1.0000
  N   N1        1.0  0.19980  0.44836  0.03061  1.0000
  C   C2        1.0  0.43722  0.35503  0.00699  1.0000
  C   C3        1.0  0.10379  0.32095  0.01505  1.0000
  C   C4        1.0  0.13091  0.33876  0.02764  1.0000
  C   C5        1.0  0.17311  0.33955  0.02712  1.0000
  C   C6        1.0  0.18801  0.32231  0.01387  1.0000
  H   H7        1.0  0.40802  0.32410  0.08997  1.0000
  H   H8        1.0  0.41682  0.33143  0.06476  1.0000
  H   H9        1.0  0.11906  0.35200  0.03784  1.0000
  C   C7        1.0  0.21426  0.27448  0.09078  1.0000
  S   S19       1.0  0.40365  0.33904  0.02091  1.0000
  C   C8        1.0  0.49440  0.09159  0.28248  1.0000
  C   C9        1.0  0.25080  0.18980  0.23382  1.0000
  C   C10       1.0  0.20995  0.18497  0.23566  1.0000
  C   C11       1.0  0.18234  0.17091  0.22005  1.0000
  C   C12       1.0  0.19568  0.16111  0.20265  1.0000
  C   C13       1.0  0.23675  0.16555  0.20103  1.0000
  C   C14       1.0  0.26411  0.18002  0.21643  1.0000
  H   H10       1.0  0.19943  0.19233  0.24912  1.0000
  H   H11       1.0  0.15084  0.16757  0.22149  1.0000
  H   H12       1.0  0.24739  0.15785  0.18770  1.0000
  H   H13       1.0  0.29559  0.18338  0.21494  1.0000
  C   C15       1.0  0.35792  0.29904  0.16549  1.0000
  C   C16       1.0  0.33527  0.29855  0.14466  1.0000
  C   C17       1.0  0.34184  0.31753  0.13015  1.0000
  C   C18       1.0  0.37127  0.33727  0.13631  1.0000
  C   C19       1.0  0.39408  0.33765  0.15709  1.0000
  C   C20       1.0  0.38743  0.31873  0.17161  1.0000
  H   H14       1.0  0.31258  0.28333  0.13969  1.0000
  H   H15       1.0  0.32428  0.31684  0.11422  1.0000
  H   H16       1.0  0.41703  0.35276  0.16203  1.0000
  H   H17       1.0  0.40510  0.31940  0.18754  1.0000
  H   H18       1.0  0.16231  0.22076  0.02773  1.0000
  H   H19       1.0  0.07140  0.32058  0.01560  1.0000
  C   C21       1.0  0.06671  0.02328  0.16667  1.0000
  C   C22       1.0  0.02371  0.02524  0.16100  1.0000
  H   H20       1.0  0.08557  0.04074  0.16801  1.0000
  C   C23       1.0  0.23223  0.28956  0.32457  1.0000
  C   C24       1.0  0.33152  0.48641  0.05161  1.0000
  H   H21       1.0  0.22037  0.32270  0.01329  1.0000
  H   H22       1.0  0.17386  0.41666  0.04539  1.0000
  C   C25       1.0  0.04505  0.03642  0.22007  1.0000
  N   N2        1.0  0.11894  0.23627  0.04483  1.0000
  C   C26       1.0  0.08145  0.25273  0.04045  1.0000
  H   H23       1.0  0.41965  0.29830  0.07352  1.0000
  C   C27       1.0  0.10637  0.21008  0.05093  1.0000
  C   C28       1.0  0.15128  0.24908  0.06093  1.0000
  H   H24       1.0  0.15423  0.28449  0.04297  1.0000
  C   C29       1.0  0.16899  0.23724  0.08036  1.0000
  Fe  Fe11      1.0  0.01697  0.13536  0.19941  1.0000
  C   C30       1.0  0.20018  0.24982  0.09495  1.0000
  H   H25       1.0  0.05623  0.24323  0.02882  1.0000
  H   H26       1.0  0.08685  0.27193  0.03370  1.0000
  H   H27       1.0  0.24064  0.47814  0.00663  1.0000
  H   H28       1.0  0.06938  0.25629  0.05482  1.0000
  H   H29       1.0  0.08230  0.20103  0.03832  1.0000
  C   C31       1.0  0.01069  0.06501  0.23986  1.0000
  H   H30       1.0  0.13274  0.19627  0.05397  1.0000
  H   H31       1.0  0.09226  0.21123  0.06489  1.0000
  H   H32       1.0  0.30329  0.47147  0.07586  1.0000
  C   C32       1.0  0.16626  0.27424  0.05732  1.0000
  H   H33       1.0  0.04278  0.02309  0.20643  1.0000
  H   H34       1.0  0.15940  0.21826  0.08464  1.0000
  C   C33       1.0  0.36957  0.31914  0.31239  1.0000
  H   H35       1.0  0.02661  0.16046  0.10517  1.0000
  H   H36       1.0  0.46165  0.29133  0.15299  1.0000
  N   N3        1.0  0.22716  0.24636  0.17882  1.0000
  C   C34       1.0  0.26275  0.22964  0.17711  1.0000
  C   C35       1.0  0.24127  0.27396  0.17926  1.0000
  C   C36       1.0  0.21571  0.24124  0.19912  1.0000
  C   C37       1.0  0.19161  0.24022  0.16147  1.0000
  C   C38       1.0  0.17379  0.21483  0.15946  1.0000
  C   C39       1.0  0.17323  0.25895  0.14640  1.0000
  C   C40       1.0  0.13908  0.20877  0.14389  1.0000
  C   C41       1.0  0.13850  0.25265  0.13080  1.0000
  C   C42       1.0  0.12129  0.22768  0.12964  1.0000
  H   H37       1.0  0.27325  0.23345  0.16236  1.0000
  H   H38       1.0  0.28979  0.23333  0.19022  1.0000
  H   H39       1.0  0.25552  0.20852  0.17749  1.0000
  H   H40       1.0  0.25317  0.27890  0.16508  1.0000
  H   H41       1.0  0.26745  0.27787  0.19277  1.0000
  H   H42       1.0  0.21634  0.28779  0.18085  1.0000
  H   H43       1.0  0.20663  0.22062  0.20064  1.0000
  H   H44       1.0  0.24196  0.24515  0.21259  1.0000
  H   H45       1.0  0.18918  0.25350  0.20110  1.0000
  H   H46       1.0  0.18621  0.19939  0.17010  1.0000
  H   H47       1.0  0.18492  0.27864  0.14640  1.0000
  H   H48       1.0  0.12571  0.18929  0.14309  1.0000
  H   H49       1.0  0.12466  0.26727  0.11958  1.0000
  H   H50       1.0  0.09397  0.22295  0.11776  1.0000
  Fe  Fe12      1.0  0.01089  0.15425  0.15411  1.0000
  N   N4        1.0  0.27283  0.26376  0.30309  1.0000
  C   C43       1.0  0.31385  0.25179  0.30377  1.0000
  C   C44       1.0  0.24144  0.24267  0.29803  1.0000
  C   C45       1.0  0.26558  0.28296  0.28584  1.0000
  C   C46       1.0  0.16083  0.30462  0.00117  1.0000
  H   H51       1.0  0.23851  0.28415  0.10207  1.0000
  H   H52       1.0  0.47300  0.36355  0.08136  1.0000
  H   H53       1.0  0.46046  0.35574  0.10565  1.0000
  C   C47       1.0  0.19091  0.49347  0.04575  1.0000
  C   C48       1.0  0.99968  0.00233  0.15924  1.0000
  H   H54       1.0  0.28684  0.30001  0.28973  1.0000
  H   H55       1.0  0.20620  0.29019  0.31147  1.0000
  C   C49       1.0  0.01287  0.18136  0.07588  1.0000
  H   H56       1.0  0.14578  0.44651  0.04404  1.0000
  H   H57       1.0  0.24379  0.23203  0.28344  1.0000
  H   H58       1.0  0.33891  0.26673  0.30657  1.0000
  H   H59       1.0  0.06238  0.05378  0.21638  1.0000
  H   H60       1.0  0.24547  0.22806  0.31080  1.0000
  H   H61       1.0  0.26029  0.44210  0.04951  1.0000
  C   C50       1.0  0.42725  0.31882  0.07861  1.0000
  H   H62       1.0  0.17460  0.48595  0.05705  1.0000
  H   H63       1.0  0.02691  0.08203  0.23464  1.0000
  H   H64       1.0  0.31522  0.24212  0.28867  1.0000
  H   H65       1.0  0.14163  0.25188  0.01873  1.0000
  H   H66       1.0  0.23741  0.41383  0.03505  1.0000
  H   H67       1.0  0.41724  0.29128  0.32386  1.0000
  C   C51       1.0  0.13403  0.23296  0.02522  1.0000
  H   H68       1.0  0.32245  0.34869  0.30633  1.0000
  C   C52       1.0  0.19719  0.28671  0.07202  1.0000
  H   H69       1.0  0.32103  0.23643  0.31590  1.0000
  H   H70       1.0  0.27103  0.27429  0.27102  1.0000
  C   C53       1.0  0.31098  0.48876  0.06810  1.0000
  H   H71       1.0  0.42097  0.39412  0.01421  1.0000
  H   H72       1.0  0.25804  0.43946  0.02211  1.0000
  H   H73       1.0  0.03004  0.05853  0.25499  1.0000
  C   C54       1.0  0.20570  0.47705  0.03137  1.0000
  N   N5        1.0  0.47201  0.32217  0.08742  1.0000
  C   C55       1.0  0.24055  0.43541  0.03445  1.0000
  H   H74       1.0  0.11018  0.22371  0.01262  1.0000
  H   H75       1.0  0.23359  0.29057  0.28236  1.0000
  N   N6        1.0  0.00401  0.04356  0.22407  1.0000
  H   H76       1.0  0.19266  0.44489  0.99710  1.0000
  H   H77       1.0  0.45048  0.12035  0.26783  1.0000
  C   C56       1.0  0.17747  0.43834  0.04637  1.0000
  H   H78       1.0  0.03216  0.16897  0.06859  1.0000
  H   H79       1.0  0.47259  0.07555  0.27876  1.0000
  H   H80       1.0  0.17039  0.41875  0.00881  1.0000
  C   C57       1.0  0.34338  0.33804  0.31830  1.0000
  C   C58       1.0  0.43941  0.38224  0.00601  1.0000
  S   S20       1.0  0.99848  0.05565  0.15561  1.0000
  C   C59       1.0  0.00975  0.17645  0.09666  1.0000
  C   C60       1.0  0.26938  0.27679  0.32290  1.0000
  C   C61       1.0  0.11863  0.30381  0.00169  1.0000
  H   H81       1.0  0.48322  0.33144  0.05693  1.0000
  C   C62       1.0  0.47997  0.34960  0.09462  1.0000
  H   H82       1.0  0.44365  0.32119  0.12380  1.0000
  C   C63       1.0  0.22754  0.48937  0.01762  1.0000
  C   C64       1.0  0.39666  0.30570  0.32810  1.0000
  H   H83       1.0  0.14557  0.45016  0.00588  1.0000
  C   C65       1.0  0.17606  0.44026  0.00968  1.0000
  S   S21       1.0  0.99678  0.13925  0.23059  1.0000
  C   C66       1.0  0.46634  0.30639  0.12296  1.0000
  C   C67       1.0  0.48461  0.30429  0.10530  1.0000
  C   C68       1.0  0.47660  0.28938  0.13982  1.0000
  S   S22       1.0  0.49401  0.21096  0.25204  1.0000
  C   C69       1.0  0.49390  0.31770  0.07014  1.0000
  H   H84       1.0  0.04504  0.26234  0.42680  1.0000
  C   C70       1.0  0.07775  0.34428  0.41402  1.0000
  H   H85       1.0  0.45055  0.30368  0.43927  1.0000
  S   S23       1.0  0.10689  0.19557  0.62941  1.0000
  Fe  Fe13      1.0  0.30202  0.40487  0.42336  1.0000
  S   S24       1.0  0.28607  0.37907  0.44846  1.0000
  S   S25       1.0  0.28479  0.44715  0.42951  1.0000
  Fe  Fe14      1.0  0.33679  0.35877  0.40201  1.0000
  S   S26       1.0  0.32255  0.33080  0.42575  1.0000
  S   S27       1.0  0.37693  0.33784  0.38239  1.0000
  Fe  Fe15      1.0  0.26144  0.35066  0.42269  1.0000
  S   S28       1.0  0.20696  0.32242  0.42065  1.0000
  Fe  Fe16      1.0  0.34803  0.36104  0.44983  1.0000
  S   S29       1.0  0.38762  0.34532  0.47976  1.0000
  S   S30       1.0  0.27316  0.37704  0.39698  1.0000
  S   S31       1.0  0.36622  0.38830  0.42671  1.0000
  H   H86       1.0  0.27270  0.49734  0.44665  1.0000
  C   C71       1.0  0.22808  0.30192  0.34312  1.0000
  H   H87       1.0  0.25325  0.25741  0.62460  1.0000
  H   H88       1.0  0.22566  0.18805  0.65473  1.0000
  S   S32       1.0  0.07694  0.31266  0.47979  1.0000
  C   C72       1.0  0.04641  0.32810  0.41807  1.0000
  C   C73       1.0  0.17331  0.31934  0.43838  1.0000
  C   C74       1.0  0.15098  0.29597  0.43863  1.0000
  C   C75       1.0  0.12230  0.29322  0.45161  1.0000
  C   C76       1.0  0.11468  0.31413  0.46408  1.0000
  C   C77       1.0  0.13764  0.33731  0.46414  1.0000
  C   C78       1.0  0.16696  0.33988  0.45150  1.0000
  H   H89       1.0  0.15579  0.27990  0.42865  1.0000
  H   H90       1.0  0.10611  0.27497  0.45194  1.0000
  H   H91       1.0  0.13226  0.35357  0.47382  1.0000
  H   H92       1.0  0.18359  0.35806  0.45140  1.0000
  S   S33       1.0  0.03010  0.20264  0.53090  1.0000
  H   H93       1.0  0.25810  0.25680  0.65240  1.0000
  H   H94       1.0  0.24226  0.16816  0.62470  1.0000
  C   C79       1.0  0.37225  0.33068  0.35526  1.0000
  C   C80       1.0  0.20367  0.48405  0.39467  1.0000
  H   H95       1.0  0.44509  0.36728  0.41427  1.0000
  H   H96       1.0  0.32288  0.28988  0.37297  1.0000
  H   H97       1.0  0.32414  0.35827  0.34377  1.0000
  C   C81       1.0  0.03184  0.30626  0.40509  1.0000
  C   C82       1.0  0.43592  0.36043  0.48942  1.0000
  C   C83       1.0  0.46523  0.34811  0.50501  1.0000
  S   S34       1.0  0.02091  0.24033  0.47692  1.0000
  C   C84       1.0  0.44567  0.38437  0.48157  1.0000
  H   H98       1.0  0.45801  0.32946  0.51103  1.0000
  Fe  Fe17      1.0  0.13422  0.16183  0.65098  1.0000
  H   H99       1.0  0.42318  0.39416  0.46974  1.0000
  C   C85       1.0  0.08733  0.19704  0.60183  1.0000
  C   C86       1.0  0.08166  0.17478  0.58902  1.0000
  C   C87       1.0  0.06476  0.17696  0.56737  1.0000
  C   C88       1.0  0.05352  0.20137  0.55814  1.0000
  C   C89       1.0  0.06034  0.22371  0.57085  1.0000
  C   C90       1.0  0.07667  0.22150  0.59254  1.0000
  H   H100      1.0  0.08977  0.15583  0.59584  1.0000
  C   C91       1.0  0.08342  0.31728  0.38454  1.0000
  H   H101      1.0  0.05296  0.24267  0.56401  1.0000
  H   H102      1.0  0.08107  0.23888  0.60222  1.0000
  C   C92       1.0  0.34431  0.34357  0.33956  1.0000
  C   C93       1.0  0.29928  0.47901  0.42293  1.0000
  C   C94       1.0  0.31900  0.48357  0.40642  1.0000
  H   H103      1.0  0.46482  0.37590  0.44103  1.0000
  H   H104      1.0  0.32761  0.46723  0.39775  1.0000
  H   H105      1.0  0.44184  0.33286  0.45283  1.0000
  H   H106      1.0  0.33175  0.26856  0.34116  1.0000
  H   H107      1.0  0.45491  0.39983  0.59562  1.0000
  C   C95       1.0  0.17384  0.21043  0.58229  1.0000
  C   C96       1.0  0.01806  0.27393  0.42914  1.0000
  C   C97       1.0  0.39828  0.31166  0.34936  1.0000
  H   H108      1.0  0.46499  0.32831  0.39944  1.0000
  Fe  Fe18      1.0  0.02746  0.28321  0.48463  1.0000
  S   S35       1.0  0.01538  0.27839  0.51699  1.0000
  Fe  Fe19      1.0  0.00446  0.23610  0.50869  1.0000
  C   C98       1.0  0.13264  0.00939  0.64887  1.0000
  C   C99       1.0  0.18281  0.49627  0.40836  1.0000
  H   H109      1.0  0.25752  0.31166  0.37487  1.0000
  H   H110      1.0  0.15305  0.22166  0.57059  1.0000
  H   H111      1.0  0.49174  0.41454  0.48319  1.0000
  C   C100      1.0  0.26060  0.30185  0.36054  1.0000
  H   H112      1.0  0.00636  0.25525  0.39096  1.0000
  C   C101      1.0  0.48446  0.39593  0.48926  1.0000
  H   H113      1.0  0.19963  0.31179  0.34401  1.0000
  H   H114      1.0  0.02883  0.28695  0.44288  1.0000
  C   C102      1.0  0.20257  0.16885  0.59462  1.0000
  S   S36       1.0  0.18505  0.13590  0.64507  1.0000
  H   H115      1.0  0.42005  0.30154  0.36131  1.0000
  H   H116      1.0  0.20917  0.46319  0.39571  1.0000
  H   H117      1.0  0.15962  0.17433  0.56533  1.0000
  C   C103      1.0  0.29735  0.28940  0.35948  1.0000
  N   N7        1.0  0.28407  0.30443  0.49314  1.0000
  C   C104      1.0  0.30386  0.32356  0.50940  1.0000
  C   C105      1.0  0.31557  0.28447  0.49132  1.0000
  C   C106      1.0  0.27280  0.31793  0.47283  1.0000
  C   C107      1.0  0.24621  0.29344  0.49841  1.0000
  C   C108      1.0  0.23806  0.26615  0.49844  1.0000
  C   C109      1.0  0.21534  0.31028  0.50299  1.0000
  C   C110      1.0  0.20143  0.25656  0.50303  1.0000
  C   C111      1.0  0.17925  0.30045  0.50790  1.0000
  C   C112      1.0  0.17211  0.27368  0.50775  1.0000
  H   H118      1.0  0.30953  0.31476  0.52523  1.0000
  H   H119      1.0  0.33405  0.33068  0.50668  1.0000
  H   H120      1.0  0.28502  0.34141  0.50959  1.0000
  H   H121      1.0  0.32487  0.27316  0.50600  1.0000
  H   H122      1.0  0.34417  0.29359  0.48809  1.0000
  H   H123      1.0  0.30428  0.27080  0.47802  1.0000
  H   H124      1.0  0.25739  0.30434  0.46020  1.0000
  H   H125      1.0  0.25125  0.33440  0.47323  1.0000
  H   H126      1.0  0.30046  0.32620  0.46811  1.0000
  H   H127      1.0  0.25914  0.25181  0.49469  1.0000
  H   H128      1.0  0.21825  0.33124  0.50226  1.0000
  H   H129      1.0  0.19540  0.23573  0.50268  1.0000
  H   H130      1.0  0.15579  0.31371  0.51104  1.0000
  H   H131      1.0  0.14333  0.26628  0.51086  1.0000
  H   H132      1.0  0.08888  0.36051  0.42443  1.0000
  H   H133      1.0  0.44258  0.38577  0.56988  1.0000
  S   S37       1.0  0.13704  0.06302  0.64726  1.0000
  H   H134      1.0  0.20797  0.25536  0.63596  1.0000
  H   H135      1.0  0.18962  0.24303  0.60229  1.0000
  N   N8        1.0  0.24269  0.21967  0.63682  1.0000
  C   C113      1.0  0.28713  0.21253  0.64157  1.0000
  C   C114      1.0  0.24034  0.24861  0.63732  1.0000
  C   C115      1.0  0.22350  0.20960  0.65362  1.0000
  C   C116      1.0  0.22128  0.20791  0.61666  1.0000
  C   C117      1.0  0.19515  0.22248  0.60071  1.0000
  C   C118      1.0  0.17742  0.18368  0.57929  1.0000
  Fe  Fe20      1.0  0.15556  0.10384  0.66042  1.0000
  H   H136      1.0  0.09885  0.31277  0.37195  1.0000
  C   C119      1.0  0.09646  0.33877  0.39740  1.0000
  H   H137      1.0  0.29206  0.19129  0.64438  1.0000
  H   H138      1.0  0.30218  0.21808  0.62860  1.0000
  H   H139      1.0  0.30434  0.22212  0.65620  1.0000
  C   C120      1.0  0.21933  0.49882  0.38035  1.0000
  N   N9        1.0  0.99972  0.28882  0.41018  1.0000
  H   H140      1.0  0.04352  0.28465  0.37786  1.0000
  H   H141      1.0  0.19002  0.21448  0.65070  1.0000
  H   H142      1.0  0.23698  0.48929  0.37031  1.0000
  C   C121      1.0  0.22427  0.18070  0.61300  1.0000
  H   H143      1.0  0.12207  0.35069  0.39494  1.0000
  C   C122      1.0  0.30200  0.27714  0.34098  1.0000
  C   C123      1.0  0.44719  0.32515  0.43775  1.0000
  H   H144      1.0  0.05988  0.15951  0.55775  1.0000
  H   H145      1.0  0.20436  0.14790  0.59252  1.0000
  H   H146      1.0  0.10370  0.01150  0.63769  1.0000
  C   C124      1.0  0.47266  0.36562  0.42738  1.0000
  C   C125      1.0  0.46199  0.38330  0.58585  1.0000
  H   H147      1.0  0.45197  0.36491  0.59230  1.0000
  H   H148      1.0  0.41850  0.32854  0.42567  1.0000
  C   C126      1.0  0.05154  0.30120  0.38820  1.0000
  H   H149      1.0  0.03498  0.33228  0.43201  1.0000
  C   C127      1.0  0.15590  0.03178  0.65647  1.0000
  N   N10       1.0  0.48363  0.33792  0.43227  1.0000
  H   H150      1.0  0.17197  0.48473  0.41994  1.0000
  C   C128      1.0  0.49150  0.32556  0.41296  1.0000
  H   H151      1.0  0.99705  0.17750  0.62235  1.0000
  H   H152      1.0  0.49296  0.36000  0.55670  1.0000
  H   H153      1.0  0.48530  0.40012  0.54487  1.0000
  Fe  Fe21      1.0  0.21938  0.14751  0.67760  1.0000
  S   S38       1.0  0.28839  0.15770  0.68003  1.0000
  Fe  Fe22      1.0  0.14044  0.13937  0.69525  1.0000
  S   S39       1.0  0.11842  0.13464  0.72588  1.0000
  H   H154      1.0  0.49107  0.34935  0.93802  1.0000
  Fe  Fe23      1.0  0.49033  0.25450  0.73011  1.0000
  S   S40       1.0  0.19359  0.11308  0.69228  1.0000
  H   H155      1.0  0.07312  0.05452  0.73250  1.0000
  S   S41       1.0  0.42217  0.24180  0.72680  1.0000
  H   H156      1.0  0.01535  0.12635  0.76948  1.0000
  C   C129      1.0  0.05661  0.05863  0.67962  1.0000
  H   H157      1.0  0.01491  0.19901  0.88821  1.0000
  H   H158      1.0  0.11936  0.08439  0.70407  1.0000
  H   H159      1.0  0.04022  0.14728  0.80196  1.0000
  H   H160      1.0  0.12578  0.18350  0.80779  1.0000
  C   C130      1.0  0.40370  0.38525  0.94086  1.0000
  C   C131      1.0  0.04286  0.00720  0.69969  1.0000
  C   C132      1.0  0.19327  0.02869  0.67093  1.0000
  N   N11       1.0  0.07936  0.05052  0.70061  1.0000
  H   H161      1.0  0.47271  0.39315  0.92328  1.0000
  C   C133      1.0  0.32465  0.18169  0.69294  1.0000
  C   C134      1.0  0.31517  0.19978  0.70729  1.0000
  C   C135      1.0  0.34526  0.21803  0.71729  1.0000
  C   C136      1.0  0.38519  0.21872  0.71304  1.0000
  C   C137      1.0  0.39440  0.20096  0.69836  1.0000
  C   C138      1.0  0.36444  0.18254  0.68851  1.0000
  C   C139      1.0  0.45201  0.38357  0.90962  1.0000
  H   H162      1.0  0.33761  0.23163  0.72857  1.0000
  H   H163      1.0  0.42461  0.20137  0.69464  1.0000
  H   H164      1.0  0.08114  0.15986  0.82210  1.0000
  C   C140      1.0  0.06766  0.13764  0.73051  1.0000
  C   C141      1.0  0.03534  0.14864  0.71587  1.0000
  H   H165      1.0  0.01345  0.01694  0.69766  1.0000
  C   C142      1.0  0.04866  0.16305  0.81387  1.0000
  H   H166      1.0  0.49012  0.12569  0.75208  1.0000
  C   C143      1.0  0.06004  0.12954  0.74984  1.0000
  H   H167      1.0  0.04066  0.15495  0.70094  1.0000
  H   H168      1.0  0.05910  0.08311  0.71693  1.0000
  H   H169      1.0  0.07073  0.04998  0.66715  1.0000
  H   H170      1.0  0.08475  0.12092  0.76125  1.0000
  H   H171      1.0  0.16519  0.18495  0.78026  1.0000
  H   H172      1.0  0.23879  0.21746  0.66927  1.0000
  H   H173      1.0  0.02373  0.05240  0.67635  1.0000
  H   H174      1.0  0.02500  0.05590  0.71367  1.0000
  H   H175      1.0  0.14007  0.05729  0.71985  1.0000
  C   C144      1.0  0.41099  0.36087  0.93180  1.0000
  H   H176      1.0  0.05533  0.20150  0.73470  1.0000
  C   C145      1.0  0.39371  0.33837  0.93926  1.0000
  H   H177      1.0  0.01416  0.19933  0.76091  1.0000
  C   C146      1.0  0.37107  0.34014  0.95494  1.0000
  C   C147      1.0  0.36450  0.36430  0.96346  1.0000
  H   H178      1.0  0.46274  0.32114  0.92664  1.0000
  C   C148      1.0  0.08017  0.02162  0.70155  1.0000
  C   C149      1.0  0.10932  0.18765  0.79208  1.0000
  H   H179      1.0  0.39834  0.31914  0.93335  1.0000
  C   C150      1.0  0.13226  0.18865  0.77650  1.0000
  H   H180      1.0  0.35942  0.32266  0.96097  1.0000
  C   C151      1.0  0.46483  0.39420  0.99399  1.0000
  H   H181      1.0  0.34815  0.36549  0.97611  1.0000
  C   C152      1.0  0.12106  0.06269  0.70434  1.0000
  C   C153      1.0  0.41030  0.34644  0.89635  1.0000
  C   C154      1.0  0.05817  0.06135  0.71659  1.0000
  H   H182      1.0  0.13783  0.05722  0.69197  1.0000
  C   C155      1.0  0.48866  0.37921  0.98292  1.0000
  C   C156      1.0  0.47177  0.34128  0.92329  1.0000
  H   H183      1.0  0.47087  0.38089  0.89755  1.0000
  H   H184      1.0  0.49145  0.34005  0.83162  1.0000
  N   N12       1.0  0.04213  0.18916  0.80406  1.0000
  C   C157      1.0  0.11282  0.19377  0.75591  1.0000
  C   C158      1.0  0.04708  0.19683  0.76623  1.0000
  C   C159      1.0  0.05624  0.20938  0.82034  1.0000
  H   H185      1.0  0.37219  0.16880  0.67736  1.0000
  N   N13       1.0  0.43578  0.35832  0.91557  1.0000
  H   H186      1.0  0.46024  0.31894  0.99689  1.0000
  H   H187      1.0  0.05701  0.08022  0.67779  1.0000
  C   C160      1.0  0.48728  0.35198  0.98432  1.0000
  C   C161      1.0  0.38056  0.38680  0.95635  1.0000
  H   H188      1.0  0.44189  0.17464  0.73350  1.0000
  H   H189      1.0  0.03817  0.20856  0.83289  1.0000
  H   H190      1.0  0.21161  0.04569  0.67686  1.0000
  H   H191      1.0  0.40021  0.32627  0.89897  1.0000
  C   C162      1.0  0.11713  0.00693  0.70349  1.0000
  H   H192      1.0  0.46566  0.41526  0.99311  1.0000
  C   C163      1.0  0.20748  0.00347  0.67732  1.0000
  H   H193      1.0  0.48882  0.17568  0.71038  1.0000
  H   H194      1.0  0.08919  0.20700  0.82819  1.0000
  S   S42       1.0  0.16927  0.17448  0.68318  1.0000
  H   H195      1.0  0.13039  0.19365  0.74372  1.0000
  C   C164      1.0  0.02084  0.13282  0.75466  1.0000
  S   S43       1.0  0.00704  0.22676  0.98586  1.0000
  C   C165      1.0  0.99698  0.19250  0.79637  1.0000
  H   H196      1.0  0.41662  0.40335  0.93679  1.0000
  H   H197      1.0  0.28489  0.19947  0.71097  1.0000
  C   C166      1.0  0.06588  0.19134  0.78738  1.0000
  H   H198      1.0  0.37652  0.40544  0.96356  1.0000
  H   H199      1.0  0.49168  0.33938  0.91162  1.0000
  H   H200      1.0  0.42782  0.34503  0.88361  1.0000
  H   H201      1.0  0.42664  0.39722  0.90300  1.0000
  Fe  Fe24      1.0  0.01952  0.26996  0.98657  1.0000
  C   C167      1.0  0.46881  0.17668  0.74690  1.0000
  C   C168      1.0  0.07046  0.19816  0.75085  1.0000
  H   H202      1.0  0.38210  0.35821  0.89046  1.0000
  H   H203      1.0  0.17261  0.29144  0.99089  1.0000
  H   H204      1.0  0.05258  0.22928  0.81351  1.0000
  S   S44       1.0  0.08624  0.28045  0.98594  1.0000
  H   H205      1.0  0.45915  0.16815  0.76068  1.0000
  H   H206      1.0  0.02952  0.16024  0.82575  1.0000
  H   H207      1.0  0.23672  0.00133  0.68825  1.0000
  H   H208      1.0  0.46745  0.13360  0.72536  1.0000
  H   H209      1.0  0.14690  0.01599  0.70443  1.0000
  H   H210      1.0  0.47362  0.19807  0.74949  1.0000
  C   C169      1.0  0.46157  0.34000  0.99621  1.0000
  C   C170      1.0  0.99639  0.15238  0.72087  1.0000
  S   S45       1.0  0.10154  0.12903  0.66382  1.0000
  Fe  Fe25      1.0  0.43931  0.76090  0.25236  1.0000
  S   S46       1.0  0.41732  0.71884  0.24837  1.0000
  C   C171      1.0  0.30027  0.51366  0.07454  1.0000
  Fe  Fe26      1.0  0.34983  0.78047  0.24167  1.0000
  S   S47       1.0  0.32331  0.74009  0.23832  1.0000
  S   S48       1.0  0.31122  0.81687  0.23206  1.0000
  Fe  Fe27      1.0  0.37083  0.73049  0.26730  1.0000
  S   S49       1.0  0.35806  0.69962  0.29048  1.0000
  Fe  Fe28      1.0  0.37157  0.73155  0.21961  1.0000
  S   S50       1.0  0.34227  0.71026  0.18893  1.0000
  S   S51       1.0  0.39418  0.77197  0.27231  1.0000
  S   S52       1.0  0.39671  0.77253  0.22199  1.0000
  Fe  Fe29      1.0  0.36019  0.65492  0.07572  1.0000
  S   S53       1.0  0.29358  0.64328  0.07137  1.0000
  S   S54       1.0  0.39793  0.67436  0.10534  1.0000
  Fe  Fe30      1.0  0.36815  0.63190  0.03267  1.0000
  S   S55       1.0  0.30151  0.61841  0.02596  1.0000
  H   H211      1.0  0.01710  0.91266  0.10726  1.0000
  Fe  Fe31      1.0  0.28657  0.65750  0.03836  1.0000
  S   S56       1.0  0.23945  0.68599  0.01997  1.0000
  Fe  Fe32      1.0  0.31429  0.60514  0.05936  1.0000
  S   S57       1.0  0.29438  0.56724  0.07246  1.0000
  S   S58       1.0  0.35257  0.67179  0.04335  1.0000
  S   S59       1.0  0.38144  0.61601  0.06545  1.0000
  Fe  Fe33      1.0  0.07528  0.85596  0.20081  1.0000
  H   H212      1.0  0.41841  0.59936  0.11138  1.0000
  S   S60       1.0  0.11668  0.82842  0.22308  1.0000
  Fe  Fe34      1.0  0.05515  0.90684  0.17637  1.0000
  S   S61       1.0  0.08636  0.94491  0.17082  1.0000
  S   S62       1.0  0.05376  0.89538  0.20916  1.0000
  S   S63       1.0  0.08263  0.86841  0.16912  1.0000
  H   H213      1.0  0.09780  0.84065  0.26865  1.0000
  C   C172      1.0  0.08542  0.99855  0.16993  1.0000
  H   H214      1.0  0.02303  0.87500  0.24902  1.0000
  C   C173      1.0  0.06140  0.97563  0.16802  1.0000
  C   C174      1.0  0.12012  0.91994  0.12701  1.0000
  C   C175      1.0  0.08556  0.89175  0.09853  1.0000
  H   H215      1.0  0.44056  0.59469  0.13871  1.0000
  C   C176      1.0  0.31025  0.53638  0.06468  1.0000
  C   C177      1.0  0.33134  0.53402  0.04845  1.0000
  C   C178      1.0  0.47389  0.64898  0.00820  1.0000
  H   H216      1.0  0.33917  0.55131  0.04070  1.0000
  H   H217      1.0  0.10617  0.73078  0.99903  1.0000
  C   C179      1.0  0.18577  0.68952  0.01935  1.0000
  C   C180      1.0  0.16356  0.67148  0.02861  1.0000
  S   S64       1.0  0.04533  0.69890  0.01435  1.0000
  C   C181      1.0  0.09960  0.69610  0.01637  1.0000
  H   H218      1.0  0.99637  0.78269  0.06329  1.0000
  C   C182      1.0  0.46969  0.75848  0.31663  1.0000
  H   H219      1.0  0.04980  0.93986  0.08460  1.0000
  H   H220      1.0  0.30995  0.60414  0.11948  1.0000
  H   H221      1.0  0.28387  0.51531  0.08708  1.0000
  H   H222      1.0  0.35689  0.56010  0.16131  1.0000
  H   H223      1.0  0.18757  0.53261  0.05772  1.0000
  C   C183      1.0  0.25720  0.81974  0.22997  1.0000
  C   C184      1.0  0.23417  0.80058  0.23754  1.0000
  C   C185      1.0  0.19119  0.80357  0.23534  1.0000
  C   C186      1.0  0.17072  0.82547  0.22528  1.0000
  C   C187      1.0  0.19366  0.84449  0.21750  1.0000
  C   C188      1.0  0.23673  0.84172  0.22002  1.0000
  H   H224      1.0  0.24952  0.78361  0.24528  1.0000
  H   H225      1.0  0.17374  0.78877  0.24144  1.0000
  H   H226      1.0  0.17836  0.86152  0.20984  1.0000
  H   H227      1.0  0.25432  0.85669  0.21418  1.0000
  C   C189      1.0  0.35831  0.70216  0.16540  1.0000
  C   C190      1.0  0.39933  0.70444  0.16340  1.0000
  C   C191      1.0  0.41067  0.69639  0.14474  1.0000
  C   C192      1.0  0.38120  0.68619  0.12780  1.0000
  C   C193      1.0  0.33999  0.68449  0.12965  1.0000
  C   C194      1.0  0.32877  0.69221  0.14839  1.0000
  H   H228      1.0  0.42245  0.71195  0.17634  1.0000
  H   H229      1.0  0.44263  0.69779  0.14352  1.0000
  H   H230      1.0  0.31686  0.67686  0.11677  1.0000
  H   H231      1.0  0.29698  0.69022  0.14978  1.0000
  H   H232      1.0  0.12153  0.90576  0.13991  1.0000
  H   H233      1.0  0.38386  0.64177  0.15212  1.0000
  N   N14       1.0  0.48978  0.73268  0.32081  1.0000
  H   H234      1.0  0.44263  0.71403  0.29743  1.0000
  N   N15       1.0  0.03147  0.83703  0.26377  1.0000
  H   H235      1.0  0.04153  0.79592  0.26971  1.0000
  H   H236      1.0  0.04251  0.93359  0.12834  1.0000
  C   C195      1.0  0.07901  0.94001  0.09671  1.0000
  H   H237      1.0  0.07421  0.86527  0.28134  1.0000
  C   C196      1.0  0.04586  0.91537  0.11945  1.0000
  C   C197      1.0  0.07932  0.89042  0.07637  1.0000
  C   C198      1.0  0.36928  0.56699  0.12472  1.0000
  C   C199      1.0  0.09332  0.86784  0.10948  1.0000
  S   S65       1.0  0.00292  0.82490  0.13145  1.0000
  H   H238      1.0  0.46913  0.65710  0.02278  1.0000
  H   H239      1.0  0.22596  0.55262  0.03348  1.0000
  H   H240      1.0  0.09998  0.82613  0.10767  1.0000
  C   C200      1.0  0.16463  0.71089  0.00870  1.0000
  C   C201      1.0  0.36375  0.61147  0.19444  1.0000
  H   H241      1.0  0.04739  0.89902  0.13062  1.0000
  H   H242      1.0  0.07235  0.90737  0.06660  1.0000
  S   S66       1.0  0.01056  0.84084  0.18933  1.0000
  H   H243      1.0  0.07878  0.83274  0.29166  1.0000
  H   H244      1.0  0.25233  0.52518  0.00814  1.0000
  C   C202      1.0  0.41469  0.60396  0.12751  1.0000
  C   C203      1.0  0.02349  0.85390  0.24509  1.0000
  C   C204      1.0  0.12190  0.71426  0.00730  1.0000
  H   H245      1.0  0.35770  0.50755  0.02919  1.0000
  H   H246      1.0  0.43561  0.75667  0.31488  1.0000
  H   H247      1.0  0.10569  0.94182  0.08898  1.0000
  H   H248      1.0  0.37678  0.65123  0.18764  1.0000
  H   H249      1.0  0.41873  0.62549  0.12922  1.0000
  C   C205      1.0  0.36192  0.58018  0.16632  1.0000
  H   H250      1.0  0.05973  0.80759  0.24765  1.0000
  Fe  Fe35      1.0  0.01674  0.85550  0.15769  1.0000
  H   H251      1.0  0.12098  0.93949  0.13466  1.0000
  C   C206      1.0  0.08913  0.84357  0.07730  1.0000
  H   H252      1.0  0.00414  0.78383  0.10185  1.0000
  H   H253      1.0  0.99949  0.96020  0.16135  1.0000
  C   C207      1.0  0.07222  0.84425  0.27698  1.0000
  C   C208      1.0  0.35834  0.58596  0.18678  1.0000
  C   C209      1.0  0.37300  0.63129  0.18175  1.0000
  H   H254      1.0  0.47581  0.76730  0.30205  1.0000
  H   H255      1.0  0.36057  0.61597  0.21022  1.0000
  N   N16       1.0  0.25574  0.77545  0.17049  1.0000
  C   C210      1.0  0.27471  0.76028  0.15557  1.0000
  C   C211      1.0  0.27886  0.80041  0.17496  1.0000
  C   C212      1.0  0.26177  0.76027  0.19009  1.0000
  C   C213      1.0  0.21123  0.78088  0.16272  1.0000
  C   C214      1.0  0.18907  0.77325  0.14247  1.0000
  C   C215      1.0  0.18867  0.79442  0.17555  1.0000
  C   C216      1.0  0.14701  0.77894  0.13572  1.0000
  C   C217      1.0  0.14672  0.80000  0.16870  1.0000
  C   C218      1.0  0.12588  0.79229  0.14880  1.0000
  H   H256      1.0  0.25986  0.74075  0.15217  1.0000
  H   H257      1.0  0.27321  0.77092  0.14070  1.0000
  H   H258      1.0  0.30808  0.75637  0.16209  1.0000
  H   H259      1.0  0.27508  0.81264  0.16072  1.0000
  H   H260      1.0  0.31251  0.79708  0.18103  1.0000
  H   H261      1.0  0.26854  0.81219  0.18719  1.0000
  H   H262      1.0  0.24385  0.74169  0.18779  1.0000
  H   H263      1.0  0.29479  0.75513  0.19582  1.0000
  H   H264      1.0  0.25284  0.77128  0.20309  1.0000
  H   H265      1.0  0.20343  0.76273  0.13161  1.0000
  H   H266      1.0  0.20338  0.80073  0.19110  1.0000
  H   H267      1.0  0.13057  0.77279  0.12030  1.0000
  H   H268      1.0  0.13028  0.81020  0.17900  1.0000
  H   H269      1.0  0.09323  0.79656  0.14361  1.0000
  H   H270      1.0  0.39340  0.55471  0.13454  1.0000
  H   H271      1.0  0.04761  0.85135  0.23581  1.0000
  C   C219      1.0  0.37691  0.62568  0.16136  1.0000
  H   H272      1.0  0.37196  0.56398  0.10816  1.0000
  C   C220      1.0  0.37136  0.60000  0.15295  1.0000
  C   C221      1.0  0.35181  0.69923  0.31688  1.0000
  H   H273      1.0  0.33811  0.55936  0.12542  1.0000
  H   H274      1.0  0.00560  0.80348  0.24541  1.0000
  C   C222      1.0  0.03450  0.80975  0.25641  1.0000
  C   C223      1.0  0.01836  0.97766  0.16295  1.0000
  N   N17       1.0  0.37409  0.59496  0.13100  1.0000
  H   H275      1.0  0.14884  0.91793  0.12094  1.0000
  C   C224      1.0  0.34104  0.60958  0.11694  1.0000
  C   C225      1.0  0.12070  0.67471  0.02702  1.0000
  H   H276      1.0  0.07825  0.95824  0.10604  1.0000
  H   H277      1.0  0.34099  0.60548  0.10029  1.0000
  H   H278      1.0  0.33692  0.65819  0.31549  1.0000
  H   H279      1.0  0.17932  0.65493  0.03681  1.0000
  H   H280      1.0  0.34477  0.63102  0.11908  1.0000
  C   C226      1.0  0.09523  0.84419  0.09899  1.0000
  H   H281      1.0  0.09693  0.86712  0.12623  1.0000
  C   C227      1.0  0.35793  0.72138  0.32981  1.0000
  N   N18       1.0  0.08273  0.91643  0.11006  1.0000
  H   H282      1.0  0.07507  0.86578  0.04908  1.0000
  H   H283      1.0  0.30675  0.71028  0.00580  1.0000
  H   H284      1.0  0.10384  0.66053  0.03410  1.0000
  H   H285      1.0  0.35100  0.57062  0.19673  1.0000
  H   H286      1.0  0.08917  0.82509  0.06912  1.0000
  C   C228      1.0  0.34173  0.50916  0.04192  1.0000
  C   C229      1.0  0.08114  0.86660  0.06602  1.0000
  H   H287      1.0  0.36567  0.73981  0.32365  1.0000
  H   H288      1.0  0.18144  0.72498  0.00149  1.0000
  C   C230      1.0  0.19788  0.52044  0.04625  1.0000
  H   H289      1.0  0.11875  0.99717  0.17380  1.0000
  H   H290      1.0  0.48578  0.72554  0.28787  1.0000
  C   C231      1.0  0.23427  0.51633  0.01826  1.0000
  C   C232      1.0  0.21943  0.53183  0.03253  1.0000
  C   C233      1.0  0.99853  0.84091  0.27560  1.0000
  H   H291      1.0  0.35955  0.70482  0.00546  1.0000
  S   S67       1.0  0.40073  0.62069  0.00609  1.0000
  C   C234      1.0  0.99780  0.82556  0.10385  1.0000
  C   C235      1.0  0.99920  0.80181  0.09312  1.0000
  C   C236      1.0  0.34171  0.67546  0.32531  1.0000
  H   H292      1.0  0.49129  0.69684  0.30342  1.0000
  Fe  Fe36      1.0  0.00551  0.73384  0.00139  1.0000
  H   H293      1.0  0.01085  0.88249  0.28151  1.0000
  C   C237      1.0  0.47679  0.71646  0.30164  1.0000
  H   H294      1.0  0.44726  0.68560  0.32482  1.0000
  H   H295      1.0  0.48093  0.77291  0.32930  1.0000
  C   C238      1.0  0.44555  0.63089  0.99721  1.0000
  H   H296      1.0  0.15753  0.77998  0.38062  1.0000
  C   C239      1.0  0.41138  0.53425  0.46047  1.0000
  Fe  Fe37      1.0  0.14045  0.86056  0.64599  1.0000
  S   S68       1.0  0.13737  0.83892  0.61474  1.0000
  Fe  Fe38      1.0  0.34447  0.64120  0.45140  1.0000
  S   S69       1.0  0.36747  0.63067  0.42260  1.0000
  S   S70       1.0  0.38350  0.63947  0.48440  1.0000
  Fe  Fe39      1.0  0.25399  0.64479  0.42796  1.0000
  S   S71       1.0  0.27091  0.63403  0.39725  1.0000
  S   S72       1.0  0.18461  0.65005  0.42692  1.0000
  Fe  Fe40      1.0  0.31248  0.60354  0.41552  1.0000
  S   S73       1.0  0.32181  0.56299  0.40236  1.0000
  Fe  Fe41      1.0  0.32436  0.66184  0.40651  1.0000
  S   S74       1.0  0.34359  0.69435  0.38647  1.0000
  S   S75       1.0  0.29193  0.61219  0.44528  1.0000
  S   S76       1.0  0.30507  0.67451  0.43626  1.0000
  Fe  Fe42      1.0  0.02701  0.72754  0.48875  1.0000
  H   H297      1.0  0.10116  0.77409  0.47085  1.0000
  S   S77       1.0  0.09079  0.70920  0.48998  1.0000
  H   H298      1.0  0.35844  0.73416  0.64593  1.0000
  C   C240      1.0  0.35457  0.71959  0.35091  1.0000
  C   C241      1.0  0.19255  0.53899  0.39319  1.0000
  C   C242      1.0  0.31404  0.53096  0.41125  1.0000
  C   C243      1.0  0.29567  0.52640  0.42824  1.0000
  C   C244      1.0  0.42440  0.71743  0.53521  1.0000
  H   H299      1.0  0.28672  0.54264  0.43686  1.0000
  H   H300      1.0  0.41361  0.60033  0.45986  1.0000
  C   C245      1.0  0.11586  0.69194  0.47240  1.0000
  C   C246      1.0  0.09414  0.67988  0.45406  1.0000
  C   C247      1.0  0.11566  0.66705  0.44046  1.0000
  C   C248      1.0  0.15916  0.66601  0.44497  1.0000
  C   C249      1.0  0.18085  0.67790  0.46337  1.0000
  C   C250      1.0  0.15932  0.69064  0.47699  1.0000
  H   H301      1.0  0.06076  0.68034  0.45037  1.0000
  H   H302      1.0  0.09846  0.65791  0.42632  1.0000
  H   H303      1.0  0.21423  0.67729  0.46714  1.0000
  H   H304      1.0  0.17656  0.69971  0.49117  1.0000
  C   C251      1.0  0.21419  0.52590  0.37961  1.0000
  H   H305      1.0  0.18269  0.70847  0.41449  1.0000
  H   H306      1.0  0.19692  0.60244  0.37628  1.0000
  C   C252      1.0  0.34478  0.69575  0.35937  1.0000
  C   C253      1.0  0.33801  0.67371  0.34634  1.0000
  H   H307      1.0  0.23227  0.81547  0.63609  1.0000
  H   H308      1.0  0.05629  0.79847  0.44502  1.0000
  H   H309      1.0  0.33058  0.65524  0.35255  1.0000
  S   S78       1.0  0.20440  0.87559  0.66095  1.0000
  C   C254      1.0  0.11913  0.76692  0.45946  1.0000
  C   C255      1.0  0.45755  0.65778  0.47684  1.0000
  C   C256      1.0  0.43749  0.64459  0.49045  1.0000
  C   C257      1.0  0.46056  0.63607  0.50978  1.0000
  C   C258      1.0  0.45716  0.69692  0.33899  1.0000
  H   H310      1.0  0.44002  0.66458  0.46197  1.0000
  H   H311      1.0  0.44521  0.62584  0.52038  1.0000
  C   C259      1.0  0.16717  0.72722  0.41222  1.0000
  H   H312      1.0  0.47255  0.52594  0.49047  1.0000
  C   C260      1.0  0.09601  0.82685  0.59474  1.0000
  C   C261      1.0  0.10547  0.81222  0.57809  1.0000
  C   C262      1.0  0.07401  0.80259  0.56166  1.0000
  C   C263      1.0  0.03252  0.80766  0.56155  1.0000
  C   C264      1.0  0.02303  0.82206  0.57831  1.0000
  C   C265      1.0  0.05448  0.83151  0.59483  1.0000
  H   H313      1.0  0.13742  0.80856  0.57775  1.0000
  H   H314      1.0  0.08193  0.79164  0.54891  1.0000
  N   N19       1.0  0.18716  0.56768  0.39318  1.0000
  H   H315      1.0  0.04660  0.84278  0.60743  1.0000
  H   H316      1.0  0.37154  0.57814  0.45218  1.0000
  C   C266      1.0  0.29610  0.74115  0.62913  1.0000
  C   C267      1.0  0.45486  0.70106  0.37557  1.0000
  H   H317      1.0  0.12413  0.56542  0.37614  1.0000
  H   H318      1.0  0.18641  0.78288  0.61548  1.0000
  C   C268      1.0  0.07596  0.79343  0.43371  1.0000
  H   H319      1.0  0.34039  0.51264  0.38742  1.0000
  C   C269      1.0  0.21006  0.57859  0.41334  1.0000
  C   C270      1.0  0.12711  0.77540  0.40642  1.0000
  N   N20       1.0  0.21293  0.77990  0.64856  1.0000
  H   H320      1.0  0.36003  0.73675  0.36083  1.0000
  H   H321      1.0  0.19204  0.81930  0.65018  1.0000
  H   H322      1.0  0.30024  0.73091  0.61519  1.0000
  C   C271      1.0  0.43615  0.72624  0.55582  1.0000
  H   H323      1.0  0.48415  0.60220  0.46327  1.0000
  H   H324      1.0  0.20717  0.60020  0.41395  1.0000
  C   C272      1.0  0.12088  0.75936  0.42313  1.0000
  C   C273      1.0  0.17293  0.74344  0.39611  1.0000
  H   H325      1.0  0.12980  0.56769  0.40403  1.0000
  C   C274      1.0  0.20257  0.58101  0.37624  1.0000
  H   H326      1.0  0.41303  0.73415  0.56357  1.0000
  C   C275      1.0  0.25196  0.76638  0.64769  1.0000
  H   H327      1.0  0.40355  0.53170  0.47603  1.0000
  C   C276      1.0  0.05984  0.74815  0.43590  1.0000
  C   C277      1.0  0.32607  0.50938  0.40056  1.0000
  S   S79       1.0  0.02775  0.77151  0.48730  1.0000
  C   C278      1.0  0.47161  0.56325  0.47393  1.0000
  H   H328      1.0  0.07071  0.72815  0.44031  1.0000
  H   H329      1.0  0.19304  0.73736  0.38591  1.0000
  S   S80       1.0  0.10967  0.89660  0.65567  1.0000
  H   H330      1.0  0.23429  0.75105  0.61558  1.0000
  H   H331      1.0  0.16181  0.53194  0.41900  1.0000
  H   H332      1.0  0.40821  0.55881  0.42547  1.0000
  H   H333      1.0  0.11252  0.79417  0.40328  1.0000
  C   C279      1.0  0.48823  0.54410  0.48904  1.0000
  C   C280      1.0  0.14161  0.73501  0.42552  1.0000
  H   H334      1.0  0.14712  0.77945  0.46107  1.0000
  C   C281      1.0  0.22069  0.80837  0.64982  1.0000
  H   H335      1.0  0.38173  0.53229  0.44872  1.0000
  H   H336      1.0  0.22861  0.53615  0.36869  1.0000
  H   H337      1.0  0.13830  0.72179  0.43780  1.0000
  C   C282      1.0  0.43752  0.56237  0.43720  1.0000
  C   C283      1.0  0.25815  0.75278  0.62961  1.0000
  C   C284      1.0  0.14283  0.57433  0.39067  1.0000
  H   H338      1.0  0.42827  0.66909  0.35591  1.0000
  H   H339      1.0  0.23662  0.57871  0.37814  1.0000
  H   H340      1.0  0.04089  0.74735  0.41968  1.0000
  C   C285      1.0  0.15290  0.76744  0.39320  1.0000
  C   C286      1.0  0.17906  0.77484  0.63003  1.0000
  H   H341      1.0  0.24346  0.57395  0.41576  1.0000
  H   H342      1.0  0.44795  0.58223  0.43387  1.0000
  C   C287      1.0  0.45386  0.70716  0.52519  1.0000
  H   H343      1.0  0.03879  0.75345  0.44637  1.0000
  H   H344      1.0  0.13793  0.59587  0.38989  1.0000
  H   H345      1.0  0.12951  0.74703  0.46480  1.0000
  N   N21       1.0  0.43153  0.55990  0.45892  1.0000
  C   C288      1.0  0.40258  0.58046  0.46267  1.0000
  H   H346      1.0  0.19883  0.57090  0.42694  1.0000
  C   C289      1.0  0.32891  0.74291  0.64641  1.0000
  H   H347      1.0  0.18701  0.57347  0.36056  1.0000
  N   N22       1.0  0.09438  0.76706  0.43770  1.0000
  H   H348      1.0  0.05504  0.79455  0.41798  1.0000
  H   H349      1.0  0.14990  0.78478  0.63150  1.0000
  H   H350      1.0  0.39852  0.58027  0.47912  1.0000
  C   C290      1.0  0.44586  0.68710  0.35684  1.0000
  H   H351      1.0  0.10011  0.80886  0.43526  1.0000
  H   H352      1.0  0.44417  0.69387  0.38904  1.0000
  H   H353      1.0  0.12836  0.96720  0.64942  1.0000
  H   H354      1.0  0.17197  0.75366  0.62787  1.0000
  C   C291      1.0  0.17726  0.52332  0.40769  1.0000
  C   C292      1.0  0.14658  0.98419  0.65548  1.0000
  H   H355      1.0  0.46074  0.54814  0.43401  1.0000
  H   H356      1.0  0.39236  0.71835  0.52700  1.0000
  H   H357      1.0  0.44460  0.69996  0.50923  1.0000
  H   H358      1.0  0.43118  0.51780  0.45744  1.0000
  C   C293      1.0  0.47865  0.72109  0.33954  1.0000
  C   C294      1.0  0.48832  0.73447  0.35905  1.0000
  H   H359      1.0  0.48416  0.73136  0.58258  1.0000
  C   C295      1.0  0.47629  0.72462  0.37672  1.0000
  H   H360      1.0  0.48280  0.73553  0.39130  1.0000
  C   C296      1.0  0.47737  0.72456  0.56658  1.0000
  C   C297      1.0  0.49516  0.58646  0.47389  1.0000
  C   C298      1.0  0.49513  0.70562  0.53572  1.0000
  C   C299      1.0  0.28805  0.50061  0.43389  1.0000
  Fe  Fe43      1.0  0.10744  0.87431  0.68519  1.0000
  S   S81       1.0  0.04676  0.87700  0.69638  1.0000
  Fe  Fe44      1.0  0.19669  0.85412  0.68949  1.0000
  S   S82       1.0  0.24594  0.82784  0.70931  1.0000
  H   H361      1.0  0.37119  0.82788  0.67934  1.0000
  C   C300      1.0  0.27402  0.69962  0.96654  1.0000
  S   S83       1.0  0.16906  0.88884  0.70286  1.0000
  H   H362      1.0  0.30486  0.79400  0.73470  1.0000
  S   S84       1.0  0.43008  0.79423  0.70460  1.0000
  H   H363      1.0  0.29566  0.95069  0.70382  1.0000
  C   C301      1.0  0.35242  0.89479  0.71147  1.0000
  C   C302      1.0  0.38972  0.85992  0.73320  1.0000
  N   N23       1.0  0.31495  0.91054  0.70367  1.0000
  H   H364      1.0  0.10208  0.82791  0.84659  1.0000
  C   C303      1.0  0.45254  0.62055  0.97828  1.0000
  H   H365      1.0  0.38978  0.91381  0.69213  1.0000
  C   C304      1.0  0.42413  0.86386  0.72458  1.0000
  S   S85       1.0  0.20426  0.94977  0.67805  1.0000
  C   C305      1.0  0.38862  0.89890  0.70357  1.0000
  H   H366      1.0  0.45058  0.88633  0.70321  1.0000
  H   H367      1.0  0.02708  0.84597  0.92101  1.0000
  C   C306      1.0  0.37884  0.80301  0.70629  1.0000
  C   C307      1.0  0.35972  0.79353  0.72185  1.0000
  C   C308      1.0  0.31926  0.80151  0.72258  1.0000
  C   C309      1.0  0.29730  0.81901  0.70782  1.0000
  C   C310      1.0  0.31640  0.82841  0.69222  1.0000
  C   C311      1.0  0.35675  0.82039  0.69145  1.0000
  H   H368      1.0  0.37613  0.78013  0.73336  1.0000
  H   H369      1.0  0.27297  0.91853  0.67430  1.0000
  C   C312      1.0  0.11652  0.97961  0.70375  1.0000
  H   H370      1.0  0.30587  0.70664  0.93495  1.0000
  C   C313      1.0  0.03767  0.87363  0.72204  1.0000
  C   C314      1.0  0.06900  0.86708  0.73916  1.0000
  C   C315      1.0  0.06004  0.86432  0.75917  1.0000
  C   C316      1.0  0.01978  0.86818  0.76232  1.0000
  H   H371      1.0  0.14497  0.96877  0.70489  1.0000
  H   H372      1.0  0.29791  0.88739  0.67563  1.0000
  H   H373      1.0  0.10006  0.86400  0.73697  1.0000
  H   H374      1.0  0.08447  0.85915  0.77226  1.0000
  C   C317      1.0  0.41844  0.68746  0.95972  1.0000
  C   C318      1.0  0.27903  0.90247  0.71239  1.0000
  N   N24       1.0  0.04266  0.84073  0.85142  1.0000
  H   H375      1.0  0.28522  0.90489  0.72966  1.0000
  S   S86       1.0  0.00990  0.86427  0.78780  1.0000
  S   S87       1.0  0.13415  0.83759  0.67434  1.0000
  C   C319      1.0  0.04921  0.83159  0.87329  1.0000
  H   H376      1.0  0.47851  0.54166  0.94574  1.0000
  C   C320      1.0  0.03435  0.84535  0.88911  1.0000
  C   C321      1.0  0.07505  0.79806  0.89946  1.0000
  H   H377      1.0  0.30908  0.65076  0.97226  1.0000
  C   C322      1.0  0.33678  0.70117  0.94258  1.0000
  H   H378      1.0  0.01233  0.82723  0.82061  1.0000
  H   H379      1.0  0.25204  0.69850  0.97728  1.0000
  Fe  Fe45      1.0  0.48754  0.77013  0.71932  1.0000
  H   H380      1.0  0.01726  0.86335  0.88615  1.0000
  H   H381      1.0  0.09023  0.77952  0.90350  1.0000
  C   C323      1.0  0.31449  0.66534  0.98524  1.0000
  H   H382      1.0  0.30014  0.84177  0.68070  1.0000
  H   H383      1.0  0.24340  0.81407  0.66417  1.0000
  H   H384      1.0  0.21854  0.77851  0.68219  1.0000
  C   C324      1.0  0.02021  0.82040  0.83710  1.0000
  H   H385      1.0  0.16720  0.78034  0.66766  1.0000
  H   H386      1.0  0.10112  0.86068  0.85641  1.0000
  N   N25       1.0  0.31651  0.69227  0.97735  1.0000
  C   C325      1.0  0.35425  0.87500  0.72678  1.0000
  H   H387      1.0  0.27281  0.72006  0.96085  1.0000
  H   H388      1.0  0.25131  0.91448  0.70614  1.0000
  H   H389      1.0  0.03854  0.80236  0.83690  1.0000
  H   H390      1.0  0.38993  0.84427  0.74429  1.0000
  S   S88       1.0  0.02371  0.77402  0.99277  1.0000
  Fe  Fe46      1.0  0.17279  0.90955  0.67304  1.0000
  C   C326      1.0  0.07941  0.96612  0.70199  1.0000
  H   H391      1.0  0.32827  0.87006  0.73356  1.0000
  C   C327      1.0  0.05948  0.81179  0.91446  1.0000
  H   H392      1.0  0.01388  0.87152  0.83110  1.0000
  C   C328      1.0  0.48721  0.62823  0.97037  1.0000
  H   H393      1.0  0.01383  0.96923  0.69846  1.0000
  H   H394      1.0  0.43069  0.60670  0.96954  1.0000
  H   H395      1.0  0.26174  0.68615  0.95325  1.0000
  C   C329      1.0  0.18434  0.98106  0.66960  1.0000
  H   H396      1.0  0.27012  0.88182  0.70831  1.0000
  C   C330      1.0  0.32363  0.93839  0.70924  1.0000
  C   C331      1.0  0.19793  0.77177  0.66737  1.0000
  C   C332      1.0  0.30247  0.90817  0.68057  1.0000
  H   H397      1.0  0.06200  0.80382  0.92998  1.0000
  H   H398      1.0  0.08275  0.79643  0.86808  1.0000
  C   C333      1.0  0.36666  0.70189  0.93038  1.0000
  C   C334      1.0  0.42373  0.88346  0.70992  1.0000
  H   H399      1.0  0.45015  0.68209  0.96631  1.0000
  H   H400      1.0  0.03385  0.88167  0.85732  1.0000
  C   C335      1.0  0.40738  0.69506  0.93893  1.0000
  H   H401      1.0  0.07878  0.85316  0.82947  1.0000
  H   H402      1.0  0.34822  0.94656  0.70197  1.0000
  H   H403      1.0  0.45083  0.85128  0.72895  1.0000
  H   H404      1.0  0.49171  0.62045  0.95565  1.0000
  C   C336      1.0  0.07037  0.80785  0.87921  1.0000
  H   H405      1.0  0.19509  0.75017  0.66801  1.0000
  C   C337      1.0  0.08298  0.84578  0.84580  1.0000
  H   H406      1.0  0.33363  0.94101  0.72646  1.0000
  C   C338      1.0  0.28603  0.76764  0.66500  1.0000
  C   C339      1.0  0.03972  0.83553  0.90937  1.0000
  C   C340      1.0  0.34710  0.69340  0.96388  1.0000
  H   H407      1.0  0.35825  0.70772  0.91414  1.0000
  H   H408      1.0  0.34338  0.65977  0.99623  1.0000
  H   H409      1.0  0.28390  0.77790  0.67915  1.0000
  H   H410      1.0  0.43050  0.69552  0.92945  1.0000
  H   H411      1.0  0.07908  0.94491  0.70194  1.0000
  C   C341      1.0  0.04265  0.97989  0.69999  1.0000
  C   C342      1.0  0.38886  0.68651  0.97203  1.0000
  H   H412      1.0  0.28945  0.66302  0.99401  1.0000
  C   C343      1.0  0.01826  0.86514  0.84763  1.0000
  H   H413      1.0  0.39897  0.68010  0.98800  1.0000
  H   H414      1.0  0.34967  0.75787  0.67765  1.0000
  C   C344      1.0  0.99744  0.87751  0.72522  1.0000
  H   H415      1.0  0.32545  0.91676  0.67247  1.0000
  H   H416      1.0  0.48925  0.50577  0.96886  1.0000
  H   H417      1.0  0.33227  0.73068  0.99015  1.0000
  C   C345      1.0  0.32936  0.71030  0.99542  1.0000
  H   H418      1.0  0.49353  0.54567  0.98362  1.0000
  C   C346      1.0  0.32389  0.75617  0.66429  1.0000
  H   H419      1.0  0.99313  0.07094  0.19865  1.0000
  S   S89       1.0  0.73282  0.12539  0.28202  1.0000
  H   H420      1.0  0.96802  0.19222  0.17392  1.0000
  S   S90       1.0  0.79179  0.17160  0.30759  1.0000
  Fe  Fe47      1.0  0.72646  0.15678  0.30519  1.0000
  S   S91       1.0  0.67206  0.18317  0.30857  1.0000
  Fe  Fe48      1.0  0.79970  0.13758  0.28632  1.0000
  S   S92       1.0  0.81991  0.13544  0.25491  1.0000
  H   H421      1.0  0.77782  0.19662  0.19745  1.0000
  N   N26       1.0  0.60765  0.10353  0.30912  1.0000
  C   C347      1.0  0.76179  0.02616  0.25903  1.0000
  H   H422      1.0  0.80852  0.04258  0.31861  1.0000
  C   C348      1.0  0.63507  0.11000  0.29473  1.0000
  H   H423      1.0  0.92997  0.19447  0.22161  1.0000
  H   H424      1.0  0.91744  0.21829  0.15238  1.0000
  H   H425      1.0  0.96640  0.00366  0.15479  1.0000
  H   H426      1.0  0.51349  0.25670  0.15286  1.0000
  H   H427      1.0  0.97208  0.14446  0.26976  1.0000
  H   H428      1.0  0.83188  0.08237  0.23552  1.0000
  S   S93       1.0  0.97802  0.18588  0.13215  1.0000
  H   H429      1.0  0.53607  0.22611  0.29494  1.0000
  H   H430      1.0  0.62723  0.09811  0.28013  1.0000
  C   C349      1.0  0.78890  0.02552  0.31521  1.0000
  C   C350      1.0  0.80873  0.06066  0.27335  1.0000
  H   H431      1.0  0.81017  0.19509  0.23513  1.0000
  H   H432      1.0  0.52779  0.32074  0.07542  1.0000
  H   H433      1.0  0.78228  0.01195  0.26908  1.0000
  C   C351      1.0  0.62361  0.19170  0.29212  1.0000
  C   C352      1.0  0.59616  0.20754  0.30035  1.0000
  C   C353      1.0  0.55678  0.21402  0.28832  1.0000
  C   C354      1.0  0.54412  0.20466  0.26781  1.0000
  C   C355      1.0  0.57164  0.18883  0.25959  1.0000
  C   C356      1.0  0.61114  0.18251  0.27155  1.0000
  H   H434      1.0  0.60523  0.21480  0.31621  1.0000
  H   H435      1.0  0.56226  0.18141  0.24377  1.0000
  H   H436      1.0  0.63173  0.17043  0.26486  1.0000
  C   C357      1.0  0.86974  0.13488  0.24879  1.0000
  C   C358      1.0  0.87287  0.13050  0.22791  1.0000
  C   C359      1.0  0.91150  0.13109  0.22211  1.0000
  C   C360      1.0  0.94749  0.13648  0.23710  1.0000
  C   C361      1.0  0.94443  0.14037  0.25801  1.0000
  C   C362      1.0  0.90588  0.13946  0.26386  1.0000
  H   H437      1.0  0.84510  0.12714  0.21608  1.0000
  H   H438      1.0  0.91333  0.12793  0.20602  1.0000
  H   H439      1.0  0.94778  0.06076  0.20712  1.0000
  H   H440      1.0  0.90409  0.14287  0.27996  1.0000
  C   C363      1.0  0.85021  0.01027  0.22224  1.0000
  H   H441      1.0  0.89054  0.02581  0.20362  1.0000
  C   C364      1.0  0.55013  0.13304  0.29175  1.0000
  S   S94       1.0  0.97538  0.12478  0.16890  1.0000
  H   H442      1.0  0.94259  0.22461  0.10195  1.0000
  C   C365      1.0  0.82299  0.01591  0.23530  1.0000
  C   C366      1.0  0.99066  0.20176  0.06433  1.0000
  H   H443      1.0  0.96156  0.21020  0.19629  1.0000
  C   C367      1.0  0.61674  0.07626  0.31623  1.0000
  N   N27       1.0  0.90492  0.19461  0.17747  1.0000
  H   H444      1.0  0.73829  0.06111  0.22742  1.0000
  H   H445      1.0  0.95776  0.17491  0.19586  1.0000
  H   H446      1.0  0.82040  0.19693  0.17125  1.0000
  C   C368      1.0  0.87962  0.19571  0.19356  1.0000
  C   C369      1.0  0.89710  0.19554  0.21539  1.0000
  C   C370      1.0  0.83587  0.19658  0.18753  1.0000
  C   C371      1.0  0.87211  0.19574  0.23008  1.0000
  C   C372      1.0  0.81119  0.19652  0.20239  1.0000
  C   C373      1.0  0.82930  0.19591  0.22362  1.0000
  H   H447      1.0  0.66795  0.10616  0.30206  1.0000
  C   C374      1.0  0.89795  0.21834  0.16435  1.0000
  H   H448      1.0  0.64948  0.07398  0.32477  1.0000
  H   H449      1.0  0.73853  0.03213  0.26813  1.0000
  H   H450      1.0  0.52997  0.28112  0.09305  1.0000
  C   C375      1.0  0.83579  0.06206  0.23186  1.0000
  H   H451      1.0  0.83221  0.04686  0.28187  1.0000
  H   H452      1.0  0.94840  0.23325  0.06535  1.0000
  H   H453      1.0  0.49990  0.15707  0.27589  1.0000
  H   H454      1.0  0.61280  0.06232  0.30283  1.0000
  H   H455      1.0  0.91285  0.16921  0.15217  1.0000
  C   C376      1.0  0.86981  0.03037  0.21387  1.0000
  H   H456      1.0  0.87825  0.07197  0.21247  1.0000
  Fe  Fe49      1.0  0.97249  0.23516  0.01133  1.0000
  H   H457      1.0  0.54270  0.06692  0.29734  1.0000
  C   C377      1.0  0.50569  0.26988  0.13973  1.0000
  H   H458      1.0  0.74448  0.01590  0.24481  1.0000
  H   H459      1.0  0.54726  0.25214  0.12278  1.0000
  C   C378      1.0  0.94994  0.19290  0.18640  1.0000
  N   N28       1.0  0.78525  0.04895  0.25363  1.0000
  C   C379      1.0  0.86284  0.05624  0.21880  1.0000
  H   H460      1.0  0.82513  0.07890  0.27067  1.0000
  C   C380      1.0  0.89300  0.17138  0.16384  1.0000
  S   S95       1.0  0.82201  0.10965  0.31272  1.0000
  S   S96       1.0  0.99534  0.20626  0.03798  1.0000
  C   C381      1.0  0.81428  0.04213  0.24014  1.0000
  H   H461      1.0  0.89590  0.15319  0.17321  1.0000
  H   H462      1.0  0.73084  0.07253  0.25242  1.0000
  H   H463      1.0  0.90564  0.23632  0.17405  1.0000
  H   H464      1.0  0.59701  0.06997  0.32708  1.0000
  H   H465      1.0  0.63311  0.13091  0.29020  1.0000
  H   H466      1.0  0.78793  0.06593  0.28397  1.0000
  H   H467      1.0  0.68783  0.00766  0.30264  1.0000
  S   S97       1.0  0.72213  0.05955  0.30732  1.0000
  C   C382      1.0  0.56414  0.10766  0.29827  1.0000
  H   H468      1.0  0.57052  0.14971  0.29477  1.0000
  C   C383      1.0  0.74597  0.02833  0.31033  1.0000
  Fe  Fe50      1.0  0.75508  0.09900  0.30935  1.0000
  C   C384      1.0  0.51434  0.28423  0.10571  1.0000
  H   H469      1.0  0.86547  0.21999  0.15558  1.0000
  C   C385      1.0  0.96569  0.21751  0.07399  1.0000
  H   H470      1.0  0.96963  0.03592  0.25949  1.0000
  C   C386      1.0  0.75455  0.06829  0.24310  1.0000
  C   C387      1.0  0.53496  0.08693  0.29325  1.0000
  H   H471      1.0  0.88601  0.19476  0.24663  1.0000
  H   H472      1.0  0.76875  0.08754  0.24107  1.0000
  C   C388      1.0  0.96244  0.21252  0.09477  1.0000
  C   C389      1.0  0.72107  0.00578  0.30644  1.0000
  H   H473      1.0  0.86081  0.17240  0.15461  1.0000
  C   C390      1.0  0.52461  0.26736  0.12276  1.0000
  H   H474      1.0  0.51280  0.35252  0.10268  1.0000
  C   C391      1.0  0.61843  0.12079  0.32781  1.0000
  H   H475      1.0  0.61800  0.14183  0.32368  1.0000
  C   C392      1.0  0.98365  0.02014  0.23051  1.0000
  C   C393      1.0  0.96783  0.01937  0.24905  1.0000
  C   C394      1.0  0.98417  0.19185  0.10620  1.0000
  C   C395      1.0  0.50965  0.13747  0.28092  1.0000
  H   H476      1.0  0.97211  0.03923  0.19181  1.0000
  C   C396      1.0  0.97811  0.05400  0.20461  1.0000
  S   S98       1.0  0.98700  0.27830  0.01260  1.0000
  H   H477      1.0  0.98104  0.07294  0.24258  1.0000
  H   H478      1.0  0.68459  0.23967  0.36409  1.0000
  S   S99       1.0  0.85025  0.14850  0.36677  1.0000
  H   H479      1.0  0.55358  0.42494  0.60638  1.0000
  H   H480      1.0  0.72960  0.49484  0.60051  1.0000
  Fe  Fe51      1.0  0.68207  0.40316  0.57317  1.0000
  S   S100      1.0  0.67744  0.39296  0.53933  1.0000
  S   S101      1.0  0.70973  0.44180  0.58711  1.0000
  Fe  Fe52      1.0  0.63524  0.35400  0.58191  1.0000
  S   S102      1.0  0.62652  0.34102  0.54822  1.0000
  S   S103      1.0  0.60303  0.32661  0.60131  1.0000
  Fe  Fe53      1.0  0.69342  0.35195  0.55044  1.0000
  S   S104      1.0  0.72756  0.32170  0.53431  1.0000
  Fe  Fe54      1.0  0.61170  0.38259  0.53973  1.0000
  S   S105      1.0  0.56197  0.39904  0.51381  1.0000
  S   S106      1.0  0.70312  0.36262  0.58473  1.0000
  S   S107      1.0  0.61560  0.39511  0.57293  1.0000
  Fe  Fe55      1.0  0.95291  0.24838  0.46469  1.0000
  S   S108      1.0  0.96070  0.29173  0.47106  1.0000
  S   S109      1.0  0.91531  0.24224  0.43101  1.0000
  Fe  Fe56      1.0  0.94755  0.28359  0.50265  1.0000
  S   S110      1.0  0.91223  0.31203  0.51964  1.0000
  S   S111      1.0  0.93564  0.24081  0.49581  1.0000
  C   C397      1.0  0.54214  0.42728  0.58980  1.0000
  C   C398      1.0  0.76017  0.22519  0.38688  1.0000
  H   H481      1.0  0.55205  0.47202  0.55300  1.0000
  C   C399      1.0  0.77906  0.31960  0.53031  1.0000
  C   C400      1.0  0.78968  0.29847  0.51863  1.0000
  C   C401      1.0  0.83001  0.29589  0.51500  1.0000
  C   C402      1.0  0.86041  0.31443  0.52311  1.0000
  C   C403      1.0  0.84989  0.33544  0.53490  1.0000
  C   C404      1.0  0.80953  0.33808  0.53844  1.0000
  H   H482      1.0  0.76641  0.28406  0.51225  1.0000
  H   H483      1.0  0.83743  0.27967  0.50585  1.0000
  H   H484      1.0  0.87310  0.34988  0.54130  1.0000
  H   H485      1.0  0.80199  0.35440  0.54747  1.0000
  C   C405      1.0  0.53402  0.30935  0.45635  1.0000
  C   C406      1.0  0.94841  0.23307  0.60230  1.0000
  C   C407      1.0  0.61082  0.34516  0.64224  1.0000
  C   C408      1.0  0.59659  0.32537  0.62763  1.0000
  C   C409      1.0  0.57502  0.30411  0.63379  1.0000
  C   C410      1.0  0.70374  0.49552  0.58728  1.0000
  H   H486      1.0  0.93473  0.28273  0.58428  1.0000
  H   H487      1.0  0.62750  0.36163  0.63783  1.0000
  C   C411      1.0  0.74365  0.18574  0.36449  1.0000
  C   C412      1.0  0.86955  0.17495  0.38407  1.0000
  C   C413      1.0  0.88958  0.16942  0.40480  1.0000
  C   C414      1.0  0.90458  0.18961  0.41927  1.0000
  C   C415      1.0  0.89955  0.21573  0.41321  1.0000
  C   C416      1.0  0.87989  0.22128  0.39241  1.0000
  C   C417      1.0  0.86521  0.20106  0.37791  1.0000
  H   H488      1.0  0.89337  0.14931  0.40975  1.0000
  H   H489      1.0  0.91950  0.18492  0.43516  1.0000
  H   H490      1.0  0.87556  0.24138  0.38754  1.0000
  H   H491      1.0  0.85072  0.20563  0.36197  1.0000
  C   C418      1.0  0.51802  0.40779  0.57708  1.0000
  C   C419      1.0  0.68693  0.47203  0.57782  1.0000
  H   H492      1.0  0.79352  0.46981  0.56889  1.0000
  C   C420      1.0  0.63741  0.49749  0.55307  1.0000
  C   C421      1.0  0.57781  0.35230  0.47619  1.0000
  H   H493      1.0  0.82118  0.25602  0.43954  1.0000
  C   C422      1.0  0.71778  0.48390  0.52693  1.0000
  C   C423      1.0  0.69250  0.21861  0.36447  1.0000
  H   H494      1.0  0.54632  0.36086  0.56980  1.0000
  H   H495      1.0  0.88332  0.25190  0.53585  1.0000
  C   C424      1.0  0.94512  0.22853  0.58055  1.0000
  H   H496      1.0  0.93846  0.29152  0.41659  1.0000
  H   H497      1.0  0.69227  0.47442  0.51632  1.0000
  C   C425      1.0  0.78466  0.20966  0.40274  1.0000
  H   H498      1.0  0.61695  0.32446  0.49526  1.0000
  C   C426      1.0  0.56760  0.30262  0.65420  1.0000
  H   H499      1.0  0.57831  0.28625  0.47772  1.0000
  C   C427      1.0  0.54315  0.35617  0.46009  1.0000
  C   C428      1.0  0.65334  0.47316  0.56080  1.0000
  H   H500      1.0  0.57417  0.46421  0.59085  1.0000
  H   H501      1.0  0.61194  0.49808  0.53966  1.0000
  H   H502      1.0  0.98956  0.26550  0.56762  1.0000
  H   H503      1.0  0.49622  0.30417  0.41460  1.0000
  H   H504      1.0  0.73292  0.17443  0.37677  1.0000
  C   C429      1.0  0.75112  0.22722  0.34913  1.0000
  C   C430      1.0  0.77965  0.26322  0.41003  1.0000
  C   C431      1.0  0.52020  0.33470  0.44957  1.0000
  C   C432      1.0  0.89683  0.23694  0.54761  1.0000
  H   H505      1.0  0.56385  0.37816  0.60797  1.0000
  C   C433      1.0  0.51383  0.38363  0.50478  1.0000
  H   H506      1.0  0.68119  0.20967  0.37766  1.0000
  C   C434      1.0  0.91120  0.27162  0.57281  1.0000
  C   C435      1.0  0.75808  0.25230  0.39119  1.0000
  H   H507      1.0  0.50755  0.43978  0.53034  1.0000
  H   H508      1.0  0.56369  0.28872  0.62263  1.0000
  N   N29       1.0  0.92930  0.24836  0.56452  1.0000
  H   H509      1.0  0.87124  0.22846  0.55404  1.0000
  H   H510      1.0  0.64015  0.45527  0.55332  1.0000
  H   H511      1.0  0.73747  0.44846  0.54350  1.0000
  C   C436      1.0  0.80361  0.24749  0.42514  1.0000
  C   C437      1.0  0.54169  0.45463  0.55974  1.0000
  H   H512      1.0  0.74350  0.24832  0.34812  1.0000
  C   C438      1.0  0.51656  0.43651  0.54704  1.0000
  C   C439      1.0  0.51419  0.36041  0.57229  1.0000
  H   H513      1.0  0.59478  0.36894  0.48411  1.0000
  H   H514      1.0  0.82529  0.20875  0.43322  1.0000
  C   C440      1.0  0.50447  0.41356  0.55553  1.0000
  C   C441      1.0  0.55410  0.45017  0.58110  1.0000
  C   C442      1.0  0.98279  0.26973  0.39330  1.0000
  C   C443      1.0  0.96391  0.25748  0.55537  1.0000
  H   H515      1.0  0.78910  0.18898  0.40086  1.0000
  C   C444      1.0  0.74327  0.46918  0.54221  1.0000
  H   H516      1.0  0.93791  0.25086  0.60831  1.0000
  H   H517      1.0  0.89865  0.28577  0.56018  1.0000
  H   H518      1.0  0.67437  0.20995  0.34964  1.0000
  H   H519      1.0  0.74000  0.26530  0.37994  1.0000
  C   C445      1.0  0.80577  0.22078  0.42158  1.0000
  N   N30       1.0  0.73744  0.21422  0.36669  1.0000
  H   H520      1.0  0.77816  0.28401  0.41291  1.0000
  H   H521      1.0  0.59661  0.11787  0.33836  1.0000
  H   H522      1.0  0.53482  0.37622  0.45647  1.0000
  C   C446      1.0  0.97832  0.18612  0.58964  1.0000
  H   H523      1.0  0.49812  0.37633  0.42240  1.0000
  C   C447      1.0  0.59032  0.32720  0.48254  1.0000
  C   C448      1.0  0.56846  0.30575  0.47264  1.0000
  H   H524      1.0  0.95405  0.27311  0.54376  1.0000
  H   H525      1.0  0.77668  0.18103  0.36513  1.0000
  C   C449      1.0  0.98181  0.19136  0.61081  1.0000
  H   H526      1.0  0.78507  0.22539  0.35074  1.0000
  H   H527      1.0  0.97677  0.24153  0.54711  1.0000
  C   C450      1.0  0.96443  0.30427  0.41435  1.0000
  H   H528      1.0  0.52696  0.34986  0.52437  1.0000
  H   H529      1.0  0.67708  0.25979  0.66128  1.0000
  H   H530      1.0  0.96077  0.19993  0.55856  1.0000
  C   C451      1.0  0.96666  0.21469  0.61712  1.0000
  H   H531      1.0  0.90888  0.22138  0.53867  1.0000
  H   H532      1.0  0.88511  0.26609  0.58016  1.0000
  H   H533      1.0  0.72596  0.17821  0.34924  1.0000
  C   C452      1.0  0.96061  0.20443  0.57471  1.0000
  C   C453      1.0  0.77494  0.48130  0.55654  1.0000
  H   H534      1.0  0.97267  0.31602  0.42897  1.0000
  H   H535      1.0  0.51812  0.29210  0.44915  1.0000
  H   H536      1.0  0.52301  0.35794  0.61275  1.0000
  H   H537      1.0  0.95230  0.31772  0.40123  1.0000
  H   H538      1.0  0.95722  0.25787  0.39720  1.0000
  H   H539      1.0  0.51940  0.33412  0.40864  1.0000
  H   H540      1.0  0.96983  0.21872  0.63366  1.0000
  S   S112      1.0  0.74457  0.12945  0.33234  1.0000
  H   H541      1.0  0.65028  0.11702  0.33693  1.0000
  Fe  Fe57      1.0  0.80989  0.14274  0.33384  1.0000
  N   N31       1.0  0.50650  0.38275  0.58557  1.0000
  H   H542      1.0  0.51037  0.34122  0.57957  1.0000
  C   C454      1.0  0.60302  0.34381  0.66258  1.0000
  H   H543      1.0  0.55060  0.28627  0.65856  1.0000
  C   C455      1.0  0.50422  0.35962  0.51262  1.0000
  H   H544      1.0  0.99082  0.16814  0.58479  1.0000
  C   C456      1.0  0.52993  0.37763  0.60717  1.0000
  H   H545      1.0  0.73604  0.21847  0.33373  1.0000
  H   H546      1.0  0.52238  0.39178  0.61872  1.0000
  H   H547      1.0  0.97014  0.27973  0.37829  1.0000
  H   H548      1.0  0.99548  0.26006  0.43341  1.0000
  Fe  Fe58      1.0  0.92911  0.28217  0.98701  1.0000
  C   C457      1.0  0.58142  0.32256  0.66874  1.0000
  Fe  Fe59      1.0  0.57976  0.23717  0.73420  1.0000
  S   S113      1.0  0.60485  0.27742  0.74168  1.0000
  S   S114      1.0  0.61991  0.20311  0.72857  1.0000
  Fe  Fe60      1.0  0.56010  0.28097  0.76309  1.0000
  S   S115      1.0  0.59077  0.29606  0.79602  1.0000
  Fe  Fe61      1.0  0.55357  0.29040  0.71545  1.0000
  S   S116      1.0  0.57242  0.32219  0.69463  1.0000
  S   S117      1.0  0.53841  0.23929  0.75722  1.0000
  S   S118      1.0  0.53059  0.24962  0.70659  1.0000
  Fe  Fe62      1.0  0.62830  0.41110  0.92795  1.0000
  S   S119      1.0  0.56044  0.40380  0.91808  1.0000
  S   S120      1.0  0.65963  0.45018  0.92477  1.0000
  Fe  Fe63      1.0  0.64563  0.35505  0.94300  1.0000
  S   S121      1.0  0.57790  0.34399  0.93431  1.0000
  S   S122      1.0  0.68909  0.32172  0.95596  1.0000
  Fe  Fe64      1.0  0.57715  0.36581  0.90451  1.0000
  S   S123      1.0  0.53640  0.35423  0.87288  1.0000
  Fe  Fe65      1.0  0.56595  0.38253  0.94855  1.0000
  S   S124      1.0  0.51766  0.39564  0.96684  1.0000
  S   S125      1.0  0.64521  0.37447  0.91226  1.0000
  S   S126      1.0  0.63364  0.39220  0.95938  1.0000
  Fe  Fe66      1.0  0.89523  0.10110  0.80552  1.0000
  S   S127      1.0  0.90786  0.06034  0.81928  1.0000
  Fe  Fe67      1.0  0.83968  0.14948  0.79465  1.0000
  S   S128      1.0  0.89393  0.17533  0.79331  1.0000
  S   S129      1.0  0.77920  0.16975  0.79631  1.0000
  C   C458      1.0  0.68713  0.40980  0.87885  1.0000
  Fe  Fe68      1.0  0.92615  0.15531  0.82266  1.0000
  H   H549      1.0  0.67566  0.29123  0.72179  1.0000
  S   S130      1.0  0.85921  0.11728  0.77502  1.0000
  S   S131      1.0  0.87121  0.13116  0.82511  1.0000
  N   N32       1.0  0.68000  0.26984  0.69366  1.0000
  S   S132      1.0  0.95288  0.12428  0.80503  1.0000
  S   S133      1.0  0.88614  0.31750  0.98263  1.0000
  Fe  Fe69      1.0  0.94841  0.23482  0.96250  1.0000
  S   S134      1.0  0.91460  0.21242  0.93340  1.0000
  C   C459      1.0  0.76923  0.29805  0.91461  1.0000
  H   H550      1.0  0.71013  0.28747  0.67101  1.0000
  C   C460      1.0  0.93057  0.20389  0.91000  1.0000
  C   C461      1.0  0.90101  0.19371  0.89312  1.0000
  C   C462      1.0  0.91232  0.18542  0.87457  1.0000
  H   H551      1.0  0.86917  0.19193  0.89449  1.0000
  H   H552      1.0  0.88918  0.17758  0.86177  1.0000
  C   C463      1.0  0.74379  0.32149  0.96424  1.0000
  C   C464      1.0  0.76345  0.29815  0.97197  1.0000
  C   C465      1.0  0.80686  0.29666  0.97795  1.0000
  C   C466      1.0  0.83122  0.31852  0.97620  1.0000
  H   H553      1.0  0.56707  0.43192  0.86674  1.0000
  H   H554      1.0  0.94741  0.10193  0.85105  1.0000
  H   H555      1.0  0.74492  0.28107  0.97328  1.0000
  H   H556      1.0  0.62871  0.47575  0.96382  1.0000
  C   C467      1.0  0.58982  0.40750  0.83571  1.0000
  H   H557      1.0  0.51476  0.18895  0.78189  1.0000
  C   C468      1.0  0.74354  0.24230  0.69263  1.0000
  C   C469      1.0  0.66546  0.19503  0.74702  1.0000
  C   C470      1.0  0.69225  0.17600  0.74193  1.0000
  C   C471      1.0  0.72798  0.16851  0.75657  1.0000
  C   C472      1.0  0.73674  0.17969  0.77659  1.0000
  C   C473      1.0  0.70993  0.19875  0.78161  1.0000
  C   C474      1.0  0.67478  0.20664  0.76684  1.0000
  H   H558      1.0  0.68532  0.16694  0.72661  1.0000
  H   H559      1.0  0.74821  0.15371  0.75255  1.0000
  H   H560      1.0  0.71634  0.20742  0.79707  1.0000
  H   H561      1.0  0.65432  0.22119  0.77102  1.0000
  C   C475      1.0  0.57434  0.31185  0.81721  1.0000
  C   C476      1.0  0.60340  0.31606  0.83608  1.0000
  C   C477      1.0  0.59229  0.32871  0.85329  1.0000
  C   C478      1.0  0.55187  0.33750  0.85184  1.0000
  C   C479      1.0  0.52281  0.33336  0.83298  1.0000
  C   C480      1.0  0.53389  0.32060  0.81579  1.0000
  H   H562      1.0  0.63473  0.30935  0.83738  1.0000
  H   H563      1.0  0.61498  0.33166  0.86766  1.0000
  C   C481      1.0  0.59209  0.48298  0.91256  1.0000
  H   H564      1.0  0.56239  0.42024  0.83072  1.0000
  H   H565      1.0  0.99473  0.21371  0.92088  1.0000
  H   H566      1.0  0.91367  0.15479  0.92882  1.0000
  C   C482      1.0  0.89151  0.02919  0.80838  1.0000
  C   C483      1.0  0.86211  0.02622  0.78969  1.0000
  H   H567      1.0  0.90276  0.13688  0.89346  1.0000
  H   H568      1.0  0.84902  0.04331  0.78120  1.0000
  H   H569      1.0  0.65790  0.30863  0.69836  1.0000
  C   C484      1.0  0.63477  0.48092  0.91996  1.0000
  H   H570      1.0  0.51118  0.31759  0.80143  1.0000
  C   C485      1.0  0.63122  0.44476  0.84938  1.0000
  H   H571      1.0  0.57317  0.46556  0.91003  1.0000
  H   H572      1.0  0.61333  0.26916  0.68631  1.0000
  H   H573      1.0  0.64484  0.14765  0.77288  1.0000
  H   H574      1.0  0.52074  0.12521  0.73256  1.0000
  H   H575      1.0  0.98935  0.21205  0.78935  1.0000
  Fe  Fe70      1.0  0.91620  0.14218  0.77579  1.0000
  C   C486      1.0  0.95348  0.18708  0.87271  1.0000
  H   H576      1.0  0.82127  0.27050  0.94467  1.0000
  H   H577      1.0  0.72803  0.27403  0.85777  1.0000
  H   H578      1.0  0.93825  0.05021  0.88790  1.0000
  S   S135      1.0  0.96345  0.27737  0.96104  1.0000
  C   C487      1.0  0.71421  0.25250  0.70354  1.0000
  S   S136      1.0  0.94021  0.15172  0.74637  1.0000
  H   H579      1.0  0.69691  0.25135  0.73394  1.0000
  H   H580      1.0  0.58422  0.14418  0.74444  1.0000
  C   C488      1.0  0.76812  0.34343  0.96267  1.0000
  C   C489      1.0  0.73981  0.28092  0.87363  1.0000
  C   C490      1.0  0.71363  0.29428  0.88410  1.0000
  H   H581      1.0  0.64006  0.36978  0.83860  1.0000
  C   C491      1.0  0.72617  0.37038  0.87685  1.0000
  H   H582      1.0  0.68172  0.29773  0.87646  1.0000
  C   C492      1.0  0.59852  0.48269  0.96526  1.0000
  H   H583      1.0  0.98761  0.08897  0.95275  1.0000
  C   C493      1.0  0.86042  0.30436  0.92369  1.0000
  C   C494      1.0  0.77900  0.21923  0.72343  1.0000
  H   H584      1.0  0.82145  0.27860  0.98393  1.0000
  H   H585      1.0  0.84622  0.31379  0.93573  1.0000
  H   H586      1.0  0.60493  0.40563  0.82215  1.0000
  C   C495      1.0  0.88727  0.08847  0.87132  1.0000
  H   H587      1.0  0.94511  0.05782  0.86237  1.0000
  H   H588      1.0  0.63608  0.25141  0.70909  1.0000
  H   H589      1.0  0.50568  0.34013  0.97612  1.0000
  C   C496      1.0  0.98899  0.14477  0.74036  1.0000
  H   H590      1.0  0.60396  0.45715  0.84299  1.0000
  H   H591      1.0  0.61419  0.42964  0.88574  1.0000
  C   C497      1.0  0.54273  0.16571  0.76022  1.0000
  C   C498      1.0  0.98298  0.19759  0.88946  1.0000
  H   H592      1.0  0.68446  0.42776  0.88724  1.0000
  H   H593      1.0  0.87119  0.10757  0.86947  1.0000
  C   C499      1.0  0.59570  0.42018  0.87144  1.0000
  H   H594      1.0  0.70004  0.34354  0.85218  1.0000
  H   H595      1.0  0.75355  0.22352  0.75075  1.0000
  C   C500      1.0  0.75087  0.22894  0.73453  1.0000
  C   C501      1.0  0.72835  0.30283  0.90456  1.0000
  H   H596      1.0  0.79725  0.21810  0.69395  1.0000
  H   H597      1.0  0.89785  0.26349  0.91167  1.0000
  C   C502      1.0  0.79682  0.28449  0.90449  1.0000
  C   C503      1.0  0.92117  0.12571  0.90597  1.0000
  N   N33       1.0  0.61876  0.41814  0.85446  1.0000
  H   H598      1.0  0.88122  0.07952  0.85539  1.0000
  C   C504      1.0  0.78081  0.27595  0.88361  1.0000
  H   H599      1.0  0.65101  0.44399  0.83765  1.0000
  H   H600      1.0  0.83008  0.35903  0.96742  1.0000
  H   H601      1.0  0.85942  0.31853  0.91082  1.0000
  C   C505      1.0  0.68095  0.27714  0.67184  1.0000
  C   C506      1.0  0.69653  0.36216  0.85957  1.0000
  H   H602      1.0  0.79918  0.26516  0.87471  1.0000
  C   C507      1.0  0.77535  0.22587  0.70253  1.0000
  C   C508      1.0  0.56825  0.46472  0.96753  1.0000
  H   H603      1.0  0.75251  0.35814  0.88300  1.0000
  H   H604      1.0  0.98008  0.19087  0.80926  1.0000
  H   H605      1.0  0.57498  0.44398  0.96809  1.0000
  H   H606      1.0  0.80345  0.20632  0.73105  1.0000
  H   H607      1.0  0.75349  0.36152  0.95680  1.0000
  H   H608      1.0  0.97192  0.16152  0.70964  1.0000
  C   C509      1.0  0.97162  0.20601  0.90801  1.0000
  H   H609      1.0  0.61386  0.35937  0.67366  1.0000
  C   C510      1.0  0.58078  0.15413  0.75856  1.0000
  C   C511      1.0  0.72161  0.39424  0.88639  1.0000
  C   C512      1.0  0.95037  0.10946  0.86731  1.0000
  N   N34       1.0  0.83978  0.27941  0.91577  1.0000
  C   C513      1.0  0.71868  0.24508  0.72476  1.0000
  H   H610      1.0  0.77892  0.30471  0.93057  1.0000
  H   H611      1.0  0.82545  0.24274  0.92853  1.0000
  H   H612      1.0  0.58648  0.40051  0.87593  1.0000
  H   H613      1.0  0.71238  0.30409  0.70786  1.0000
  H   H614      1.0  0.57646  0.19219  0.80932  1.0000
  C   C514      1.0  0.54196  0.17915  0.77921  1.0000
  C   C515      1.0  0.81156  0.34194  0.96870  1.0000
  N   N35       1.0  0.50628  0.16372  0.74265  1.0000
  C   C516      1.0  0.61577  0.15598  0.77477  1.0000
  H   H615      1.0  0.74431  0.40048  0.90006  1.0000
  C   C517      1.0  0.65592  0.40183  0.86150  1.0000
  C   C518      1.0  0.51589  0.17595  0.72377  1.0000
  H   H616      1.0  0.64874  0.45538  0.86340  1.0000
  H   H617      1.0  0.64180  0.17171  0.80522  1.0000
  C   C519      1.0  0.64002  0.25659  0.69323  1.0000
  H   H618      1.0  0.70785  0.31286  0.91290  1.0000
  H   H619      1.0  0.89334  0.30143  0.93150  1.0000
  N   N36       1.0  0.93219  0.09113  0.88032  1.0000
  H   H620      1.0  0.87088  0.25866  0.94315  1.0000
  C   C520      1.0  0.57734  0.18116  0.79523  1.0000
  H   H621      1.0  0.57744  0.38802  0.83889  1.0000
  H   H622      1.0  0.87198  0.07595  0.88126  1.0000
  C   C521      1.0  0.66193  0.37757  0.85189  1.0000
  H   H623      1.0  0.86769  0.27850  0.88886  1.0000
  C   C522      1.0  0.83921  0.26214  0.93377  1.0000
  H   H624      1.0  0.85376  0.24674  0.89746  1.0000
  C   C523      1.0  0.86562  0.26657  0.90271  1.0000
  C   C524      1.0  0.61415  0.16963  0.79300  1.0000
  S   S137      1.0  0.50988  0.29678  0.73733  1.0000
  S   S138      1.0  0.91200  0.23968  0.98776  1.0000
  C   C525      1.0  0.68169  0.29442  0.70596  1.0000
  H   H625      1.0  0.98373  0.11299  0.87399  1.0000
  H   H626      1.0  0.93507  0.12882  0.86600  1.0000
  C   C526      1.0  0.95122  0.12298  0.94293  1.0000
  H   H627      1.0  0.74248  0.24656  0.67642  1.0000
  C   C527      1.0  0.92730  0.13618  0.92616  1.0000
  C   C528      1.0  0.95118  0.06515  0.87881  1.0000
  H   H628      1.0  0.98535  0.06595  0.88414  1.0000
  H   H629      1.0  0.54166  0.16613  0.71841  1.0000
  H   H630      1.0  0.52547  0.19663  0.72690  1.0000
  H   H631      1.0  0.63742  0.23800  0.68414  1.0000
  C   C529      1.0  0.52916  0.47337  0.96890  1.0000
  H   H632      1.0  0.93075  0.00875  0.83370  1.0000
  C   C530      1.0  0.90803  0.00672  0.81924  1.0000
  C   C531      1.0  0.93876  0.10150  0.90195  1.0000
  S   S139      1.0  0.96942  0.17582  0.84994  1.0000
  C   C532      1.0  0.84915  0.00102  0.78213  1.0000
  H   H633      1.0  0.98394  0.17725  0.78458  1.0000
  C   C533      1.0  0.49575  0.13585  0.73797  1.0000
  H   H634      1.0  0.95609  0.13137  0.95852  1.0000
  C   C534      1.0  0.96295  0.08843  0.91945  1.0000
  C   C535      1.0  0.96896  0.09914  0.93960  1.0000
  H   H635      1.0  0.97770  0.06998  0.91801  1.0000
  H   H636      1.0  0.50576  0.45915  0.97059  1.0000
  H   H637      1.0  0.65531  0.29064  0.66512  1.0000
  C   C536      1.0  0.52019  0.50007  0.96802  1.0000
  Fe  Fe71      1.0  0.80066  0.85330  0.29142  1.0000
  S   S140      1.0  0.83125  0.83362  0.26720  1.0000
  Fe  Fe72      1.0  0.71544  0.86132  0.30166  1.0000
  S   S141      1.0  0.64485  0.85667  0.29004  1.0000
  Fe  Fe73      1.0  0.78231  0.90502  0.31089  1.0000
  S   S142      1.0  0.80623  0.94715  0.31123  1.0000
  S   S143      1.0  0.75154  0.88343  0.28159  1.0000
  S   S144      1.0  0.76283  0.82956  0.30973  1.0000
  H   H638      1.0  0.85301  0.83746  0.05142  1.0000
  C   C537      1.0  0.93080  0.67932  0.01162  1.0000
  H   H639      1.0  0.56136  0.82930  0.23330  1.0000
  H   H640      1.0  0.69201  0.86072  0.24158  1.0000
  C   C538      1.0  0.65881  0.81191  0.22829  1.0000
  H   H641      1.0  0.76446  0.81203  0.23220  1.0000
  H   H642      1.0  0.90503  0.84425  0.11675  1.0000
  C   C539      1.0  0.87280  0.80039  0.06653  1.0000
  S   S145      1.0  0.98364  0.82433  0.03213  1.0000
  H   H643      1.0  0.55149  0.71748  0.32810  1.0000
  C   C540      1.0  0.87028  0.75620  0.05051  1.0000
  C   C541      1.0  0.62655  0.82620  0.23428  1.0000
  N   N37       1.0  0.70247  0.81967  0.23621  1.0000
  H   H644      1.0  0.79787  0.78131  0.04957  1.0000
  C   C542      1.0  0.97155  0.82050  0.27900  1.0000
  C   C543      1.0  0.96033  0.63655  0.01476  1.0000
  H   H645      1.0  0.54568  0.55017  0.99802  1.0000
  H   H646      1.0  0.91910  0.80954  0.29181  1.0000
  H   H647      1.0  0.71934  0.96353  0.30399  1.0000
  H   H648      1.0  0.87857  0.81439  0.02727  1.0000
  N   N38       1.0  0.86139  0.78445  0.04718  1.0000
  H   H649      1.0  0.90988  0.85335  0.30566  1.0000
  C   C544      1.0  0.78178  0.97793  0.31162  1.0000
  C   C545      1.0  0.98813  0.82415  0.05971  1.0000
  C   C546      1.0  0.90187  0.80533  0.10415  1.0000
  H   H650      1.0  0.91705  0.79692  0.11896  1.0000
  C   C547      1.0  0.60794  0.83060  0.28389  1.0000
  C   C548      1.0  0.56559  0.83671  0.27814  1.0000
  C   C549      1.0  0.53524  0.81704  0.27199  1.0000
  C   C550      1.0  0.54683  0.79086  0.27131  1.0000
  C   C551      1.0  0.58914  0.78470  0.27730  1.0000
  C   C552      1.0  0.61944  0.80434  0.28362  1.0000
  H   H651      1.0  0.55615  0.85689  0.27825  1.0000
  C   C553      1.0  0.96073  0.87024  0.29466  1.0000
  H   H652      1.0  0.59861  0.76457  0.27688  1.0000
  H   H653      1.0  0.65169  0.79917  0.28808  1.0000
  C   C554      1.0  0.86225  0.85088  0.25267  1.0000
  C   C555      1.0  0.88182  0.83707  0.23889  1.0000
  C   C556      1.0  0.90664  0.85012  0.22712  1.0000
  C   C557      1.0  0.91210  0.87721  0.22898  1.0000
  C   C558      1.0  0.89241  0.89097  0.24273  1.0000
  C   C559      1.0  0.86777  0.87793  0.25455  1.0000
  H   H654      1.0  0.87773  0.81616  0.23731  1.0000
  H   H655      1.0  0.92095  0.83928  0.21638  1.0000
  H   H656      1.0  0.89619  0.91190  0.24426  1.0000
  H   H657      1.0  0.85302  0.88882  0.26512  1.0000
  S   S146      1.0  0.83389  0.87569  0.31968  1.0000
  C   C560      1.0  0.88479  0.79368  0.03170  1.0000
  H   H658      1.0  0.72474  0.80693  0.20921  1.0000
  H   H659      1.0  0.74171  0.85367  0.23724  1.0000
  H   H660      1.0  0.59740  0.76373  0.20069  1.0000
  H   H661      1.0  0.90390  0.75274  0.05642  1.0000
  C   C561      1.0  0.64712  0.78917  0.21580  1.0000
  H   H662      1.0  0.80799  0.80731  0.03307  1.0000
  H   H663      1.0  0.63296  0.84308  0.24447  1.0000
  H   H664      1.0  0.69514  0.82747  0.26761  1.0000
  H   H665      1.0  0.85278  0.74769  0.06160  1.0000
  C   C562      1.0  0.89522  0.83213  0.10293  1.0000
  C   C563      1.0  0.89104  0.78958  0.08629  1.0000
  H   H666      1.0  0.87723  0.78206  0.01696  1.0000
  C   C564      1.0  0.50870  0.65652  0.00037  1.0000
  S   S147      1.0  0.94219  0.89499  0.21424  1.0000
  H   H667      1.0  0.93166  0.95682  0.24673  1.0000
  C   C565      1.0  0.87738  0.84334  0.08385  1.0000
  C   C566      1.0  0.53515  0.73634  0.32434  1.0000
  H   H668      1.0  0.91854  0.79213  0.03805  1.0000
  C   C567      1.0  0.73883  0.98070  0.30715  1.0000
  Fe  Fe74      1.0  0.97653  0.78836  0.01065  1.0000
  C   C568      1.0  0.94031  0.82506  0.28992  1.0000
  C   C569      1.0  0.73211  0.80488  0.22650  1.0000
  C   C570      1.0  0.81660  0.78704  0.03809  1.0000
  H   H669      1.0  0.87289  0.86428  0.08293  1.0000
  C   C571      1.0  0.86621  0.82778  0.06590  1.0000
  H   H670      1.0  0.89813  0.76912  0.08839  1.0000
  H   H671      1.0  0.85448  0.66946  0.00779  1.0000
  S   S148      1.0  0.96140  0.74845  0.02077  1.0000
  H   H672      1.0  0.74655  0.81943  0.26553  1.0000
  H   H673      1.0  0.70763  0.79439  0.26274  1.0000
  H   H674      1.0  0.69773  0.85259  0.21560  1.0000
  C   C572      1.0  0.71342  0.81503  0.25899  1.0000
  H   H675      1.0  0.66938  0.77680  0.21071  1.0000
  C   C573      1.0  0.70855  0.84782  0.23241  1.0000
  H   H676      1.0  0.80682  0.77444  0.02390  1.0000
  H   H677      1.0  0.97334  0.80095  0.27307  1.0000
  H   H678      1.0  0.54299  0.78938  0.21204  1.0000
  H   H679      1.0  0.85615  0.99014  0.21860  1.0000
  C   C574      1.0  0.57493  0.79582  0.21615  1.0000
  H   H680      1.0  0.95732  0.95718  0.21405  1.0000
  C   C575      1.0  0.58531  0.81832  0.22814  1.0000
  H   H681      1.0  0.73274  0.78384  0.23063  1.0000
  S   S149      1.0  0.51028  0.76509  0.26289  1.0000
  H   H682      1.0  0.91976  0.67673  0.02636  1.0000
  C   C576      1.0  0.60572  0.78136  0.20989  1.0000
  C   C577      1.0  0.93491  0.84984  0.29772  1.0000
  H   H683      1.0  0.98099  0.86583  0.06165  1.0000
  H   H684      1.0  0.96195  0.68848  0.01623  1.0000
  H   H685      1.0  0.94764  0.63177  0.02871  1.0000
  H   H686      1.0  0.86127  0.74480  0.03569  1.0000
  H   H687      1.0  0.99140  0.64569  0.02038  1.0000
  H   H688      1.0  0.53039  0.67052  0.00904  1.0000
  C   C578      1.0  0.99211  0.86593  0.28379  1.0000
  C   C579      1.0  0.96011  0.97468  0.22375  1.0000
  C   C580      1.0  0.98601  0.84788  0.07040  1.0000
  S   S150      1.0  0.98948  0.89487  0.16277  1.0000
  C   C581      1.0  0.99092  0.84863  0.09235  1.0000
  H   H689      1.0  0.99322  0.84917  0.23469  1.0000
  C   C582      1.0  0.94921  0.99676  0.25472  1.0000
  H   H690      1.0  0.54434  0.74446  0.31020  1.0000
  H   H691      1.0  0.50297  0.82223  0.26749  1.0000
  C   C583      1.0  0.94563  0.97443  0.24218  1.0000
  C   C584      1.0  0.85463  0.65178  0.99875  1.0000
  H   H692      1.0  0.98909  0.86695  0.10032  1.0000
  Fe  Fe75      1.0  0.98927  0.88109  0.19557  1.0000
  N   N39       1.0  0.93221  0.65411  0.00047  1.0000
  H   H693      1.0  0.91058  0.69362  0.00160  1.0000
  H   H694      1.0  0.83987  0.99855  0.31929  1.0000
  H   H695      1.0  0.96548  0.61783  0.00707  1.0000
  C   C585      1.0  0.97857  0.99719  0.21787  1.0000
  H   H696      1.0  0.95574  0.88960  0.30040  1.0000
  H   H697      1.0  0.98909  0.99638  0.20334  1.0000
  H   H698      1.0  0.80921  0.99937  0.24141  1.0000
  H   H699      1.0  0.93767  0.99645  0.26902  1.0000
  C   C586      1.0  0.99450  0.80108  0.07122  1.0000
  C   C587      1.0  0.80662  0.00050  0.31566  1.0000
  H   H700      1.0  0.83116  0.83365  0.41560  1.0000
  H   H701      1.0  0.53080  0.67267  0.63769  1.0000
  H   H702      1.0  0.61285  0.72189  0.56470  1.0000
  S   S151      1.0  0.80802  0.83978  0.37126  1.0000
  Fe  Fe76      1.0  0.65727  0.64549  0.58330  1.0000
  S   S152      1.0  0.67091  0.66884  0.55649  1.0000
  S   S153      1.0  0.66264  0.66917  0.61365  1.0000
  Fe  Fe77      1.0  0.65148  0.59384  0.55812  1.0000
  S   S154      1.0  0.66426  0.61428  0.52984  1.0000
  S   S155      1.0  0.63359  0.55098  0.55132  1.0000
  Fe  Fe78      1.0  0.71385  0.63655  0.55188  1.0000
  S   S156      1.0  0.78108  0.63945  0.54809  1.0000
  Fe  Fe79      1.0  0.62032  0.64466  0.53662  1.0000
  S   S157      1.0  0.57584  0.66377  0.50983  1.0000
  S   S158      1.0  0.70377  0.61432  0.58010  1.0000
  S   S159      1.0  0.60390  0.62318  0.56349  1.0000
  Fe  Fe80      1.0  0.93396  0.72658  0.49031  1.0000
  S   S160      1.0  0.93026  0.77038  0.48791  1.0000
  S   S161      1.0  0.86923  0.70914  0.48895  1.0000
  Fe  Fe81      1.0  0.96804  0.76713  0.46337  1.0000
  S   S162      1.0  0.96228  0.78436  0.43059  1.0000
  S   S163      1.0  0.96863  0.72319  0.46407  1.0000
  C   C588      1.0  0.65455  0.52100  0.56232  1.0000
  H   H703      1.0  0.52061  0.63437  0.53056  1.0000
  H   H704      1.0  0.74844  0.81963  0.41748  1.0000
  Fe  Fe82      1.0  0.79258  0.85461  0.33738  1.0000
  H   H705      1.0  0.70051  0.53770  0.58729  1.0000
  C   C589      1.0  0.52312  0.65488  0.50228  1.0000
  H   H706      1.0  0.82572  0.70201  0.41703  1.0000
  S   S164      1.0  0.99262  0.72696  0.51531  1.0000
  C   C590      1.0  0.80486  0.65998  0.53205  1.0000
  C   C591      1.0  0.78193  0.67467  0.51568  1.0000
  C   C592      1.0  0.80222  0.68977  0.50290  1.0000
  C   C593      1.0  0.84565  0.69073  0.50640  1.0000
  C   C594      1.0  0.86858  0.67640  0.52300  1.0000
  C   C595      1.0  0.84829  0.66105  0.53563  1.0000
  H   H707      1.0  0.74856  0.67405  0.51265  1.0000
  H   H708      1.0  0.78404  0.70063  0.49009  1.0000
  H   H709      1.0  0.90193  0.67652  0.52578  1.0000
  H   H710      1.0  0.86641  0.64979  0.54820  1.0000
  N   N40       1.0  0.90186  0.75013  0.55861  1.0000
  H   H711      1.0  0.81548  0.74781  0.46251  1.0000
  C   C596      1.0  0.58773  0.67094  0.62670  1.0000
  C   C597      1.0  0.62854  0.67981  0.62963  1.0000
  C   C598      1.0  0.64332  0.69761  0.64602  1.0000
  H   H712      1.0  0.59288  0.67865  0.57845  1.0000
  H   H713      1.0  0.57605  0.65690  0.61446  1.0000
  C   C599      1.0  0.56085  0.68230  0.56954  1.0000
  C   C600      1.0  0.56114  0.72173  0.58941  1.0000
  H   H714      1.0  0.94375  0.74985  0.58879  1.0000
  C   C601      1.0  0.85309  0.82623  0.38747  1.0000
  C   C602      1.0  0.88521  0.81542  0.37942  1.0000
  C   C603      1.0  0.91864  0.80307  0.39287  1.0000
  C   C604      1.0  0.92028  0.80118  0.41448  1.0000
  C   C605      1.0  0.88855  0.81243  0.42256  1.0000
  C   C606      1.0  0.85536  0.82491  0.40914  1.0000
  H   H715      1.0  0.88401  0.81628  0.36281  1.0000
  H   H716      1.0  0.94311  0.79465  0.38643  1.0000
  H   H717      1.0  0.88961  0.81170  0.43916  1.0000
  C   C607      1.0  0.94343  0.74577  0.57206  1.0000
  H   H718      1.0  0.74001  0.55766  0.50655  1.0000
  C   C608      1.0  0.80539  0.70089  0.57261  1.0000
  H   H719      1.0  0.53824  0.53348  0.51464  1.0000
  H   H720      1.0  0.96713  0.75893  0.56778  1.0000
  H   H721      1.0  0.80903  0.71194  0.43998  1.0000
  H   H722      1.0  0.88692  0.78221  0.57697  1.0000
  H   H723      1.0  0.76532  0.72060  0.54746  1.0000
  C   C609      1.0  0.58005  0.72303  0.55609  1.0000
  H   H724      1.0  0.85238  0.68358  0.59614  1.0000
  C   C610      1.0  0.72387  0.51085  0.52585  1.0000
  C   C611      1.0  0.80114  0.76311  0.45218  1.0000
  C   C612      1.0  0.89128  0.77796  0.56090  1.0000
  H   H725      1.0  0.74358  0.81746  0.45461  1.0000
  H   H726      1.0  0.80114  0.74770  0.38984  1.0000
  C   C613      1.0  0.50012  0.66318  0.48287  1.0000
  H   H727      1.0  0.53932  0.67189  0.57765  1.0000
  C   C614      1.0  0.79651  0.71924  0.55674  1.0000
  H   H728      1.0  0.67487  0.70455  0.64851  1.0000
  H   H729      1.0  0.55498  0.74306  0.58935  1.0000
  C   C615      1.0  0.50330  0.64093  0.51560  1.0000
  N   N41       1.0  0.82884  0.74357  0.42266  1.0000
  C   C616      1.0  0.54841  0.57104  0.50246  1.0000
  H   H730      1.0  0.81254  0.57902  0.53652  1.0000
  H   H731      1.0  0.90774  0.71090  0.58925  1.0000
  C   C617      1.0  0.82784  0.73515  0.55232  1.0000
  C   C618      1.0  0.87147  0.74268  0.43551  1.0000
  C   C619      1.0  0.80680  0.55768  0.53792  1.0000
  H   H732      1.0  0.80589  0.51671  0.56732  1.0000
  H   H733      1.0  0.91611  0.79125  0.55790  1.0000
  H   H734      1.0  0.59423  0.71901  0.59719  1.0000
  C   C620      1.0  0.75661  0.56453  0.55910  1.0000
  H   H735      1.0  0.57752  0.57413  0.51349  1.0000
  H   H736      1.0  0.51522  0.67408  0.47252  1.0000
  C   C621      1.0  0.53313  0.59008  0.48783  1.0000
  C   C622      1.0  0.80487  0.76385  0.43100  1.0000
  H   H737      1.0  0.55055  0.60799  0.48753  1.0000
  H   H738      1.0  0.95437  0.72553  0.57032  1.0000
  H   H739      1.0  0.77720  0.78134  0.47682  1.0000
  H   H740      1.0  0.84713  0.76718  0.39901  1.0000
  H   H741      1.0  0.78575  0.78710  0.40238  1.0000
  C   C623      1.0  0.56218  0.67987  0.63997  1.0000
  H   H742      1.0  0.70302  0.56370  0.52278  1.0000
  H   H743      1.0  0.77659  0.55620  0.57332  1.0000
  H   H744      1.0  0.76300  0.58591  0.55953  1.0000
  H   H745      1.0  0.72402  0.56180  0.56051  1.0000
  C   C624      1.0  0.57698  0.69770  0.65636  1.0000
  C   C625      1.0  0.86924  0.73315  0.56376  1.0000
  H   H746      1.0  0.81950  0.74875  0.53960  1.0000
  C   C626      1.0  0.80909  0.71773  0.42362  1.0000
  C   C627      1.0  0.75627  0.52383  0.54010  1.0000
  H   H747      1.0  0.88581  0.76238  0.43726  1.0000
  H   H748      1.0  0.51666  0.69725  0.52731  1.0000
  H   H749      1.0  0.57223  0.74396  0.55311  1.0000
  C   C628      1.0  0.84564  0.69831  0.58410  1.0000
  H   H750      1.0  0.91288  0.72458  0.53424  1.0000
  H   H751      1.0  0.85098  0.73292  0.39497  1.0000
  N   N42       1.0  0.76359  0.55235  0.53959  1.0000
  H   H752      1.0  0.77643  0.71780  0.41479  1.0000
  H   H753      1.0  0.86267  0.78371  0.54968  1.0000
  C   C629      1.0  0.78454  0.78460  0.41861  1.0000
  C   C630      1.0  0.78149  0.50819  0.55555  1.0000
  C   C631      1.0  0.68753  0.51988  0.57967  1.0000
  C   C632      1.0  0.76017  0.80249  0.44806  1.0000
  H   H754      1.0  0.92940  0.75768  0.53232  1.0000
  C   C633      1.0  0.73608  0.56562  0.52184  1.0000
  H   H755      1.0  0.87259  0.73531  0.45149  1.0000
  N   N43       1.0  0.55168  0.71056  0.56790  1.0000
  C   C634      1.0  0.52606  0.54811  0.50307  1.0000
  C   C635      1.0  0.87727  0.71415  0.57985  1.0000
  C   C636      1.0  0.90506  0.74529  0.53669  1.0000
  H   H756      1.0  0.82963  0.55113  0.55189  1.0000
  C   C637      1.0  0.76276  0.80363  0.42715  1.0000
  H   H757      1.0  0.57917  0.71335  0.54073  1.0000
  H   H758      1.0  0.81400  0.54771  0.52399  1.0000
  H   H759      1.0  0.87606  0.74963  0.52522  1.0000
  C   C638      1.0  0.77919  0.78221  0.46054  1.0000
  H   H760      1.0  0.78119  0.68812  0.57565  1.0000
  H   H761      1.0  0.74269  0.58700  0.52183  1.0000
  C   C639      1.0  0.83198  0.74809  0.40066  1.0000
  C   C640      1.0  0.61777  0.70654  0.65929  1.0000
  H   H762      1.0  0.89189  0.72971  0.42855  1.0000
  H   H763      1.0  0.70215  0.52106  0.51401  1.0000
  H   H764      1.0  0.55803  0.67293  0.55393  1.0000
  H   H765      1.0  0.54310  0.71191  0.59970  1.0000
  H   H766      1.0  0.99113  0.82625  0.57841  1.0000
  H   H767      1.0  0.54711  0.75025  0.33731  1.0000
  Fe  Fe83      1.0  0.99027  0.77070  0.51214  1.0000
  C   C641      1.0  0.50820  0.71406  0.55679  1.0000
  H   H768      1.0  0.50439  0.75298  0.36065  1.0000
  S   S165      1.0  0.99135  0.79681  0.54092  1.0000
  S   S166      1.0  0.74282  0.88544  0.33039  1.0000
  Fe  Fe84      1.0  0.58158  0.77925  0.73235  1.0000
  S   S167      1.0  0.59634  0.73646  0.73164  1.0000
  S   S168      1.0  0.62430  0.81400  0.74292  1.0000
  C   C642      1.0  0.57976  0.63277  0.74642  1.0000
  H   H769      1.0  0.52534  0.72695  0.84106  1.0000
  Fe  Fe85      1.0  0.54436  0.73143  0.74866  1.0000
  S   S169      1.0  0.56164  0.70043  0.77426  1.0000
  Fe  Fe86      1.0  0.54771  0.73417  0.70178  1.0000
  S   S170      1.0  0.54353  0.70745  0.67297  1.0000
  S   S171      1.0  0.53186  0.77451  0.75070  1.0000
  S   S172      1.0  0.53705  0.77750  0.70116  1.0000
  Fe  Fe87      1.0  0.58810  0.65939  0.89715  1.0000
  S   S173      1.0  0.63528  0.62825  0.89608  1.0000
  S   S174      1.0  0.56299  0.68997  0.87201  1.0000
  Fe  Fe88      1.0  0.58476  0.64621  0.94313  1.0000
  S   S175      1.0  0.63319  0.61496  0.94517  1.0000
  S   S176      1.0  0.55959  0.65713  0.97212  1.0000
  Fe  Fe89      1.0  0.66676  0.64312  0.92818  1.0000
  S   S177      1.0  0.73702  0.64845  0.93446  1.0000
  Fe  Fe90      1.0  0.59805  0.60266  0.91326  1.0000
  S   S178      1.0  0.57316  0.56125  0.90526  1.0000
  S   S179      1.0  0.62138  0.67538  0.92850  1.0000
  S   S180      1.0  0.54795  0.63286  0.91198  1.0000
  Fe  Fe91      1.0  0.90540  0.87229  0.83351  1.0000
  S   S181      1.0  0.84249  0.88053  0.81346  1.0000
  H   H770      1.0  0.75877  0.71970  0.83957  1.0000
  Fe  Fe92      1.0  0.94681  0.87089  0.79569  1.0000
  S   S182      1.0  0.88727  0.87835  0.77307  1.0000
  Fe  Fe93      1.0  0.87591  0.90868  0.79638  1.0000
  S   S183      1.0  0.84766  0.94723  0.78314  1.0000
  Fe  Fe94      1.0  0.85836  0.84990  0.79180  1.0000
  S   S184      1.0  0.81885  0.81501  0.77788  1.0000
  S   S185      1.0  0.91925  0.83994  0.81294  1.0000
  C   C643      1.0  0.60660  0.77742  0.80311  1.0000
  C   C644      1.0  0.94290  0.82587  0.92119  1.0000
  C   C645      1.0  0.89539  0.98155  0.81158  1.0000
  H   H771      1.0  0.61015  0.66825  0.69396  1.0000
  H   H772      1.0  0.63123  0.68136  0.72783  1.0000
  S   S186      1.0  0.95493  0.72905  0.97255  1.0000
  C   C646      1.0  0.86567  0.97855  0.79302  1.0000
  H   H773      1.0  0.61807  0.67766  0.75257  1.0000
  C   C647      1.0  0.66242  0.72289  0.84923  1.0000
  H   H774      1.0  0.90831  0.96449  0.82015  1.0000
  H   H775      1.0  0.62972  0.72019  0.67180  1.0000
  C   C648      1.0  0.92829  0.84363  0.88570  1.0000
  C   C649      1.0  0.94933  0.79843  0.89193  1.0000
  H   H776      1.0  0.90412  0.85484  0.71462  1.0000
  C   C650      1.0  0.95256  0.80165  0.91357  1.0000
  H   H777      1.0  0.58514  0.76037  0.80038  1.0000
  C   C651      1.0  0.83302  0.69569  0.96137  1.0000
  S   S187      1.0  0.96914  0.77491  0.93030  1.0000
  H   H778      1.0  0.54150  0.67566  0.73400  1.0000
  C   C652      1.0  0.59785  0.53069  0.91148  1.0000
  C   C653      1.0  0.64041  0.52865  0.91926  1.0000
  C   C654      1.0  0.50796  0.55195  0.94557  1.0000
  H   H779      1.0  0.65929  0.54611  0.92180  1.0000
  H   H780      1.0  0.95777  0.64127  0.97425  1.0000
  C   C655      1.0  0.76621  0.67373  0.94949  1.0000
  C   C656      1.0  0.80828  0.67652  0.94908  1.0000
  C   C657      1.0  0.64476  0.74080  0.83392  1.0000
  C   C658      1.0  0.81601  0.71209  0.97442  1.0000
  C   C659      1.0  0.77388  0.70952  0.97465  1.0000
  C   C660      1.0  0.74899  0.69059  0.96214  1.0000
  H   H781      1.0  0.78265  0.60926  0.97237  1.0000
  C   C661      1.0  0.93105  0.84676  0.90732  1.0000
  H   H782      1.0  0.71667  0.68869  0.96259  1.0000
  H   H783      1.0  0.63409  0.76881  0.76931  1.0000
  H   H784      1.0  0.71651  0.70101  0.86286  1.0000
  C   C662      1.0  0.67854  0.81391  0.75213  1.0000
  C   C663      1.0  0.70222  0.79163  0.75105  1.0000
  C   C664      1.0  0.74516  0.79229  0.75908  1.0000
  C   C665      1.0  0.76479  0.81517  0.76825  1.0000
  C   C666      1.0  0.74110  0.83742  0.76941  1.0000
  C   C667      1.0  0.69820  0.83680  0.76127  1.0000
  H   H785      1.0  0.68755  0.77399  0.74383  1.0000
  H   H786      1.0  0.76338  0.77504  0.75804  1.0000
  H   H787      1.0  0.75586  0.85503  0.77661  1.0000
  H   H788      1.0  0.68004  0.85410  0.76225  1.0000
  C   C668      1.0  0.56127  0.69800  0.80141  1.0000
  C   C669      1.0  0.58203  0.67703  0.81286  1.0000
  C   C670      1.0  0.58253  0.67404  0.83435  1.0000
  C   C671      1.0  0.56216  0.69202  0.84472  1.0000
  C   C672      1.0  0.54137  0.71298  0.83325  1.0000
  C   C673      1.0  0.54079  0.71594  0.81175  1.0000
  H   H789      1.0  0.59786  0.66293  0.80509  1.0000
  H   H790      1.0  0.59872  0.65786  0.84290  1.0000
  H   H791      1.0  0.98685  0.86250  0.85082  1.0000
  C   C674      1.0  0.61211  0.59276  0.69498  1.0000
  H   H792      1.0  0.92446  0.86560  0.91339  1.0000
  C   C675      1.0  0.81453  0.83217  0.72509  1.0000
  N   N44       1.0  0.79499  0.90500  0.72941  1.0000
  C   C676      1.0  0.77987  0.90411  0.74920  1.0000
  C   C677      1.0  0.82284  0.92804  0.73072  1.0000
  C   C678      1.0  0.75924  0.90909  0.71186  1.0000
  C   C679      1.0  0.81532  0.88011  0.72597  1.0000
  H   H793      1.0  0.75385  0.89023  0.74852  1.0000
  H   H794      1.0  0.92882  0.67100  0.97017  1.0000
  C   C680      1.0  0.85468  0.87908  0.72055  1.0000
  S   S188      1.0  0.93751  0.90295  0.81798  1.0000
  S   S189      1.0  0.92435  0.78800  0.98207  1.0000
  C   C681      1.0  0.51564  0.64626  0.98141  1.0000
  H   H795      1.0  0.76850  0.92345  0.75337  1.0000
  N   N45       1.0  0.58952  0.64919  0.72947  1.0000
  H   H796      1.0  0.85136  0.92540  0.74309  1.0000
  H   H797      1.0  0.80813  0.94624  0.73498  1.0000
  H   H798      1.0  0.83184  0.93197  0.71563  1.0000
  H   H799      1.0  0.73591  0.89318  0.71077  1.0000
  H   H800      1.0  0.74328  0.92779  0.71367  1.0000
  H   H801      1.0  0.76915  0.90959  0.69666  1.0000
  C   C682      1.0  0.52355  0.55511  0.98324  1.0000
  H   H802      1.0  0.65324  0.65512  0.74454  1.0000
  H   H803      1.0  0.95748  0.87795  0.74739  1.0000
  H   H804      1.0  0.86539  0.69728  0.96114  1.0000
  H   H805      1.0  0.94534  0.82867  0.93779  1.0000
  C   C683      1.0  0.55274  0.66540  0.72127  1.0000
  H   H806      1.0  0.82189  0.66345  0.93942  1.0000
  H   H807      1.0  0.54087  0.50908  0.90225  1.0000
  H   H808      1.0  0.86884  0.81340  0.71916  1.0000
  H   H809      1.0  0.76034  0.72211  0.98467  1.0000
  N   N46       1.0  0.83234  0.76394  0.91439  1.0000
  C   C684      1.0  0.85615  0.75527  0.93503  1.0000
  C   C685      1.0  0.85355  0.75456  0.89797  1.0000
  C   C686      1.0  0.83365  0.79293  0.91433  1.0000
  C   C687      1.0  0.78996  0.75294  0.91065  1.0000
  C   C688      1.0  0.75394  0.76876  0.90724  1.0000
  C   C689      1.0  0.78376  0.72551  0.91059  1.0000
  C   C690      1.0  0.71447  0.75761  0.90434  1.0000
  C   C691      1.0  0.74418  0.71462  0.90762  1.0000
  C   C692      1.0  0.70963  0.73062  0.90469  1.0000
  H   H810      1.0  0.86122  0.73388  0.93559  1.0000
  H   H811      1.0  0.88746  0.76432  0.93890  1.0000
  H   H812      1.0  0.83997  0.76042  0.94776  1.0000
  H   H813      1.0  0.85698  0.73300  0.89800  1.0000
  H   H814      1.0  0.88544  0.76272  0.90025  1.0000
  H   H815      1.0  0.83641  0.76038  0.88215  1.0000
  H   H816      1.0  0.81785  0.80094  0.89894  1.0000
  H   H817      1.0  0.81961  0.80140  0.92687  1.0000
  H   H818      1.0  0.86596  0.80046  0.91724  1.0000
  H   H819      1.0  0.75535  0.78979  0.90692  1.0000
  H   H820      1.0  0.80952  0.71219  0.91320  1.0000
  H   H821      1.0  0.68737  0.76994  0.90202  1.0000
  H   H822      1.0  0.74021  0.69360  0.90790  1.0000
  H   H823      1.0  0.67905  0.72201  0.90276  1.0000
  N   N47       1.0  0.64963  0.76956  0.80291  1.0000
  C   C693      1.0  0.67477  0.79380  0.80412  1.0000
  C   C694      1.0  0.66786  0.75168  0.82006  1.0000
  C   C695      1.0  0.70961  0.74367  0.82267  1.0000
  C   C696      1.0  0.72700  0.72579  0.83807  1.0000
  C   C697      1.0  0.70335  0.71530  0.85123  1.0000
  H   H824      1.0  0.68042  0.75190  0.78035  1.0000
  H   H825      1.0  0.70580  0.79035  0.80073  1.0000
  H   H826      1.0  0.65993  0.80844  0.79238  1.0000
  H   H827      1.0  0.67910  0.80311  0.81983  1.0000
  H   H828      1.0  0.72887  0.75082  0.81249  1.0000
  H   H829      1.0  0.56701  0.58550  0.96370  1.0000
  C   C698      1.0  0.93694  0.81922  0.87803  1.0000
  H   H830      1.0  0.93472  0.81650  0.86146  1.0000
  H   H831      1.0  0.59435  0.79151  0.79040  1.0000
  C   C699      1.0  0.60046  0.63405  0.71211  1.0000
  C   C700      1.0  0.62454  0.66654  0.73898  1.0000
  C   C701      1.0  0.55042  0.51900  0.96587  1.0000
  H   H832      1.0  0.64388  0.71444  0.85935  1.0000
  C   C702      1.0  0.57383  0.50772  0.90821  1.0000
  H   H833      1.0  0.80496  0.89845  0.76256  1.0000
  C   C703      1.0  0.87352  0.85522  0.71808  1.0000
  C   C704      1.0  0.60138  0.60630  0.71167  1.0000
  H   H834      1.0  0.58800  0.56093  0.94982  1.0000
  H   H835      1.0  0.51787  0.57653  0.98352  1.0000
  H   H836      1.0  0.60461  0.78708  0.81812  1.0000
  H   H837      1.0  0.57184  0.64497  0.75919  1.0000
  H   H838      1.0  0.52399  0.73189  0.80316  1.0000
  C   C705      1.0  0.85369  0.83183  0.72057  1.0000
  H   H839      1.0  0.91320  0.60904  0.97733  1.0000
  H   H840      1.0  0.60655  0.62058  0.75382  1.0000
  H   H841      1.0  0.87219  0.89638  0.71873  1.0000
  S   S190      1.0  0.91573  0.87103  0.86915  1.0000
  C   C706      1.0  0.65876  0.50388  0.92329  1.0000
  N   N48       1.0  0.53994  0.54714  0.96475  1.0000
  H   H842      1.0  0.61270  0.74537  0.83306  1.0000
  H   H843      1.0  0.63049  0.59582  0.66546  1.0000
  C   C707      1.0  0.79534  0.85589  0.72753  1.0000
  H   H844      1.0  0.60109  0.56182  0.97809  1.0000
  H   H845      1.0  0.52674  0.65340  0.71235  1.0000
  H   H846      1.0  0.59384  0.59457  0.72397  1.0000
  H   H847      1.0  0.76496  0.85497  0.73100  1.0000
  H   H848      1.0  0.79935  0.81393  0.72728  1.0000
  C   C708      1.0  0.64893  0.75639  0.78265  1.0000
  H   H849      1.0  0.61255  0.57160  0.69487  1.0000
  C   C709      1.0  0.61071  0.64718  0.69488  1.0000
  H   H850      1.0  0.97304  0.88263  0.71209  1.0000
  C   C710      1.0  0.95031  0.65939  0.98203  1.0000
  H   H851      1.0  0.82608  0.99895  0.76779  1.0000
  H   H852      1.0  0.63132  0.73768  0.78142  1.0000
  C   C711      1.0  0.62157  0.63347  0.67836  1.0000
  C   C712      1.0  0.84810  0.60674  0.97400  1.0000
  H   H853      1.0  0.62935  0.64401  0.66540  1.0000
  H   H854      1.0  0.51858  0.54515  0.93141  1.0000
  C   C713      1.0  0.89117  0.64152  0.99369  1.0000
  C   C714      1.0  0.88680  0.61828  0.98147  1.0000
  H   H855      1.0  0.84521  0.58941  0.96418  1.0000
  H   H856      1.0  0.95685  0.77979  0.88588  1.0000
  H   H857      1.0  0.69180  0.50250  0.92901  1.0000
  Fe  Fe95      1.0  0.96977  0.77043  0.96505  1.0000
  C   C715      1.0  0.58993  0.50944  0.96432  1.0000
  Fe  Fe96      1.0  0.91266  0.74690  0.99103  1.0000
  H   H858      1.0  0.61461  0.52211  0.96201  1.0000
  C   C716      1.0  0.81283  0.61769  0.97876  1.0000
  H   H859      1.0  0.78844  0.64859  0.99466  1.0000
  C   C717      1.0  0.81619  0.63991  0.99135  1.0000
  C   C718      1.0  0.57570  0.56445  0.96412  1.0000
  H   H860      1.0  0.97995  0.67048  0.98641  1.0000
  H   H861      1.0  0.55920  0.68086  0.71063  1.0000
  S   S191      1.0  0.84653  0.73520  0.99140  1.0000
  C   C719      1.0  0.98851  0.87486  0.74522  1.0000
  H   H862      1.0  0.99085  0.81487  0.84163  1.0000
  C   C720      1.0  0.62223  0.60633  0.67839  1.0000
  H   H863      1.0  0.55247  0.61999  0.74055  1.0000
  H   H864      1.0  0.50074  0.57311  0.94344  1.0000
  S   S192      1.0  0.49622  0.72644  0.71864  1.0000
