data_image0
_chemical_formula_structural       H2SFeS2CH2FeS2FeS2FeS2FeS2FeS2C6H4C6H3SC6H4C3H6C2H4C2H2C2H3CHNH2CH5FeHC2H2NC2HCH4CH2C2HCHSH3CH2SFeC2H2C2H2C2H2CNCHC4HNCH3CH2CH3CH3CH3C2SC4H2FeS2FeS2FeS2FeS2FeS2FeHSFeHSH2SCH2C3H4C6H4C6H4C6H4CH2CH2CHCH2C2HNFeHC3H2CSH3C3HCH4CHCH3CH3NHS2C2HC2H2C7HNH3CNC6H5SH4CHCH2C2H3CH3C2HCHC2HC2FeS2FeS2FeS2FeS2FeS2FeSHFeS2FeS2C6H2CHC6H3C2HC4H3C6H4NC9H13NCH2CH6C2H2CHCSCH4C2HC3H3CNHC2HSH2C2H6CH2CH2CSCSHFeS2HS2HS2FeS2FeS2CH2C6H5C6H4C6H3C5HSH2CFeCNC2H2SFeCH4SCSFeCH2CH3SH2CH2CH2FeCH2C2H5CNC2HCH3NC2NHCH8FeHC2HCH2CH5CH2CH2CH2C2FeSHFeS2FeS2FeSFeS3FeHSFeHSC2HC6H4C3HC2HCHC7H3CHC6H4CHCHC2H3C3HSHC4HCH3NH2NHCH5CHNCH2C3HCHNC2H8C3H2C3NH2CSC4H2NH4C3H3CSH5FeCHCH4CH2C2H2CH3CHSHFeSHFeHSH2CFeS2FeS2FeSFeS3C6H4NC6H3C6H4C6H4C3HCNH4C2H2CHC2HFeH2CHCNSH3C3H2NH2CHC3HC4HSFeH8CH2CHC2H3C2H3CSHC2H2CHCH3C2H3CH2CHNCH7SCFeSHC2SCNCFeS2FeS2FeSFeS4C6H4C6H4C6H5C5H3CHSCSC2H9C2NH2CH2CHC2H2FeH4C2HCHCHCHCHC3HNCHC3H2C2HNH9CH3CH2C2HC3FeH3C2H2CHCH4CH3CH2CFe2S2FeS2FeSFeS3CHCFeSCFeCSH2SC6HCH2C6H4C6H4C2HCHCH3CHCHCH2FeHC2H5CNC2HCH2C4HC2FeSH2CH2CHC2NHCH2CH3CHC3H4CHCHC2H2CH4CH2C2HSNSHCH3NH3C2H4CH2CHC2FeHSH2CFeS2FeS2FeS2FeS2FeS4HC6H4C6H4C6H4C2H2C3H2SH4FeHC3H4CHSC2H3SHNH2CHNH2CH3C2H2C2H3CH3CH2SNC9H2CHC2HC2HCH7C2H4FeH3FeSCFeS2FeS2H3FeS2FeS3HSC6H4C6H4C6H2SHC4FeH3SHNH2C3SH2C4HC2H2CSCH2CFeH2CH2FeHSC2H2CHCH2CSH3CNC2H2CHCH6C2HCHFeS2FeS2NS2FeHSHFeCFeSHFeS2FeS2C6H4C2H2C2HCH2C6H3SC6H4NC9H5SH2SH2FeHSNC9H14CH3SH7CHC2H9C2HFeS2FeS2CHSNSHFeSCFeS2FeS2FeS2C6H4C6H4CHC3H2C6H4NSH2C6HSHC3HCH9FeCH4C2NHC7NC2HCH6NHFeH6CHCHCH5SCHSH6C3H2CHCH2CH2CHCNCH3
_chemical_formula_sum              "H864 S192 Fe96 C720 N48"
_cell_length_a       44.1867
_cell_length_b       44.135
_cell_length_c       44.1362
_cell_angle_alpha    90.2916
_cell_angle_beta     89.914
_cell_angle_gamma    89.9547

_space_group_name_H-M_alt    "P 1"
_space_group_IT_number       1

loop_
  _space_group_symop_operation_xyz
  'x, y, z'

loop_
  _atom_site_type_symbol
  _atom_site_label
  _atom_site_symmetry_multiplicity
  _atom_site_fract_x
  _atom_site_fract_y
  _atom_site_fract_z
  _atom_site_occupancy
  H   H1        1.0  0.25173  0.43662  0.13468  1.0000
  H   H2        1.0  0.05382  0.29236  0.23432  1.0000
  S   S1        1.0  0.15760  0.44286  0.17858  1.0000
  Fe  Fe1       1.0  0.09886  0.47729  0.26661  1.0000
  S   S2        1.0  0.06568  0.44973  0.29494  1.0000
  S   S3        1.0  0.14871  0.46934  0.26131  1.0000
  C   C1        1.0  0.24565  0.06682  0.33519  1.0000
  H   H3        1.0  0.25279  0.40457  0.09084  1.0000
  H   H4        1.0  0.06948  0.25103  0.48464  1.0000
  Fe  Fe2       1.0  0.23937  0.41792  0.01709  1.0000
  S   S4        1.0  0.22096  0.45480  0.04878  1.0000
  S   S5        1.0  0.23147  0.36778  0.02085  1.0000
  Fe  Fe3       1.0  0.26775  0.11853  0.47165  1.0000
  S   S6        1.0  0.27290  0.16717  0.45838  1.0000
  S   S7        1.0  0.29114  0.07948  0.44713  1.0000
  Fe  Fe4       1.0  0.22290  0.17133  0.46759  1.0000
  S   S8        1.0  0.19486  0.19916  0.43454  1.0000
  S   S9        1.0  0.21717  0.12183  0.47710  1.0000
  Fe  Fe5       1.0  0.02737  0.28144  0.34282  1.0000
  S   S10       1.0  0.02655  0.28755  0.39342  1.0000
  S   S11       1.0  0.06199  0.30670  0.31376  1.0000
  Fe  Fe6       1.0  0.02451  0.23661  0.39487  1.0000
  S   S12       1.0  0.05082  0.20660  0.42769  1.0000
  S   S13       1.0  0.02796  0.23010  0.34440  1.0000
  C   C2        1.0  0.09089  0.20335  0.42727  1.0000
  C   C3        1.0  0.10482  0.18069  0.44472  1.0000
  C   C4        1.0  0.13662  0.17873  0.44672  1.0000
  C   C5        1.0  0.15480  0.19967  0.43153  1.0000
  C   C6        1.0  0.14092  0.22171  0.41331  1.0000
  C   C7        1.0  0.10913  0.22357  0.41116  1.0000
  H   H5        1.0  0.09083  0.16481  0.45694  1.0000
  H   H6        1.0  0.14709  0.16126  0.46015  1.0000
  H   H7        1.0  0.15477  0.23787  0.40125  1.0000
  H   H8        1.0  0.09872  0.24107  0.39759  1.0000
  C   C8        1.0  0.17471  0.44690  0.14233  1.0000
  C   C9        1.0  0.18009  0.42078  0.12468  1.0000
  C   C10       1.0  0.19378  0.42277  0.09586  1.0000
  C   C11       1.0  0.20265  0.45095  0.08449  1.0000
  C   C12       1.0  0.19730  0.47705  0.10217  1.0000
  C   C13       1.0  0.18337  0.47509  0.13089  1.0000
  H   H9        1.0  0.17341  0.39886  0.13325  1.0000
  H   H10       1.0  0.19729  0.40254  0.08237  1.0000
  H   H11       1.0  0.32453  0.24934  0.13559  1.0000
  S   S14       1.0  0.28999  0.41375  0.01448  1.0000
  C   C14       1.0  0.06606  0.41022  0.30197  1.0000
  C   C15       1.0  0.04041  0.39665  0.31495  1.0000
  C   C16       1.0  0.03920  0.36510  0.31963  1.0000
  C   C17       1.0  0.06369  0.34678  0.31128  1.0000
  C   C18       1.0  0.08975  0.36051  0.29913  1.0000
  C   C19       1.0  0.09103  0.39212  0.29469  1.0000
  H   H12       1.0  0.02105  0.41051  0.32090  1.0000
  H   H13       1.0  0.01904  0.35488  0.32904  1.0000
  H   H14       1.0  0.10888  0.34651  0.29283  1.0000
  H   H15       1.0  0.11111  0.40241  0.28526  1.0000
  C   C20       1.0  0.30352  0.08094  0.40888  1.0000
  C   C21       1.0  0.30057  0.10725  0.39163  1.0000
  C   C22       1.0  0.29398  0.44924  0.09380  1.0000
  H   H16       1.0  0.32806  0.13250  0.45601  1.0000
  H   H17       1.0  0.30415  0.44489  0.07117  1.0000
  H   H18       1.0  0.29122  0.12747  0.40184  1.0000
  H   H19       1.0  0.11751  0.27328  0.46693  1.0000
  H   H20       1.0  0.31666  0.24823  0.08520  1.0000
  H   H21       1.0  0.19382  0.14217  0.31524  1.0000
  C   C23       1.0  0.22248  0.09382  0.38761  1.0000
  C   C24       1.0  0.28770  0.03443  0.14202  1.0000
  H   H22       1.0  0.28561  0.44810  0.15344  1.0000
  H   H23       1.0  0.17936  0.49539  0.14415  1.0000
  H   H24       1.0  0.19639  0.48344  0.35604  1.0000
  H   H25       1.0  0.05962  0.30353  0.13794  1.0000
  C   C25       1.0  0.11785  0.25501  0.48325  1.0000
  C   C26       1.0  0.15704  0.43366  0.34812  1.0000
  H   H26       1.0  0.23666  0.10787  0.31267  1.0000
  H   H27       1.0  0.08653  0.43117  0.17604  1.0000
  C   C27       1.0  0.15846  0.47359  0.38638  1.0000
  C   C28       1.0  0.06119  0.31303  0.16059  1.0000
  H   H28       1.0  0.27534  0.37619  0.10960  1.0000
  H   H29       1.0  0.05900  0.42800  0.22217  1.0000
  H   H30       1.0  0.25041  0.01365  0.11857  1.0000
  C   C29       1.0  0.08100  0.40701  0.17110  1.0000
  H   H31       1.0  0.06669  0.34519  0.24208  1.0000
  N   N1        1.0  0.13972  0.45849  0.36297  1.0000
  H   H32       1.0  0.25688  0.15973  0.36800  1.0000
  H   H33       1.0  0.27267  0.40911  0.15546  1.0000
  C   C30       1.0  0.30940  0.10724  0.36095  1.0000
  H   H34       1.0  0.03187  0.40127  0.20783  1.0000
  H   H35       1.0  0.22707  0.18573  0.37840  1.0000
  H   H36       1.0  0.27091  0.45842  0.08942  1.0000
  H   H37       1.0  0.25590  0.05667  0.31520  1.0000
  H   H38       1.0  0.16587  0.41742  0.36519  1.0000
  Fe  Fe7       1.0  0.14168  0.47965  0.21174  1.0000
  H   H39       1.0  0.30744  0.46747  0.10487  1.0000
  C   C31       1.0  0.22239  0.11087  0.36041  1.0000
  C   C32       1.0  0.06524  0.33714  0.21896  1.0000
  H   H40       1.0  0.32323  0.21016  0.12298  1.0000
  H   H41       1.0  0.11589  0.42808  0.39282  1.0000
  N   N2        1.0  0.21186  0.14275  0.36057  1.0000
  C   C33       1.0  0.06857  0.34365  0.16459  1.0000
  C   C34       1.0  0.20917  0.15596  0.32978  1.0000
  H   H42       1.0  0.05954  0.40689  0.15796  1.0000
  C   C35       1.0  0.11124  0.44513  0.37492  1.0000
  H   H43       1.0  0.17228  0.16864  0.37382  1.0000
  H   H44       1.0  0.21511  0.10365  0.40883  1.0000
  H   H45       1.0  0.11754  0.47070  0.32151  1.0000
  H   H46       1.0  0.23530  0.15406  0.40193  1.0000
  C   C36       1.0  0.23338  0.06409  0.38833  1.0000
  H   H47       1.0  0.16504  0.12954  0.36449  1.0000
  H   H48       1.0  0.18228  0.14028  0.39988  1.0000
  C   C37       1.0  0.23459  0.09651  0.33415  1.0000
  C   C38       1.0  0.23375  0.16137  0.37790  1.0000
  H   H49       1.0  0.11353  0.41470  0.22143  1.0000
  C   C39       1.0  0.07062  0.35671  0.19405  1.0000
  H   H50       1.0  0.31678  0.26455  0.03299  1.0000
  S   S15       1.0  0.30765  0.33556  0.05116  1.0000
  H   H51       1.0  0.23417  0.05192  0.40961  1.0000
  H   H52       1.0  0.19973  0.17939  0.33059  1.0000
  H   H53       1.0  0.15146  0.49136  0.32871  1.0000
  C   C40       1.0  0.31744  0.04496  0.13983  1.0000
  H   H54       1.0  0.14276  0.42064  0.33183  1.0000
  H   H55       1.0  0.23162  0.15793  0.31846  1.0000
  S   S16       1.0  0.09134  0.48480  0.21706  1.0000
  Fe  Fe8       1.0  0.28229  0.36366  0.01591  1.0000
  C   C41       1.0  0.24495  0.05063  0.36217  1.0000
  C   C42       1.0  0.18163  0.14521  0.37522  1.0000
  H   H56       1.0  0.31843  0.03441  0.40849  1.0000
  H   H57       1.0  0.25445  0.02800  0.36307  1.0000
  C   C43       1.0  0.14530  0.24294  0.49284  1.0000
  C   C44       1.0  0.10779  0.39088  0.21525  1.0000
  H   H58       1.0  0.28690  0.39172  0.07434  1.0000
  H   H59       1.0  0.07256  0.35658  0.14427  1.0000
  C   C45       1.0  0.18748  0.48519  0.37882  1.0000
  C   C46       1.0  0.05790  0.30664  0.21473  1.0000
  H   H60       1.0  0.20391  0.49898  0.09354  1.0000
  H   H61       1.0  0.12656  0.38218  0.20072  1.0000
  C   C47       1.0  0.14807  0.47880  0.41649  1.0000
  N   N3        1.0  0.29298  0.42162  0.11281  1.0000
  C   C48       1.0  0.27629  0.39753  0.09631  1.0000
  H   H62       1.0  0.10807  0.37749  0.23641  1.0000
  C   C49       1.0  0.05581  0.29461  0.18559  1.0000
  C   C50       1.0  0.31601  0.05485  0.39529  1.0000
  C   C51       1.0  0.27518  0.42913  0.14045  1.0000
  C   C52       1.0  0.13132  0.48107  0.33978  1.0000
  H   H63       1.0  0.09569  0.46281  0.38408  1.0000
  N   N4        1.0  0.07833  0.38897  0.19934  1.0000
  C   C53       1.0  0.27299  0.02302  0.11654  1.0000
  H   H64       1.0  0.09987  0.39879  0.15642  1.0000
  H   H65       1.0  0.12616  0.47137  0.42426  1.0000
  H   H66       1.0  0.09809  0.43336  0.35676  1.0000
  C   C54       1.0  0.05461  0.40346  0.21843  1.0000
  H   H67       1.0  0.05316  0.39353  0.24143  1.0000
  H   H68       1.0  0.16634  0.25179  0.48379  1.0000
  C   C55       1.0  0.28788  0.02229  0.08872  1.0000
  H   H69       1.0  0.17652  0.44215  0.33465  1.0000
  H   H70       1.0  0.27652  0.03375  0.16392  1.0000
  H   H71       1.0  0.05004  0.27093  0.18243  1.0000
  C   C56       1.0  0.32495  0.05486  0.36458  1.0000
  H   H72       1.0  0.11766  0.49976  0.34987  1.0000
  H   H73       1.0  0.32334  0.41504  0.16870  1.0000
  H   H74       1.0  0.27680  0.01211  0.06924  1.0000
  C   C57       1.0  0.32148  0.08105  0.34719  1.0000
  H   H75       1.0  0.32798  0.03057  0.06418  1.0000
  H   H76       1.0  0.30685  0.12763  0.34772  1.0000
  H   H77       1.0  0.32823  0.05233  0.16052  1.0000
  C   C58       1.0  0.09078  0.24250  0.49340  1.0000
  C   C59       1.0  0.32425  0.41124  0.11902  1.0000
  S   S17       1.0  0.33175  0.08254  0.30832  1.0000
  C   C60       1.0  0.31762  0.03286  0.08623  1.0000
  C   C61       1.0  0.33336  0.04458  0.11185  1.0000
  C   C62       1.0  0.16574  0.49476  0.43747  1.0000
  C   C63       1.0  0.20505  0.50077  0.40008  1.0000
  H   H78       1.0  0.15716  0.49937  0.46006  1.0000
  H   H79       1.0  0.33429  0.03460  0.35431  1.0000
  Fe  Fe9       1.0  0.03713  0.23856  0.84673  1.0000
  S   S18       1.0  0.03046  0.23580  0.89708  1.0000
  S   S19       1.0  0.07383  0.21167  0.82153  1.0000
  Fe  Fe10      1.0  0.03410  0.28655  0.89777  1.0000
  S   S20       1.0  0.05882  0.31298  0.93489  1.0000
  S   S21       1.0  0.04428  0.28917  0.84813  1.0000
  Fe  Fe11      1.0  0.11661  0.04216  0.76626  1.0000
  S   S22       1.0  0.16689  0.04748  0.77109  1.0000
  S   S23       1.0  0.08161  0.06970  0.79277  1.0000
  Fe  Fe12      1.0  0.16921  0.03730  0.72100  1.0000
  S   S24       1.0  0.20515  0.05821  0.69010  1.0000
  S   S25       1.0  0.11866  0.03575  0.71560  1.0000
  Fe  Fe13      1.0  0.23006  0.36811  0.96965  1.0000
  S   S26       1.0  0.23465  0.41891  0.96601  1.0000
  S   S27       1.0  0.20028  0.34168  0.93627  1.0000
  Fe  Fe14      1.0  0.28477  0.41000  0.96392  1.0000
  H   H80       1.0  0.14492  0.01222  0.83502  1.0000
  S   S28       1.0  0.28039  0.35924  0.96516  1.0000
  Fe  Fe15      1.0  0.22702  0.13427  0.52579  1.0000
  H   H81       1.0  0.07337  0.16302  0.53966  1.0000
  S   S29       1.0  0.19145  0.11953  0.56018  1.0000
  H   H82       1.0  0.08049  0.18999  0.56996  1.0000
  H   H83       1.0  0.16253  0.01203  0.89925  1.0000
  S   S30       1.0  0.27736  0.12665  0.52139  1.0000
  C   C64       1.0  0.14122  0.26439  0.97102  1.0000
  H   H84       1.0  0.12729  0.24500  0.83569  1.0000
  H   H85       1.0  0.16299  0.09006  0.86324  1.0000
  C   C65       1.0  0.31914  0.44227  0.89687  1.0000
  C   C66       1.0  0.29254  0.43815  0.88028  1.0000
  C   C67       1.0  0.09531  0.07590  0.87986  1.0000
  H   H86       1.0  0.09724  0.33987  0.98023  1.0000
  H   H87       1.0  0.11458  0.14767  0.50560  1.0000
  H   H88       1.0  0.27263  0.42908  0.89131  1.0000
  H   H89       1.0  0.03685  0.34387  0.88234  1.0000
  C   C68       1.0  0.19609  0.10392  0.59685  1.0000
  C   C69       1.0  0.22456  0.09710  0.60881  1.0000
  C   C70       1.0  0.22688  0.08341  0.63752  1.0000
  C   C71       1.0  0.20087  0.07661  0.65463  1.0000
  C   C72       1.0  0.17246  0.08430  0.64299  1.0000
  C   C73       1.0  0.17011  0.09762  0.61415  1.0000
  H   H90       1.0  0.24472  0.10183  0.59576  1.0000
  H   H91       1.0  0.24896  0.07772  0.64642  1.0000
  H   H92       1.0  0.15231  0.08000  0.65622  1.0000
  H   H93       1.0  0.14800  0.10298  0.60520  1.0000
  C   C74       1.0  0.09766  0.32325  0.93421  1.0000
  C   C75       1.0  0.11561  0.31841  0.90856  1.0000
  C   C76       1.0  0.14684  0.32483  0.90945  1.0000
  C   C77       1.0  0.16041  0.33661  0.93582  1.0000
  C   C78       1.0  0.14223  0.34258  0.96114  1.0000
  C   C79       1.0  0.11101  0.33584  0.96033  1.0000
  H   H94       1.0  0.10537  0.30951  0.88820  1.0000
  H   H95       1.0  0.16069  0.32046  0.88969  1.0000
  H   H96       1.0  0.13065  0.13064  0.53887  1.0000
  H   H97       1.0  0.16536  0.18401  0.56092  1.0000
  C   C80       1.0  0.07535  0.17214  0.81365  1.0000
  C   C81       1.0  0.10020  0.16048  0.79731  1.0000
  C   C82       1.0  0.10249  0.12926  0.79057  1.0000
  C   C83       1.0  0.07983  0.10933  0.80009  1.0000
  C   C84       1.0  0.05521  0.12093  0.81679  1.0000
  C   C85       1.0  0.05294  0.15213  0.82356  1.0000
  H   H98       1.0  0.11762  0.17576  0.78945  1.0000
  H   H99       1.0  0.12156  0.12070  0.77773  1.0000
  H   H100      1.0  0.03756  0.10572  0.82430  1.0000
  H   H101      1.0  0.03369  0.16072  0.83613  1.0000
  C   C86       1.0  0.09649  0.39056  0.86524  1.0000
  H   H102      1.0  0.14125  0.16355  0.58501  1.0000
  H   H103      1.0  0.09584  0.41075  0.95085  1.0000
  C   C87       1.0  0.09099  0.21792  0.51329  1.0000
  H   H104      1.0  0.06915  0.20881  0.51926  1.0000
  H   H105      1.0  0.05480  0.10130  0.88966  1.0000
  C   C88       1.0  0.19043  0.03577  0.55994  1.0000
  H   H106      1.0  0.10065  0.06403  0.96655  1.0000
  C   C89       1.0  0.07557  0.08439  0.93030  1.0000
  H   H107      1.0  0.18842  0.21053  0.88057  1.0000
  H   H108      1.0  0.17405  0.21663  0.84306  1.0000
  C   C90       1.0  0.29155  0.44614  0.84944  1.0000
  C   C91       1.0  0.16929  0.03217  0.88571  1.0000
  H   H109      1.0  0.04792  0.40395  0.92418  1.0000
  N   N5        1.0  0.11977  0.17810  0.54344  1.0000
  Fe  Fe16      1.0  0.27973  0.17579  0.50815  1.0000
  H   H110      1.0  0.01957  0.37704  0.82094  1.0000
  C   C92       1.0  0.12367  0.39467  0.88100  1.0000
  C   C93       1.0  0.31710  0.45820  0.83486  1.0000
  C   C94       1.0  0.22166  0.03569  0.56393  1.0000
  H   H111      1.0  0.15234  0.35167  0.98156  1.0000
  H   H112      1.0  0.10351  0.20202  0.88148  1.0000
  C   C95       1.0  0.17172  0.02020  0.58013  1.0000
  S   S31       1.0  0.23005  0.18426  0.51627  1.0000
  H   H113      1.0  0.09230  0.07916  0.85583  1.0000
  H   H114      1.0  0.05849  0.09405  0.94514  1.0000
  H   H115      1.0  0.19175  0.25322  0.91484  1.0000
  C   C96       1.0  0.12338  0.40217  0.91167  1.0000
  C   C97       1.0  0.32500  0.48960  0.60454  1.0000
  C   C98       1.0  0.02217  0.36413  0.87983  1.0000
  H   H116      1.0  0.09844  0.38424  0.84168  1.0000
  C   C99       1.0  0.16863  0.26349  0.95544  1.0000
  H   H117      1.0  0.18100  0.04872  0.90072  1.0000
  H   H118      1.0  0.23599  0.04846  0.54865  1.0000
  H   H119      1.0  0.15315  0.15509  0.51596  1.0000
  H   H120      1.0  0.13625  0.20397  0.58155  1.0000
  C   C100      1.0  0.09001  0.17039  0.55713  1.0000
  H   H121      1.0  0.14519  0.39135  0.86961  1.0000
  C   C101      1.0  0.06862  0.40169  0.91129  1.0000
  H   H122      1.0  0.15895  0.02538  0.65754  1.0000
  H   H123      1.0  0.18674  0.24830  0.86461  1.0000
  H   H124      1.0  0.09189  0.15112  0.57325  1.0000
  C   C102      1.0  0.09937  0.06753  0.94228  1.0000
  H   H125      1.0  0.05416  0.35831  0.82933  1.0000
  H   H126      1.0  0.18067  0.04883  0.54164  1.0000
  H   H127      1.0  0.13799  0.18375  0.89311  1.0000
  N   N6        1.0  0.14295  0.04617  0.87017  1.0000
  H   H128      1.0  0.18874  0.27304  0.96585  1.0000
  S   S32       1.0  0.32136  0.43351  0.93591  1.0000
  S   S33       1.0  0.31431  0.21175  0.52146  1.0000
  C   C103      1.0  0.12849  0.02245  0.85128  1.0000
  C   C104      1.0  0.11495  0.25403  0.95704  1.0000
  H   H129      1.0  0.12978  0.19053  0.85369  1.0000
  C   C105      1.0  0.30303  0.20403  0.60260  1.0000
  C   C106      1.0  0.04199  0.38027  0.83202  1.0000
  H   H130      1.0  0.13831  0.27495  0.86110  1.0000
  H   H131      1.0  0.10944  0.03150  0.83756  1.0000
  C   C107      1.0  0.15487  0.07021  0.84995  1.0000
  C   C108      1.0  0.12992  0.15175  0.52517  1.0000
  C   C109      1.0  0.12139  0.05491  0.92316  1.0000
  C   C110      1.0  0.11865  0.20515  0.52371  1.0000
  C   C111      1.0  0.14578  0.21826  0.51256  1.0000
  C   C112      1.0  0.09592  0.40569  0.92679  1.0000
  C   C113      1.0  0.12017  0.05908  0.89124  1.0000
  H   H132      1.0  0.10346  0.25486  0.86684  1.0000
  N   N7        1.0  0.03874  0.38889  0.86447  1.0000
  H   H133      1.0  0.27073  0.44314  0.83689  1.0000
  H   H134      1.0  0.01418  0.42345  0.88943  1.0000
  H   H135      1.0  0.09474  0.23645  0.91713  1.0000
  C   C114      1.0  0.07352  0.08850  0.89912  1.0000
  N   N8        1.0  0.14377  0.23013  0.87918  1.0000
  C   C115      1.0  0.12756  0.25221  0.85992  1.0000
  C   C116      1.0  0.17470  0.22622  0.86647  1.0000
  C   C117      1.0  0.12823  0.20034  0.87696  1.0000
  C   C118      1.0  0.14355  0.24118  0.91093  1.0000
  C   C119      1.0  0.16996  0.25212  0.92582  1.0000
  C   C120      1.0  0.11598  0.24276  0.92741  1.0000
  H   H136      1.0  0.16762  0.20881  0.51796  1.0000
  H   H137      1.0  0.28668  0.16057  0.61712  1.0000
  H   H138      1.0  0.09335  0.25620  0.96860  1.0000
  H   H139      1.0  0.32047  0.15851  0.66171  1.0000
  H   H140      1.0  0.13762  0.07840  0.83353  1.0000
  S   S34       1.0  0.31427  0.46831  0.79617  1.0000
  H   H141      1.0  0.28854  0.20459  0.58277  1.0000
  H   H142      1.0  0.13896  0.04179  0.93391  1.0000
  H   H143      1.0  0.14760  0.02167  0.57653  1.0000
  H   H144      1.0  0.14453  0.40451  0.92394  1.0000
  C   C121      1.0  0.14148  0.18281  0.56875  1.0000
  H   H145      1.0  0.05379  0.39813  0.81884  1.0000
  C   C122      1.0  0.06802  0.39397  0.88002  1.0000
  H   H146      1.0  0.17411  0.06187  0.83585  1.0000
  H   H147      1.0  0.32293  0.24612  0.59196  1.0000
  C   C123      1.0  0.02008  0.41683  0.86583  1.0000
  C   C124      1.0  0.30206  0.17915  0.62183  1.0000
  H   H148      1.0  0.13220  0.02614  0.62708  1.0000
  H   H149      1.0  0.03212  0.43626  0.85528  1.0000
  H   H150      1.0  0.01441  0.37045  0.90298  1.0000
  C   C125      1.0  0.32111  0.17805  0.64692  1.0000
  H   H151      1.0  0.11918  0.00389  0.86550  1.0000
  H   H152      1.0  0.31761  0.49135  0.62786  1.0000
  H   H153      1.0  0.33377  0.27393  0.67212  1.0000
  C   C126      1.0  0.23431  0.02021  0.58824  1.0000
  C   C127      1.0  0.14469  0.01095  0.64266  1.0000
  H   H154      1.0  0.18646  0.02368  0.86918  1.0000
  C   C128      1.0  0.32302  0.22796  0.60828  1.0000
  H   H155      1.0  0.25858  0.02095  0.59174  1.0000
  C   C129      1.0  0.31378  0.50043  0.55208  1.0000
  C   C130      1.0  0.30496  0.49981  0.58235  1.0000
  H   H156      1.0  0.14011  0.27438  0.99347  1.0000
  C   C131      1.0  0.21581  0.00465  0.60867  1.0000
  C   C132      1.0  0.18382  0.00394  0.60504  1.0000
  Fe  Fe17      1.0  0.27482  0.66006  0.46379  1.0000
  S   S35       1.0  0.27578  0.60926  0.45877  1.0000
  S   S36       1.0  0.30304  0.69254  0.43493  1.0000
  Fe  Fe18      1.0  0.22488  0.61201  0.46159  1.0000
  S   S37       1.0  0.18906  0.58641  0.43399  1.0000
  S   S38       1.0  0.22364  0.66308  0.46346  1.0000
  Fe  Fe19      1.0  0.21560  0.86658  0.03528  1.0000
  S   S39       1.0  0.21704  0.91745  0.03166  1.0000
  S   S40       1.0  0.18456  0.84317  0.06960  1.0000
  Fe  Fe20      1.0  0.26777  0.91256  0.03442  1.0000
  S   S41       1.0  0.30217  0.94196  0.05984  1.0000
  S   S42       1.0  0.26625  0.86215  0.04113  1.0000
  Fe  Fe21      1.0  0.01987  0.77866  0.09388  1.0000
  S   S43       1.0  0.03277  0.78157  0.14282  1.0000
  S   S44       1.0  0.04591  0.80423  0.05746  1.0000
  Fe  Fe22      1.0  0.02634  0.73092  0.14333  1.0000
  S   S45       1.0  0.06568  0.70431  0.16382  1.0000
  H   H157      1.0  0.00991  0.86418  0.09055  1.0000
  Fe  Fe23      1.0  0.15326  0.51986  0.26768  1.0000
  S   S46       1.0  0.10382  0.52721  0.27652  1.0000
  S   S47       1.0  0.19098  0.54049  0.29644  1.0000
  Fe  Fe24      1.0  0.10028  0.53422  0.22613  1.0000
  S   S48       1.0  0.06481  0.56659  0.20724  1.0000
  S   S49       1.0  0.15043  0.52983  0.21738  1.0000
  C   C133      1.0  0.06546  0.66536  0.17374  1.0000
  C   C134      1.0  0.09272  0.65142  0.18259  1.0000
  C   C135      1.0  0.09319  0.62097  0.19224  1.0000
  C   C136      1.0  0.06633  0.60422  0.19322  1.0000
  C   C137      1.0  0.03924  0.61805  0.18380  1.0000
  C   C138      1.0  0.03878  0.64840  0.17404  1.0000
  H   H158      1.0  0.11347  0.66437  0.18250  1.0000
  H   H159      1.0  0.11414  0.61059  0.19934  1.0000
  C   C139      1.0  0.21341  0.71591  0.06596  1.0000
  H   H160      1.0  0.01768  0.65877  0.16726  1.0000
  C   C140      1.0  0.14558  0.83417  0.06569  1.0000
  C   C141      1.0  0.12958  0.82408  0.09130  1.0000
  C   C142      1.0  0.09888  0.81571  0.08928  1.0000
  C   C143      1.0  0.08387  0.81689  0.06146  1.0000
  C   C144      1.0  0.09966  0.82748  0.03592  1.0000
  C   C145      1.0  0.13036  0.83612  0.03799  1.0000
  H   H161      1.0  0.14107  0.82280  0.11289  1.0000
  H   H162      1.0  0.08697  0.80805  0.10921  1.0000
  H   H163      1.0  0.23740  0.71458  0.06094  1.0000
  C   C146      1.0  0.11881  0.90016  0.09057  1.0000
  C   C147      1.0  0.30602  0.96378  0.16197  1.0000
  H   H164      1.0  0.10412  0.67754  0.07097  1.0000
  C   C148      1.0  0.06173  0.88835  0.11779  1.0000
  C   C149      1.0  0.30370  0.94807  0.09963  1.0000
  C   C150      1.0  0.27918  0.94163  0.11863  1.0000
  C   C151      1.0  0.28037  0.94948  0.14964  1.0000
  H   H165      1.0  0.09426  0.90478  0.04896  1.0000
  H   H166      1.0  0.25902  0.93134  0.10926  1.0000
  H   H167      1.0  0.08825  0.82860  0.01428  1.0000
  C   C152      1.0  0.18964  0.55436  0.33432  1.0000
  C   C153      1.0  0.21624  0.56575  0.34763  1.0000
  C   C154      1.0  0.21632  0.57656  0.37779  1.0000
  C   C155      1.0  0.18978  0.57579  0.39509  1.0000
  C   C156      1.0  0.16305  0.56488  0.38157  1.0000
  C   C157      1.0  0.16289  0.55451  0.35130  1.0000
  H   H168      1.0  0.23704  0.56598  0.33466  1.0000
  H   H169      1.0  0.23705  0.58487  0.38787  1.0000
  H   H170      1.0  0.14241  0.56424  0.39476  1.0000
  H   H171      1.0  0.14209  0.54674  0.34114  1.0000
  N   N9        1.0  0.14546  0.63117  0.28304  1.0000
  C   C158      1.0  0.15618  0.60578  0.26362  1.0000
  C   C159      1.0  0.16830  0.65578  0.28110  1.0000
  C   C160      1.0  0.14456  0.62088  0.31499  1.0000
  C   C161      1.0  0.11475  0.64048  0.27336  1.0000
  C   C162      1.0  0.10806  0.66999  0.26233  1.0000
  C   C163      1.0  0.09048  0.61944  0.27422  1.0000
  C   C164      1.0  0.07888  0.67762  0.25267  1.0000
  C   C165      1.0  0.06143  0.62734  0.26458  1.0000
  C   C166      1.0  0.05566  0.65634  0.25375  1.0000
  H   H172      1.0  0.15551  0.61194  0.23921  1.0000
  H   H173      1.0  0.17983  0.59902  0.26920  1.0000
  H   H174      1.0  0.14228  0.58502  0.26640  1.0000
  H   H175      1.0  0.17124  0.66367  0.25735  1.0000
  H   H176      1.0  0.19102  0.64801  0.28886  1.0000
  H   H177      1.0  0.16202  0.67540  0.29579  1.0000
  H   H178      1.0  0.13043  0.60030  0.31795  1.0000
  H   H179      1.0  0.16752  0.61485  0.32350  1.0000
  H   H180      1.0  0.13525  0.63881  0.33021  1.0000
  H   H181      1.0  0.12499  0.68746  0.26034  1.0000
  H   H182      1.0  0.09389  0.59639  0.28157  1.0000
  H   H183      1.0  0.07439  0.69983  0.24323  1.0000
  H   H184      1.0  0.04361  0.61042  0.26419  1.0000
  N   N10       1.0  0.03165  0.88179  0.13117  1.0000
  C   C167      1.0  0.19881  0.74388  0.06578  1.0000
  H   H185      1.0  0.04484  0.89558  0.07187  1.0000
  H   H186      1.0  0.14234  0.84389  0.01809  1.0000
  C   C168      1.0  0.01250  0.90934  0.12986  1.0000
  H   H187      1.0  0.03340  0.66199  0.24514  1.0000
  H   H188      1.0  0.21143  0.76437  0.06069  1.0000
  H   H189      1.0  0.12318  0.72981  0.13352  1.0000
  H   H190      1.0  0.10529  0.72384  0.03848  1.0000
  H   H191      1.0  0.07785  0.69593  0.09587  1.0000
  H   H192      1.0  0.13762  0.89305  0.13466  1.0000
  C   C169      1.0  0.10243  0.69284  0.09102  1.0000
  C   C170      1.0  0.16790  0.74574  0.07215  1.0000
  H   H193      1.0  0.20862  0.66800  0.07279  1.0000
  H   H194      1.0  0.15779  0.76807  0.07178  1.0000
  C   C171      1.0  0.11698  0.89403  0.12143  1.0000
  H   H195      1.0  0.03214  0.83754  0.11099  1.0000
  C   C172      1.0  0.19713  0.68973  0.07263  1.0000
  S   S50       1.0  0.30570  0.97504  0.20066  1.0000
  C   C173      1.0  0.15051  0.71954  0.07891  1.0000
  H   H196      1.0  0.26101  0.94505  0.16397  1.0000
  H   H197      1.0  0.14072  0.90361  0.07996  1.0000
  H   H198      1.0  0.15495  0.67022  0.08417  1.0000
  H   H199      1.0  0.20725  0.51906  0.44526  1.0000
  C   C174      1.0  0.06443  0.89514  0.08647  1.0000
  C   C175      1.0  0.16613  0.69134  0.07910  1.0000
  H   H200      1.0  0.07740  0.73949  0.06386  1.0000
  C   C176      1.0  0.11351  0.74112  0.11321  1.0000
  C   C177      1.0  0.09259  0.90074  0.07313  1.0000
  C   C178      1.0  0.00922  0.76617  0.47676  1.0000
  H   H201      1.0  0.22669  0.51031  0.39352  1.0000
  H   H202      1.0  0.08911  0.74533  0.11795  1.0000
  H   H203      1.0  0.12453  0.76356  0.11142  1.0000
  C   C179      1.0  0.03304  0.87195  0.16332  1.0000
  N   N11       1.0  0.11776  0.72231  0.08561  1.0000
  H   H204      1.0  0.08932  0.88328  0.15893  1.0000
  C   C180      1.0  0.10217  0.73706  0.05980  1.0000
  C   C181      1.0  0.08894  0.88823  0.13503  1.0000
  H   H205      1.0  0.04697  0.85106  0.16581  1.0000
  S   S51       1.0  0.01598  0.72778  0.09358  1.0000
  H   H206      1.0  0.03370  0.76018  0.47825  1.0000
  H   H207      1.0  0.11060  0.76031  0.05548  1.0000
  C   C182      1.0  0.01666  0.85720  0.11373  1.0000
  C   C183      1.0  0.32974  0.96145  0.11223  1.0000
  H   H208      1.0  0.11172  0.68111  0.11129  1.0000
  H   H209      1.0  0.01837  0.60526  0.18440  1.0000
  H   H210      1.0  0.04220  0.89007  0.17833  1.0000
  H   H211      1.0  0.00858  0.79105  0.47274  1.0000
  H   H212      1.0  0.01017  0.86641  0.17247  1.0000
  H   H213      1.0  0.32338  0.90517  0.19874  1.0000
  C   C184      1.0  0.33096  0.96914  0.14325  1.0000
  H   H214      1.0  0.32227  0.87636  0.22662  1.0000
  H   H215      1.0  0.02326  0.92854  0.14226  1.0000
  C   C185      1.0  0.19412  0.50573  0.42928  1.0000
  H   H216      1.0  0.00854  0.91687  0.10619  1.0000
  H   H217      1.0  0.05643  0.61927  0.60133  1.0000
  C   C186      1.0  0.02821  0.66288  0.63137  1.0000
  S   S52       1.0  0.20191  0.68560  0.55148  1.0000
  C   C187      1.0  0.17964  0.97011  0.64964  1.0000
  S   S53       1.0  0.31043  0.58175  0.53622  1.0000
  H   H218      1.0  0.01515  0.67433  0.64971  1.0000
  Fe  Fe25      1.0  0.03546  0.74115  0.60448  1.0000
  S   S54       1.0  0.03970  0.73792  0.65520  1.0000
  S   S55       1.0  0.06044  0.71437  0.56754  1.0000
  H   H219      1.0  0.32716  0.58265  0.81418  1.0000
  S   S56       1.0  0.05483  0.81786  0.69097  1.0000
  S   S57       1.0  0.03016  0.79189  0.60520  1.0000
  H   H220      1.0  0.12873  0.95366  0.62576  1.0000
  S   S58       1.0  0.27338  0.90918  0.98350  1.0000
  S   S59       1.0  0.29583  0.82174  0.96583  1.0000
  Fe  Fe26      1.0  0.22242  0.90936  0.98126  1.0000
  S   S60       1.0  0.18954  0.93147  0.94799  1.0000
  S   S61       1.0  0.21821  0.85869  0.98505  1.0000
  Fe  Fe27      1.0  0.12284  0.98566  0.72543  1.0000
  S   S62       1.0  0.17360  0.98716  0.72846  1.0000
  S   S63       1.0  0.09978  0.95545  0.68987  1.0000
  C   C188      1.0  0.02779  0.56740  0.67360  1.0000
  H   H221      1.0  0.27374  0.70566  0.62653  1.0000
  H   H222      1.0  0.19383  0.98479  0.66454  1.0000
  C   C189      1.0  0.19395  0.94265  0.90967  1.0000
  C   C190      1.0  0.16807  0.94508  0.89130  1.0000
  C   C191      1.0  0.17019  0.95547  0.86121  1.0000
  C   C192      1.0  0.19822  0.96408  0.84933  1.0000
  C   C193      1.0  0.22416  0.96132  0.86758  1.0000
  C   C194      1.0  0.22207  0.95074  0.89761  1.0000
  H   H223      1.0  0.14620  0.93886  0.90043  1.0000
  H   H224      1.0  0.15014  0.95680  0.84725  1.0000
  H   H225      1.0  0.25316  0.66828  0.59031  1.0000
  H   H226      1.0  0.24202  0.94983  0.91173  1.0000
  H   H227      1.0  0.30364  0.54813  0.88789  1.0000
  C   C195      1.0  0.06893  0.85558  0.68957  1.0000
  C   C196      1.0  0.06786  0.87298  0.66318  1.0000
  C   C197      1.0  0.07760  0.90340  0.66371  1.0000
  C   C198      1.0  0.08910  0.91664  0.69041  1.0000
  C   C199      1.0  0.09103  0.89900  0.71656  1.0000
  C   C200      1.0  0.08082  0.86870  0.71614  1.0000
  H   H228      1.0  0.05955  0.86301  0.64240  1.0000
  H   H229      1.0  0.07610  0.91681  0.64333  1.0000
  H   H230      1.0  0.09986  0.90882  0.73724  1.0000
  H   H231      1.0  0.08190  0.85541  0.73664  1.0000
  C   C201      1.0  0.16239  0.69298  0.55571  1.0000
  C   C202      1.0  0.15227  0.71032  0.58065  1.0000
  C   C203      1.0  0.12124  0.71701  0.58475  1.0000
  C   C204      1.0  0.09988  0.70646  0.56384  1.0000
  C   C205      1.0  0.10993  0.68888  0.53908  1.0000
  C   C206      1.0  0.14095  0.68217  0.53501  1.0000
  H   H232      1.0  0.16861  0.71886  0.59680  1.0000
  H   H233      1.0  0.11397  0.73060  0.60388  1.0000
  H   H234      1.0  0.16357  0.95822  0.66507  1.0000
  C   C207      1.0  0.24392  0.87922  0.86117  1.0000
  C   C208      1.0  0.31153  0.57585  0.57593  1.0000
  C   C209      1.0  0.28535  0.57668  0.59375  1.0000
  C   C210      1.0  0.28698  0.57029  0.62497  1.0000
  C   C211      1.0  0.31473  0.56308  0.63877  1.0000
  H   H235      1.0  0.30670  0.89826  0.86519  1.0000
  S   S64       1.0  0.11672  0.99178  0.77589  1.0000
  H   H236      1.0  0.26372  0.58146  0.58332  1.0000
  H   H237      1.0  0.26649  0.57039  0.63843  1.0000
  C   C212      1.0  0.01003  0.94895  0.70715  1.0000
  Fe  Fe28      1.0  0.26899  0.85889  0.99030  1.0000
  C   C213      1.0  0.04078  0.62049  0.66311  1.0000
  N   N12       1.0  0.05345  0.64442  0.64340  1.0000
  C   C214      1.0  0.29390  0.73093  0.54047  1.0000
  C   C215      1.0  0.24012  0.83745  0.89555  1.0000
  H   H238      1.0  0.12753  0.00011  0.65743  1.0000
  H   H239      1.0  0.22086  0.88659  0.86847  1.0000
  S   S65       1.0  0.27649  0.65910  0.51435  1.0000
  Fe  Fe29      1.0  0.27478  0.60860  0.51007  1.0000
  C   C216      1.0  0.31188  0.87433  0.86521  1.0000
  H   H240      1.0  0.09369  0.68050  0.52277  1.0000
  H   H241      1.0  0.28464  0.80365  0.88170  1.0000
  H   H242      1.0  0.30995  0.51776  0.86183  1.0000
  H   H243      1.0  0.23553  0.82126  0.87672  1.0000
  S   S66       1.0  0.20213  0.97939  0.81240  1.0000
  C   C217      1.0  0.07095  0.63259  0.61708  1.0000
  S   S67       1.0  0.22397  0.60675  0.51271  1.0000
  Fe  Fe30      1.0  0.03060  0.78829  0.65595  1.0000
  C   C218      1.0  0.07403  0.66436  0.66107  1.0000
  H   H244      1.0  0.22711  0.99393  0.62744  1.0000
  H   H245      1.0  0.31808  0.63574  0.63079  1.0000
  C   C219      1.0  0.02516  0.62842  0.69018  1.0000
  H   H246      1.0  0.26588  0.71670  0.57686  1.0000
  H   H247      1.0  0.29867  0.50976  0.53515  1.0000
  H   H248      1.0  0.25034  0.82494  0.91493  1.0000
  S   S68       1.0  0.31503  0.55411  0.67796  1.0000
  H   H249      1.0  0.08493  0.68181  0.64647  1.0000
  H   H250      1.0  0.03015  0.77209  0.53276  1.0000
  C   C220      1.0  0.32084  0.72682  0.52454  1.0000
  H   H251      1.0  0.02348  0.71997  0.50976  1.0000
  H   H252      1.0  0.27556  0.90468  0.90587  1.0000
  C   C221      1.0  0.29411  0.69123  0.62975  1.0000
  H   H253      1.0  0.06204  0.67716  0.67923  1.0000
  H   H254      1.0  0.28968  0.67736  0.65031  1.0000
  Fe  Fe31      1.0  0.16742  0.99700  0.77823  1.0000
  C   C222      1.0  0.28772  0.71354  0.56617  1.0000
  H   H255      1.0  0.27715  0.74681  0.53216  1.0000
  H   H256      1.0  0.00626  0.84871  0.65738  1.0000
  C   C223      1.0  0.01242  0.57606  0.69984  1.0000
  C   C224      1.0  0.01144  0.60646  0.70828  1.0000
  H   H257      1.0  0.32508  0.73946  0.50393  1.0000
  H   H258      1.0  0.03650  0.68090  0.61597  1.0000
  H   H259      1.0  0.14831  0.66880  0.51574  1.0000
  H   H260      1.0  0.25593  0.90022  0.85430  1.0000
  H   H261      1.0  0.15623  0.95091  0.59572  1.0000
  C   C225      1.0  0.33221  0.82572  0.94916  1.0000
  N   N13       1.0  0.16339  0.98820  0.62646  1.0000
  C   C226      1.0  0.29922  0.82174  0.87421  1.0000
  C   C227      1.0  0.29013  0.85268  0.87478  1.0000
  H   H262      1.0  0.27707  0.63889  0.57577  1.0000
  C   C228      1.0  0.31613  0.56916  0.83230  1.0000
  H   H263      1.0  0.09032  0.61832  0.62452  1.0000
  H   H264      1.0  0.24159  0.89006  0.92198  1.0000
  H   H265      1.0  0.27735  0.87216  0.92983  1.0000
  N   N14       1.0  0.30051  0.67194  0.60287  1.0000
  C   C229      1.0  0.14301  0.96716  0.60986  1.0000
  C   C230      1.0  0.04190  0.58915  0.65542  1.0000
  N   N15       1.0  0.25995  0.86272  0.88559  1.0000
  H   H266      1.0  0.30366  0.55061  0.82044  1.0000
  C   C231      1.0  0.26376  0.88334  0.91187  1.0000
  H   H267      1.0  0.21773  0.84585  0.90372  1.0000
  H   H268      1.0  0.24140  0.86476  0.84059  1.0000
  H   H269      1.0  0.29916  0.58402  0.84368  1.0000
  H   H270      1.0  0.09234  0.65096  0.67198  1.0000
  H   H271      1.0  0.01201  0.64862  0.61833  1.0000
  H   H272      1.0  0.31356  0.70647  0.63478  1.0000
  H   H273      1.0  0.08065  0.65135  0.60320  1.0000
  H   H274      1.0  0.26632  0.63910  0.61492  1.0000
  Fe  Fe32      1.0  0.22543  0.65771  0.51414  1.0000
  H   H275      1.0  0.24593  0.96809  0.85864  1.0000
  C   C232      1.0  0.27309  0.65390  0.59572  1.0000
  C   C233      1.0  0.30843  0.69129  0.57665  1.0000
  H   H276      1.0  0.02188  0.96648  0.71970  1.0000
  C   C234      1.0  0.00533  0.77587  0.53008  1.0000
  H   H277      1.0  0.05307  0.58088  0.63527  1.0000
  H   H278      1.0  0.02826  0.54368  0.66711  1.0000
  C   C235      1.0  0.01417  0.91866  0.71470  1.0000
  H   H279      1.0  0.19422  0.95246  0.63902  1.0000
  H   H280      1.0  0.02923  0.91276  0.73314  1.0000
  H   H281      1.0  0.00660  0.87501  0.62650  1.0000
  H   H282      1.0  0.02231  0.65183  0.69705  1.0000
  H   H283      1.0  0.12685  0.97923  0.59494  1.0000
  C   C236      1.0  0.32157  0.53609  0.87481  1.0000
  H   H284      1.0  0.33002  0.63441  0.59232  1.0000
  H   H285      1.0  0.28297  0.50866  0.58884  1.0000
  C   C237      1.0  0.32482  0.65028  0.61132  1.0000
  H   H286      1.0  0.00480  0.87265  0.70414  1.0000
  H   H287      1.0  0.33573  0.77814  0.93839  1.0000
  C   C238      1.0  0.32829  0.81328  0.86479  1.0000
  H   H288      1.0  0.33505  0.78966  0.86518  1.0000
  H   H289      1.0  0.41282  0.25274  0.02762  1.0000
  C   C239      1.0  0.61256  0.36006  0.47003  1.0000
  C   C240      1.0  0.59750  0.41411  0.12416  1.0000
  Fe  Fe33      1.0  0.59621  0.49084  0.23690  1.0000
  S   S69       1.0  0.56186  0.46640  0.20669  1.0000
  H   H290      1.0  0.38557  0.24931  0.16200  1.0000
  Fe  Fe34      1.0  0.52115  0.29728  0.14572  1.0000
  S   S70       1.0  0.52757  0.29309  0.09515  1.0000
  S   S71       1.0  0.55350  0.32473  0.17582  1.0000
  Fe  Fe35      1.0  0.47430  0.24503  0.14661  1.0000
  S   S72       1.0  0.47763  0.23772  0.09637  1.0000
  S   S73       1.0  0.44146  0.21962  0.17740  1.0000
  Fe  Fe36      1.0  0.52815  0.24268  0.10233  1.0000
  S   S74       1.0  0.56028  0.20598  0.08432  1.0000
  Fe  Fe37      1.0  0.47649  0.28868  0.09351  1.0000
  S   S75       1.0  0.45016  0.31288  0.05629  1.0000
  S   S76       1.0  0.52456  0.24680  0.15300  1.0000
  S   S77       1.0  0.47013  0.29606  0.14360  1.0000
  Fe  Fe38      1.0  0.39285  0.05041  0.21974  1.0000
  H   H291      1.0  0.34299  0.18595  0.43949  1.0000
  S   S78       1.0  0.41830  0.07690  0.18337  1.0000
  Fe  Fe39      1.0  0.35412  0.04740  0.27718  1.0000
  H   H292      1.0  0.61464  0.43824  0.16216  1.0000
  S   S79       1.0  0.40464  0.04663  0.26909  1.0000
  C   C241      1.0  0.38426  0.03367  0.12847  1.0000
  C   C242      1.0  0.38452  0.39128  0.12928  1.0000
  H   H293      1.0  0.65729  0.16363  0.04953  1.0000
  C   C243      1.0  0.43664  0.17972  0.17956  1.0000
  C   C244      1.0  0.41754  0.16777  0.20206  1.0000
  C   C245      1.0  0.41200  0.13635  0.20384  1.0000
  C   C246      1.0  0.42533  0.11654  0.18290  1.0000
  C   C247      1.0  0.44413  0.12852  0.16015  1.0000
  C   C248      1.0  0.44987  0.15991  0.15852  1.0000
  H   H294      1.0  0.40710  0.18290  0.21838  1.0000
  H   H295      1.0  0.39744  0.12749  0.22143  1.0000
  H   H296      1.0  0.45462  0.11340  0.14387  1.0000
  H   H297      1.0  0.46453  0.16877  0.14102  1.0000
  C   C249      1.0  0.41091  0.32169  0.05630  1.0000
  C   C250      1.0  0.39254  0.31631  0.08151  1.0000
  C   C251      1.0  0.36104  0.32131  0.07983  1.0000
  H   H298      1.0  0.59081  0.23126  0.16017  1.0000
  C   C252      1.0  0.36626  0.33912  0.02841  1.0000
  C   C253      1.0  0.39768  0.33365  0.02997  1.0000
  H   H299      1.0  0.40268  0.30792  0.10204  1.0000
  C   C254      1.0  0.61345  0.43792  0.13767  1.0000
  H   H300      1.0  0.65390  0.28546  0.17919  1.0000
  C   C255      1.0  0.33775  0.25693  0.04324  1.0000
  C   C256      1.0  0.59658  0.20889  0.06708  1.0000
  C   C257      1.0  0.60723  0.23601  0.05476  1.0000
  C   C258      1.0  0.63580  0.23698  0.04054  1.0000
  C   C259      1.0  0.38394  0.25469  0.13742  1.0000
  C   C260      1.0  0.64332  0.18373  0.05048  1.0000
  C   C261      1.0  0.61476  0.18277  0.06475  1.0000
  H   H301      1.0  0.59326  0.25612  0.05570  1.0000
  H   H302      1.0  0.34108  0.14701  0.49181  1.0000
  H   H303      1.0  0.60671  0.16167  0.07415  1.0000
  C   C262      1.0  0.62000  0.33158  0.48295  1.0000
  H   H304      1.0  0.57350  0.38942  0.46061  1.0000
  C   C263      1.0  0.55932  0.42680  0.19917  1.0000
  C   C264      1.0  0.53622  0.41595  0.18003  1.0000
  C   C265      1.0  0.53380  0.38481  0.17287  1.0000
  C   C266      1.0  0.55460  0.36411  0.18474  1.0000
  C   C267      1.0  0.57773  0.37498  0.20383  1.0000
  C   C268      1.0  0.58009  0.40608  0.21104  1.0000
  H   H305      1.0  0.52009  0.43177  0.17064  1.0000
  H   H306      1.0  0.51593  0.37687  0.15811  1.0000
  H   H307      1.0  0.59390  0.35922  0.21324  1.0000
  H   H308      1.0  0.59794  0.41401  0.22585  1.0000
  C   C269      1.0  0.65561  0.38964  0.48565  1.0000
  H   H309      1.0  0.35450  0.11147  0.47797  1.0000
  C   C270      1.0  0.60228  0.27660  0.12299  1.0000
  H   H310      1.0  0.60421  0.43424  0.05045  1.0000
  C   C271      1.0  0.34822  0.13476  0.47088  1.0000
  C   C272      1.0  0.36821  0.08567  0.12341  1.0000
  H   H311      1.0  0.53584  0.35617  0.48275  1.0000
  H   H312      1.0  0.37732  0.03316  0.15269  1.0000
  H   H313      1.0  0.36290  0.08653  0.14804  1.0000
  C   C273      1.0  0.36453  0.25832  0.02663  1.0000
  C   C274      1.0  0.64846  0.21457  0.13946  1.0000
  C   C275      1.0  0.60703  0.43525  0.07484  1.0000
  H   H314      1.0  0.39132  0.09459  0.34709  1.0000
  S   S80       1.0  0.34276  0.05371  0.22766  1.0000
  H   H315      1.0  0.58999  0.25730  0.11243  1.0000
  C   C276      1.0  0.66769  0.25836  0.11276  1.0000
  C   C277      1.0  0.38196  0.13699  0.36944  1.0000
  C   C278      1.0  0.39243  0.24105  0.07036  1.0000
  C   C279      1.0  0.65626  0.36484  0.43677  1.0000
  H   H316      1.0  0.37874  0.03229  0.06896  1.0000
  C   C280      1.0  0.37847  0.13591  0.42504  1.0000
  H   H317      1.0  0.61958  0.30684  0.17405  1.0000
  H   H318      1.0  0.66835  0.34507  0.44643  1.0000
  H   H319      1.0  0.38021  0.14927  0.34829  1.0000
  N   N16       1.0  0.64371  0.48611  0.13505  1.0000
  H   H320      1.0  0.34690  0.31639  0.09919  1.0000
  H   H321      1.0  0.35294  0.10186  0.11173  1.0000
  N   N17       1.0  0.63681  0.38057  0.45936  1.0000
  H   H322      1.0  0.61798  0.24156  0.18922  1.0000
  C   C281      1.0  0.37342  0.39326  0.09987  1.0000
  H   H323      1.0  0.37267  0.27713  0.13532  1.0000
  H   H324      1.0  0.64386  0.25808  0.03115  1.0000
  H   H325      1.0  0.40807  0.20360  0.11808  1.0000
  H   H326      1.0  0.39798  0.16059  0.49574  1.0000
  H   H327      1.0  0.39427  0.06570  0.39481  1.0000
  C   C282      1.0  0.39180  0.25029  0.04013  1.0000
  H   H328      1.0  0.38638  0.09081  0.44360  1.0000
  N   N18       1.0  0.62279  0.26586  0.14717  1.0000
  C   C283      1.0  0.56629  0.17336  0.00535  1.0000
  H   H329      1.0  0.58682  0.26595  0.18048  1.0000
  H   H330      1.0  0.36433  0.07047  0.06437  1.0000
  C   C284      1.0  0.37788  0.05538  0.07927  1.0000
  C   C285      1.0  0.63683  0.29259  0.16213  1.0000
  C   C286      1.0  0.65398  0.21087  0.03821  1.0000
  H   H331      1.0  0.64810  0.30791  0.14576  1.0000
  C   C287      1.0  0.60395  0.25032  0.17028  1.0000
  H   H332      1.0  0.41175  0.33820  0.01043  1.0000
  N   N19       1.0  0.36727  0.23094  0.12044  1.0000
  C   C288      1.0  0.40090  0.14895  0.47344  1.0000
  C   C289      1.0  0.62319  0.45914  0.08810  1.0000
  H   H333      1.0  0.63226  0.47587  0.07282  1.0000
  H   H334      1.0  0.40764  0.25726  0.12924  1.0000
  H   H335      1.0  0.37492  0.39779  0.17654  1.0000
  H   H336      1.0  0.38259  0.19687  0.44198  1.0000
  H   H337      1.0  0.54796  0.21833  0.00885  1.0000
  H   H338      1.0  0.38311  0.19349  0.14758  1.0000
  H   H339      1.0  0.64266  0.35665  0.41716  1.0000
  H   H340      1.0  0.41429  0.23640  0.08012  1.0000
  C   C290      1.0  0.38998  0.08988  0.39560  1.0000
  C   C291      1.0  0.38838  0.10611  0.36868  1.0000
  C   C292      1.0  0.58141  0.36824  0.46980  1.0000
  H   H341      1.0  0.40854  0.04051  0.12834  1.0000
  H   H342      1.0  0.61246  0.42308  0.46114  1.0000
  C   C293      1.0  0.38360  0.20171  0.12375  1.0000
  C   C294      1.0  0.36435  0.18310  0.45253  1.0000
  C   C295      1.0  0.62699  0.46111  0.12007  1.0000
  N   N20       1.0  0.37305  0.15065  0.45481  1.0000
  H   H343      1.0  0.61314  0.48890  0.17333  1.0000
  H   H344      1.0  0.58493  0.29249  0.13200  1.0000
  C   C296      1.0  0.34768  0.33236  0.05315  1.0000
  S   S81       1.0  0.64598  0.48132  0.23396  1.0000
  C   C297      1.0  0.36564  0.23947  0.08805  1.0000
  C   C298      1.0  0.38522  0.10447  0.42339  1.0000
  C   C299      1.0  0.37707  0.15185  0.39711  1.0000
  C   C300      1.0  0.55938  0.34925  0.48234  1.0000
  H   H345      1.0  0.66665  0.36991  0.49665  1.0000
  H   H346      1.0  0.64325  0.32415  0.48495  1.0000
  N   N21       1.0  0.36531  0.05466  0.11050  1.0000
  H   H347      1.0  0.35634  0.34772  0.00777  1.0000
  H   H348      1.0  0.58727  0.39678  0.13816  1.0000
  H   H349      1.0  0.61112  0.40359  0.42482  1.0000
  H   H350      1.0  0.61445  0.28869  0.10466  1.0000
  C   C301      1.0  0.64642  0.24618  0.13356  1.0000
  C   C302      1.0  0.33635  0.40918  0.14881  1.0000
  C   C303      1.0  0.62547  0.40874  0.44491  1.0000
  H   H351      1.0  0.38773  0.38674  0.08089  1.0000
  H   H352      1.0  0.58145  0.39446  0.08256  1.0000
  H   H353      1.0  0.40160  0.06398  0.07903  1.0000
  C   C304      1.0  0.34378  0.40299  0.09472  1.0000
  S   S82       1.0  0.59594  0.49495  0.28791  1.0000
  H   H354      1.0  0.37193  0.17571  0.39591  1.0000
  H   H355      1.0  0.36015  0.19342  0.47525  1.0000
  H   H356      1.0  0.64444  0.42327  0.43669  1.0000
  H   H357      1.0  0.36430  0.26682  0.00363  1.0000
  H   H358      1.0  0.40748  0.38344  0.13310  1.0000
  Fe  Fe40      1.0  0.64641  0.48796  0.28482  1.0000
  C   C305      1.0  0.59422  0.41279  0.09283  1.0000
  H   H359      1.0  0.39185  0.09433  0.12169  1.0000
  C   C306      1.0  0.36607  0.39928  0.15369  1.0000
  H   H360      1.0  0.63281  0.20300  0.15419  1.0000
  H   H361      1.0  0.38281  0.01011  0.11952  1.0000
  H   H362      1.0  0.37361  0.18383  0.10904  1.0000
  H   H363      1.0  0.42035  0.15989  0.46172  1.0000
  C   C307      1.0  0.66867  0.47360  0.15369  1.0000
  H   H364      1.0  0.40755  0.12521  0.47846  1.0000
  H   H365      1.0  0.33920  0.22012  0.15901  1.0000
  C   C308      1.0  0.59778  0.31272  0.49517  1.0000
  C   C309      1.0  0.33811  0.24768  0.07352  1.0000
  H   H366      1.0  0.66687  0.28189  0.10621  1.0000
  H   H367      1.0  0.33619  0.40365  0.07143  1.0000
  C   C310      1.0  0.33713  0.22747  0.13497  1.0000
  H   H368      1.0  0.66321  0.49324  0.36396  1.0000
  H   H369      1.0  0.55113  0.16440  0.02246  1.0000
  H   H370      1.0  0.66034  0.45871  0.17211  1.0000
  C   C311      1.0  0.56758  0.32168  0.49519  1.0000
  H   H371      1.0  0.62291  0.20891  0.94881  1.0000
  S   S83       1.0  0.60443  0.03873  0.77181  1.0000
  H   H372      1.0  0.39965  0.22424  0.65954  1.0000
  Fe  Fe41      1.0  0.60685  0.03858  0.72107  1.0000
  S   S84       1.0  0.57435  0.06434  0.69013  1.0000
  H   H373      1.0  0.34652  0.15915  0.54631  1.0000
  Fe  Fe42      1.0  0.39921  0.48469  0.72014  1.0000
  H   H374      1.0  0.41099  0.38801  0.84730  1.0000
  S   S85       1.0  0.43238  0.45342  0.69544  1.0000
  H   H375      1.0  0.63909  0.10410  0.93494  1.0000
  H   H376      1.0  0.41248  0.25879  0.64339  1.0000
  C   C312      1.0  0.39552  0.24037  0.64076  1.0000
  Fe  Fe43      1.0  0.52135  0.23416  0.65497  1.0000
  S   S86       1.0  0.52582  0.23135  0.60417  1.0000
  S   S87       1.0  0.54873  0.20710  0.68963  1.0000
  Fe  Fe44      1.0  0.47139  0.28371  0.65143  1.0000
  S   S88       1.0  0.47243  0.28356  0.60054  1.0000
  S   S89       1.0  0.43436  0.30976  0.67725  1.0000
  Fe  Fe45      1.0  0.47453  0.23280  0.60377  1.0000
  S   S90       1.0  0.44574  0.19714  0.57932  1.0000
  Fe  Fe46      1.0  0.52354  0.28251  0.60553  1.0000
  S   S91       1.0  0.55061  0.31778  0.57874  1.0000
  S   S92       1.0  0.47068  0.23270  0.65455  1.0000
  S   S93       1.0  0.52202  0.28549  0.65652  1.0000
  C   C313      1.0  0.65287  0.32415  0.55819  1.0000
  C   C314      1.0  0.63420  0.34963  0.55586  1.0000
  C   C315      1.0  0.60310  0.34745  0.56290  1.0000
  C   C316      1.0  0.59042  0.32002  0.57304  1.0000
  C   C317      1.0  0.60940  0.29491  0.57660  1.0000
  C   C318      1.0  0.64039  0.29698  0.56911  1.0000
  H   H377      1.0  0.40010  0.49134  0.65754  1.0000
  H   H378      1.0  0.58863  0.36701  0.56011  1.0000
  H   H379      1.0  0.60000  0.27366  0.58430  1.0000
  H   H380      1.0  0.63874  0.10889  0.75181  1.0000
  N   N22       1.0  0.37574  0.46982  0.62107  1.0000
  C   C319      1.0  0.36942  0.23245  0.54114  1.0000
  C   C320      1.0  0.39845  0.22989  0.55406  1.0000
  C   C321      1.0  0.40903  0.20171  0.56375  1.0000
  C   C322      1.0  0.39018  0.17621  0.56056  1.0000
  C   C323      1.0  0.36097  0.17884  0.54801  1.0000
  C   C324      1.0  0.34394  0.46173  0.85127  1.0000
  H   H381      1.0  0.41286  0.24961  0.55609  1.0000
  H   H382      1.0  0.39816  0.15434  0.56816  1.0000
  H   H383      1.0  0.46954  0.42689  0.75489  1.0000
  C   C325      1.0  0.43161  0.41354  0.68987  1.0000
  C   C326      1.0  0.45578  0.39972  0.67429  1.0000
  C   C327      1.0  0.45672  0.36809  0.66989  1.0000
  C   C328      1.0  0.43339  0.34986  0.68098  1.0000
  C   C329      1.0  0.40884  0.36371  0.69605  1.0000
  C   C330      1.0  0.40793  0.39541  0.70052  1.0000
  H   H384      1.0  0.47420  0.41352  0.66594  1.0000
  H   H385      1.0  0.47573  0.35777  0.65825  1.0000
  H   H386      1.0  0.39074  0.34980  0.70481  1.0000
  H   H387      1.0  0.38925  0.40572  0.71259  1.0000
  C   C331      1.0  0.56634  0.10389  0.69090  1.0000
  C   C332      1.0  0.55138  0.11717  0.66616  1.0000
  C   C333      1.0  0.54523  0.14858  0.66563  1.0000
  C   C334      1.0  0.55396  0.16708  0.68995  1.0000
  C   C335      1.0  0.56829  0.15364  0.71499  1.0000
  C   C336      1.0  0.57432  0.12223  0.71554  1.0000
  H   H388      1.0  0.54489  0.10320  0.64704  1.0000
  H   H389      1.0  0.53417  0.15854  0.64622  1.0000
  H   H390      1.0  0.57491  0.16770  0.73397  1.0000
  H   H391      1.0  0.58508  0.11213  0.73497  1.0000
  C   C337      1.0  0.65236  0.16122  0.93467  1.0000
  C   C338      1.0  0.35444  0.47902  0.59693  1.0000
  C   C339      1.0  0.62119  0.11840  0.94583  1.0000
  H   H392      1.0  0.45816  0.33070  0.74925  1.0000
  C   C340      1.0  0.36412  0.40548  0.78891  1.0000
  N   N23       1.0  0.63402  0.14672  0.95884  1.0000
  H   H393      1.0  0.66486  0.18136  0.94338  1.0000
  H   H394      1.0  0.42446  0.43132  0.78645  1.0000
  H   H395      1.0  0.36070  0.24884  0.68938  1.0000
  H   H396      1.0  0.66574  0.15926  0.99343  1.0000
  C   C341      1.0  0.53203  0.00650  0.74382  1.0000
  C   C342      1.0  0.46714  0.37843  0.75100  1.0000
  H   H397      1.0  0.50162  0.04014  0.70647  1.0000
  H   H398      1.0  0.37759  0.43861  0.65855  1.0000
  C   C343      1.0  0.35749  0.26553  0.67091  1.0000
  H   H399      1.0  0.63804  0.16818  0.91521  1.0000
  C   C344      1.0  0.65232  0.15199  0.71013  1.0000
  C   C345      1.0  0.35055  0.20699  0.53803  1.0000
  H   H400      1.0  0.40057  0.43667  0.59484  1.0000
  Fe  Fe47      1.0  0.34836  0.49285  0.76645  1.0000
  H   H401      1.0  0.66327  0.03882  0.84889  1.0000
  H   H402      1.0  0.36555  0.45713  0.89490  1.0000
  C   C346      1.0  0.40463  0.45686  0.60948  1.0000
  H   H403      1.0  0.61814  0.20516  0.66480  1.0000
  C   C347      1.0  0.41408  0.38295  0.78715  1.0000
  N   N24       1.0  0.38609  0.38625  0.80543  1.0000
  S   S94       1.0  0.34865  0.48196  0.71653  1.0000
  H   H404      1.0  0.60414  0.29162  0.50597  1.0000
  H   H405      1.0  0.48684  0.37681  0.73639  1.0000
  H   H406      1.0  0.41308  0.33347  0.78043  1.0000
  C   C348      1.0  0.36333  0.27767  0.61841  1.0000
  C   C349      1.0  0.58499  0.21604  0.97714  1.0000
  C   C350      1.0  0.39327  0.40091  0.83491  1.0000
  H   H407      1.0  0.51943  0.01200  0.76500  1.0000
  H   H408      1.0  0.36400  0.47029  0.84021  1.0000
  N   N25       1.0  0.36423  0.25246  0.64059  1.0000
  H   H409      1.0  0.64354  0.37090  0.54843  1.0000
  H   H410      1.0  0.37285  0.28486  0.67634  1.0000
  C   C351      1.0  0.34483  0.45405  0.88220  1.0000
  H   H411      1.0  0.65464  0.27716  0.57128  1.0000
  C   C352      1.0  0.60967  0.16643  0.97103  1.0000
  C   C353      1.0  0.45088  0.35245  0.75832  1.0000
  C   C354      1.0  0.36161  0.44660  0.64078  1.0000
  H   H412      1.0  0.37218  0.42916  0.78619  1.0000
  C   C355      1.0  0.56454  0.20388  0.99779  1.0000
  C   C356      1.0  0.60733  0.19775  0.96392  1.0000
  C   C357      1.0  0.42471  0.35449  0.77612  1.0000
  C   C358      1.0  0.64166  0.18057  0.69979  1.0000
  H   H413      1.0  0.61062  0.10375  0.96323  1.0000
  S   S95       1.0  0.39886  0.49194  0.77059  1.0000
  Fe  Fe48      1.0  0.65528  0.03947  0.77086  1.0000
  H   H414      1.0  0.35573  0.19982  0.67239  1.0000
  H   H415      1.0  0.36954  0.26968  0.59528  1.0000
  H   H416      1.0  0.36159  0.25431  0.53338  1.0000
  H   H417      1.0  0.40084  0.22825  0.61929  1.0000
  H   H418      1.0  0.37991  0.29584  0.62431  1.0000
  H   H419      1.0  0.35958  0.39634  0.76581  1.0000
  H   H420      1.0  0.62847  0.10996  0.64891  1.0000
  H   H421      1.0  0.54354  0.02772  0.73651  1.0000
  C   C359      1.0  0.37091  0.35700  0.81208  1.0000
  H   H422      1.0  0.58967  0.13167  0.99988  1.0000
  H   H423      1.0  0.41799  0.47390  0.59666  1.0000
  C   C360      1.0  0.34117  0.20186  0.65285  1.0000
  H   H424      1.0  0.60390  0.12353  0.92828  1.0000
  C   C361      1.0  0.58851  0.15485  0.99230  1.0000
  C   C362      1.0  0.45738  0.40659  0.76149  1.0000
  H   H425      1.0  0.62218  0.14487  0.76148  1.0000
  H   H426      1.0  0.34062  0.28851  0.61763  1.0000
  H   H427      1.0  0.47446  0.02335  0.73182  1.0000
  C   C363      1.0  0.43131  0.40890  0.77932  1.0000
  C   C364      1.0  0.48981  0.01856  0.71234  1.0000
  H   H428      1.0  0.34203  0.40715  0.80105  1.0000
  H   H429      1.0  0.64321  0.20094  0.71328  1.0000
  H   H430      1.0  0.58406  0.24002  0.97201  1.0000
  C   C365      1.0  0.64391  0.13216  0.76020  1.0000
  S   S96       1.0  0.65755  0.04260  0.71977  1.0000
  H   H431      1.0  0.40158  0.42451  0.83223  1.0000
  C   C366      1.0  0.62302  0.15815  0.65323  1.0000
  C   C367      1.0  0.36261  0.47958  0.56574  1.0000
  H   H432      1.0  0.36351  0.34537  0.79091  1.0000
  H   H433      1.0  0.61086  0.16034  0.63203  1.0000
  C   C368      1.0  0.63300  0.12984  0.66274  1.0000
  H   H434      1.0  0.65426  0.19065  0.76129  1.0000
  C   C369      1.0  0.38329  0.49677  0.63969  1.0000
  H   H435      1.0  0.34934  0.49140  0.52022  1.0000
  H   H436      1.0  0.41962  0.44931  0.62835  1.0000
  H   H437      1.0  0.35437  0.42651  0.62730  1.0000
  C   C370      1.0  0.65474  0.13867  0.98386  1.0000
  C   C371      1.0  0.62730  0.18343  0.67171  1.0000
  H   H438      1.0  0.35014  0.36034  0.82612  1.0000
  H   H439      1.0  0.37297  0.40241  0.84990  1.0000
  H   H440      1.0  0.65260  0.12961  0.78372  1.0000
  C   C372      1.0  0.34272  0.22762  0.63375  1.0000
  H   H441      1.0  0.38600  0.34160  0.82509  1.0000
  H   H442      1.0  0.38461  0.47253  0.55776  1.0000
  C   C373      1.0  0.34247  0.49026  0.54378  1.0000
  H   H443      1.0  0.47561  0.01280  0.69242  1.0000
  N   N26       1.0  0.66602  0.14778  0.74045  1.0000
  C   C374      1.0  0.64724  0.12670  0.69080  1.0000
  H   H444      1.0  0.34155  0.45534  0.65322  1.0000
  H   H445      1.0  0.65314  0.10406  0.69766  1.0000
  H   H446      1.0  0.54440  0.00758  0.68601  1.0000
  H   H447      1.0  0.55062  0.30754  0.50594  1.0000
  H   H448      1.0  0.64174  0.40147  0.50314  1.0000
  H   H449      1.0  0.64297  0.12700  0.00274  1.0000
  H   H450      1.0  0.38033  0.81768  0.28797  1.0000
  S   S97       1.0  0.60163  0.54137  0.22979  1.0000
  C   C375      1.0  0.66203  0.82373  0.44238  1.0000
  Fe  Fe49      1.0  0.60597  0.54475  0.28061  1.0000
  S   S98       1.0  0.58970  0.58182  0.31358  1.0000
  H   H451      1.0  0.46691  0.86148  0.41008  1.0000
  C   C376      1.0  0.62547  0.68782  0.30944  1.0000
  C   C377      1.0  0.38975  0.83267  0.27098  1.0000
  S   S99       1.0  0.43585  0.96192  0.27584  1.0000
  C   C378      1.0  0.49555  0.93781  0.36308  1.0000
  N   N27       1.0  0.65497  0.63324  0.24844  1.0000
  C   C379      1.0  0.45197  0.92013  0.39127  1.0000
  Fe  Fe50      1.0  0.47253  0.74495  0.40040  1.0000
  S   S100      1.0  0.46188  0.74941  0.35097  1.0000
  S   S101      1.0  0.44644  0.71344  0.43212  1.0000
  Fe  Fe51      1.0  0.52812  0.78808  0.39533  1.0000
  S   S102      1.0  0.52055  0.79460  0.34514  1.0000
  S   S103      1.0  0.55931  0.82017  0.42222  1.0000
  Fe  Fe52      1.0  0.47110  0.79932  0.35676  1.0000
  S   S104      1.0  0.43499  0.83410  0.34347  1.0000
  Fe  Fe53      1.0  0.51217  0.74387  0.34407  1.0000
  S   S105      1.0  0.52792  0.71284  0.30539  1.0000
  S   S106      1.0  0.47877  0.79495  0.40688  1.0000
  S   S107      1.0  0.52272  0.73710  0.39343  1.0000
  S   S108      1.0  0.39120  0.99977  0.21298  1.0000
  C   C380      1.0  0.43475  0.92617  0.29427  1.0000
  C   C381      1.0  0.46083  0.90784  0.29376  1.0000
  C   C382      1.0  0.46146  0.87970  0.30875  1.0000
  C   C383      1.0  0.43600  0.86965  0.32466  1.0000
  C   C384      1.0  0.40990  0.88794  0.32509  1.0000
  C   C385      1.0  0.40927  0.91609  0.31013  1.0000
  H   H452      1.0  0.48068  0.91546  0.28163  1.0000
  H   H453      1.0  0.48146  0.86563  0.30755  1.0000
  H   H454      1.0  0.39007  0.88035  0.33729  1.0000
  H   H455      1.0  0.38932  0.93021  0.31149  1.0000
  C   C386      1.0  0.57193  0.61792  0.31051  1.0000
  C   C387      1.0  0.56119  0.62929  0.28300  1.0000
  C   C388      1.0  0.54755  0.65821  0.28192  1.0000
  C   C389      1.0  0.54427  0.67606  0.30825  1.0000
  C   C390      1.0  0.55476  0.66458  0.33580  1.0000
  C   C391      1.0  0.56845  0.63571  0.33688  1.0000
  H   H456      1.0  0.56317  0.61577  0.26261  1.0000
  H   H457      1.0  0.53954  0.66686  0.26048  1.0000
  H   H458      1.0  0.55281  0.67815  0.35619  1.0000
  H   H459      1.0  0.57672  0.62718  0.35827  1.0000
  C   C392      1.0  0.43289  0.84999  0.24249  1.0000
  C   C393      1.0  0.64275  0.84721  0.45153  1.0000
  C   C394      1.0  0.61147  0.84567  0.44513  1.0000
  C   C395      1.0  0.59907  0.82089  0.42916  1.0000
  C   C396      1.0  0.61847  0.79769  0.41951  1.0000
  C   C397      1.0  0.64971  0.79912  0.42613  1.0000
  H   H460      1.0  0.37990  0.86868  0.03454  1.0000
  H   H461      1.0  0.59676  0.86378  0.45272  1.0000
  H   H462      1.0  0.60935  0.77846  0.40728  1.0000
  H   H463      1.0  0.34881  0.96642  0.09771  1.0000
  H   H464      1.0  0.59684  0.72666  0.30281  1.0000
  C   C398      1.0  0.35558  0.71935  0.41492  1.0000
  C   C399      1.0  0.38711  0.72433  0.41379  1.0000
  C   C400      1.0  0.40643  0.70855  0.43322  1.0000
  C   C401      1.0  0.39376  0.68779  0.45380  1.0000
  C   C402      1.0  0.36220  0.68274  0.45487  1.0000
  H   H465      1.0  0.51216  0.65064  0.39208  1.0000
  H   H466      1.0  0.39643  0.74040  0.39787  1.0000
  H   H467      1.0  0.40848  0.67532  0.46882  1.0000
  C   C403      1.0  0.51176  0.87169  0.37176  1.0000
  H   H468      1.0  0.61631  0.62458  0.21964  1.0000
  S   S109      1.0  0.65654  0.53762  0.28038  1.0000
  C   C404      1.0  0.38329  0.64200  0.39086  1.0000
  S   S110      1.0  0.34929  0.99651  0.27499  1.0000
  C   C405      1.0  0.64010  0.65927  0.26372  1.0000
  C   C406      1.0  0.60815  0.70479  0.26064  1.0000
  H   H469      1.0  0.45681  0.84829  0.23723  1.0000
  H   H470      1.0  0.33965  0.93906  0.24063  1.0000
  H   H471      1.0  0.51879  0.93613  0.35566  1.0000
  H   H472      1.0  0.40209  0.57461  0.42213  1.0000
  H   H473      1.0  0.34362  0.87030  0.19236  1.0000
  H   H474      1.0  0.45422  0.67107  0.33721  1.0000
  H   H475      1.0  0.61687  0.60379  0.25443  1.0000
  H   H476      1.0  0.48304  0.59545  0.36155  1.0000
  H   H477      1.0  0.64168  0.59335  0.22373  1.0000
  C   C407      1.0  0.43456  0.94332  0.37861  1.0000
  C   C408      1.0  0.43327  0.60424  0.39903  1.0000
  N   N28       1.0  0.36489  0.90057  0.22423  1.0000
  H   H478      1.0  0.43366  0.98081  0.34759  1.0000
  H   H479      1.0  0.41064  0.94500  0.38384  1.0000
  C   C409      1.0  0.60940  0.70847  0.29195  1.0000
  H   H480      1.0  0.49255  0.62048  0.41030  1.0000
  H   H481      1.0  0.35283  0.66649  0.47057  1.0000
  C   C410      1.0  0.41166  0.65085  0.37996  1.0000
  H   H482      1.0  0.44022  0.90470  0.40608  1.0000
  C   C411      1.0  0.65751  0.58298  0.15173  1.0000
  C   C412      1.0  0.33744  0.88742  0.20993  1.0000
  H   H483      1.0  0.43405  0.81283  0.27391  1.0000
  H   H484      1.0  0.52716  0.85362  0.38002  1.0000
  Fe  Fe54      1.0  0.39894  0.99597  0.26316  1.0000
  H   H485      1.0  0.52373  0.92232  0.42861  1.0000
  H   H486      1.0  0.48741  0.97590  0.33364  1.0000
  H   H487      1.0  0.40023  0.93142  0.21059  1.0000
  H   H488      1.0  0.52391  0.88361  0.35330  1.0000
  C   C413      1.0  0.37193  0.85541  0.25813  1.0000
  C   C414      1.0  0.44953  0.84019  0.01717  1.0000
  H   H489      1.0  0.54509  0.91629  0.39434  1.0000
  C   C415      1.0  0.37991  0.61470  0.40612  1.0000
  H   H490      1.0  0.63666  0.57901  0.16393  1.0000
  C   C416      1.0  0.44748  0.96360  0.35828  1.0000
  H   H491      1.0  0.46142  0.68908  0.37348  1.0000
  C   C417      1.0  0.41535  0.87296  0.22961  1.0000
  H   H492      1.0  0.48068  0.65890  0.41660  1.0000
  C   C418      1.0  0.65738  0.50797  0.11348  1.0000
  H   H493      1.0  0.47891  0.88788  0.43930  1.0000
  C   C419      1.0  0.48669  0.87377  0.41984  1.0000
  C   C420      1.0  0.63141  0.61292  0.23597  1.0000
  C   C421      1.0  0.52984  0.90526  0.41097  1.0000
  H   H494      1.0  0.45195  0.58893  0.40283  1.0000
  N   N29       1.0  0.50233  0.89233  0.39660  1.0000
  C   C422      1.0  0.42012  0.82989  0.26309  1.0000
  H   H495      1.0  0.60333  0.51259  0.14217  1.0000
  C   C423      1.0  0.42759  0.85962  0.02941  1.0000
  C   C424      1.0  0.47787  0.96078  0.35045  1.0000
  C   C425      1.0  0.38413  0.87622  0.23692  1.0000
  H   H496      1.0  0.62535  0.69014  0.33391  1.0000
  H   H497      1.0  0.63981  0.52015  0.10018  1.0000
  C   C426      1.0  0.64051  0.66345  0.29572  1.0000
  C   C427      1.0  0.48929  0.64270  0.39910  1.0000
  H   H498      1.0  0.65191  0.86645  0.46367  1.0000
  N   N30       1.0  0.46820  0.64092  0.37301  1.0000
  H   H499      1.0  0.46811  0.76698  0.02724  1.0000
  H   H500      1.0  0.35088  0.97976  0.15260  1.0000
  H   H501      1.0  0.54377  0.88734  0.42205  1.0000
  H   H502      1.0  0.62072  0.67817  0.22241  1.0000
  H   H503      1.0  0.59458  0.72027  0.24733  1.0000
  H   H504      1.0  0.46372  0.61517  0.33175  1.0000
  H   H505      1.0  0.43434  0.87969  0.04193  1.0000
  H   H506      1.0  0.50190  0.85596  0.42925  1.0000
  H   H507      1.0  0.63545  0.60536  0.11430  1.0000
  C   C428      1.0  0.46881  0.67078  0.35773  1.0000
  H   H508      1.0  0.49184  0.86022  0.36155  1.0000
  H   H509      1.0  0.49198  0.67701  0.35007  1.0000
  H   H510      1.0  0.34089  0.73167  0.39973  1.0000
  C   C429      1.0  0.48321  0.91684  0.38405  1.0000
  H   H511      1.0  0.41264  0.67281  0.36933  1.0000
  H   H512      1.0  0.63446  0.52238  0.16668  1.0000
  C   C430      1.0  0.35538  0.92130  0.24896  1.0000
  C   C431      1.0  0.47967  0.61803  0.35107  1.0000
  H   H513      1.0  0.50202  0.62467  0.34142  1.0000
  C   C432      1.0  0.43765  0.63218  0.38379  1.0000
  C   C433      1.0  0.40482  0.59578  0.41010  1.0000
  C   C434      1.0  0.62319  0.68058  0.24664  1.0000
  Fe  Fe55      1.0  0.65157  0.53184  0.22985  1.0000
  H   H514      1.0  0.47298  0.84587  0.02099  1.0000
  H   H515      1.0  0.37529  0.93303  0.25900  1.0000
  H   H516      1.0  0.36389  0.65686  0.38822  1.0000
  C   C435      1.0  0.65689  0.59796  0.12353  1.0000
  C   C436      1.0  0.38041  0.91913  0.20091  1.0000
  H   H517      1.0  0.49491  0.79749  0.02570  1.0000
  H   H518      1.0  0.38805  0.90498  0.18142  1.0000
  C   C437      1.0  0.39694  0.85345  0.02537  1.0000
  H   H519      1.0  0.42698  0.88821  0.21455  1.0000
  C   C438      1.0  0.34290  0.69849  0.43535  1.0000
  H   H520      1.0  0.36511  0.93690  0.19164  1.0000
  H   H521      1.0  0.66071  0.60402  0.28715  1.0000
  H   H522      1.0  0.34868  0.85702  0.26557  1.0000
  H   H523      1.0  0.65155  0.64778  0.31081  1.0000
  C   C439      1.0  0.38812  0.82773  0.00932  1.0000
  H   H524      1.0  0.35795  0.60847  0.41517  1.0000
  H   H525      1.0  0.34346  0.90939  0.26759  1.0000
  H   H526      1.0  0.36420  0.82310  0.00609  1.0000
  C   C440      1.0  0.48293  0.78023  0.01178  1.0000
  H   H527      1.0  0.66439  0.78082  0.41889  1.0000
  H   H528      1.0  0.66123  0.65387  0.20431  1.0000
  C   C441      1.0  0.62280  0.50324  0.15510  1.0000
  Fe  Fe56      1.0  0.34210  0.00285  0.22468  1.0000
  Fe  Fe57      1.0  0.46567  0.74357  0.84173  1.0000
  S   S111      1.0  0.45999  0.74920  0.89216  1.0000
  S   S112      1.0  0.43454  0.71348  0.81310  1.0000
  Fe  Fe58      1.0  0.51037  0.79705  0.83779  1.0000
  S   S113      1.0  0.50765  0.80632  0.88772  1.0000
  S   S114      1.0  0.54197  0.82147  0.80491  1.0000
  Fe  Fe59      1.0  0.51078  0.75583  0.89324  1.0000
  S   S115      1.0  0.53706  0.73768  0.93390  1.0000
  Fe  Fe60      1.0  0.45730  0.79912  0.88309  1.0000
  S   S116      1.0  0.42710  0.83427  0.90638  1.0000
  S   S117      1.0  0.51670  0.74647  0.84336  1.0000
  S   S118      1.0  0.45993  0.79362  0.83251  1.0000
  C   C442      1.0  0.38328  0.63131  0.89990  1.0000
  H   H529      1.0  0.36781  0.61150  0.94146  1.0000
  C   C443      1.0  0.44135  0.81410  0.00009  1.0000
  Fe  Fe61      1.0  0.60894  0.98776  0.76842  1.0000
  S   S119      1.0  0.57734  0.96177  0.80022  1.0000
  C   C444      1.0  0.46640  0.91096  0.74378  1.0000
  Fe  Fe62      1.0  0.39672  0.54199  0.76014  1.0000
  C   C445      1.0  0.50131  0.95120  0.75685  1.0000
  S   S120      1.0  0.42701  0.57033  0.79116  1.0000
  H   H530      1.0  0.39326  0.51501  0.62552  1.0000
  H   H531      1.0  0.47109  0.75482  0.95818  1.0000
  S   S121      1.0  0.40104  0.53485  0.70967  1.0000
  C   C446      1.0  0.57584  0.72656  0.93481  1.0000
  C   C447      1.0  0.58794  0.71480  0.96180  1.0000
  C   C448      1.0  0.61873  0.70638  0.96380  1.0000
  C   C449      1.0  0.63790  0.70991  0.93882  1.0000
  C   C450      1.0  0.62573  0.72141  0.91171  1.0000
  C   C451      1.0  0.59488  0.72955  0.90963  1.0000
  H   H532      1.0  0.57345  0.71224  0.98140  1.0000
  C   C452      1.0  0.34689  0.79991  0.93733  1.0000
  H   H533      1.0  0.64417  0.78242  0.55067  1.0000
  H   H534      1.0  0.58583  0.73809  0.88860  1.0000
  C   C453      1.0  0.43354  0.67365  0.80687  1.0000
  C   C454      1.0  0.45315  0.65370  0.82164  1.0000
  C   C455      1.0  0.45091  0.62219  0.81639  1.0000
  C   C456      1.0  0.42926  0.61027  0.79623  1.0000
  C   C457      1.0  0.40965  0.63021  0.78147  1.0000
  C   C458      1.0  0.41177  0.66168  0.78686  1.0000
  H   H535      1.0  0.46994  0.66252  0.83715  1.0000
  H   H536      1.0  0.46611  0.60696  0.82801  1.0000
  H   H537      1.0  0.39287  0.62143  0.76593  1.0000
  H   H538      1.0  0.39648  0.67692  0.77535  1.0000
  C   C459      1.0  0.56736  0.92276  0.80047  1.0000
  C   C460      1.0  0.54682  0.91242  0.82254  1.0000
  C   C461      1.0  0.53861  0.88158  0.82411  1.0000
  C   C462      1.0  0.55095  0.86069  0.80360  1.0000
  C   C463      1.0  0.57147  0.87103  0.78154  1.0000
  C   C464      1.0  0.57962  0.90189  0.77991  1.0000
  H   H539      1.0  0.53726  0.92838  0.83860  1.0000
  H   H540      1.0  0.52278  0.87399  0.84118  1.0000
  H   H541      1.0  0.58119  0.85505  0.76560  1.0000
  H   H542      1.0  0.59558  0.90945  0.76295  1.0000
  C   C465      1.0  0.39048  0.83011  0.92246  1.0000
  C   C466      1.0  0.37586  0.80206  0.92399  1.0000
  H   H543      1.0  0.61068  0.92427  0.84961  1.0000
  C   C467      1.0  0.49562  0.96632  0.72902  1.0000
  H   H544      1.0  0.37390  0.55269  0.82115  1.0000
  C   C468      1.0  0.37582  0.85588  0.93435  1.0000
  H   H545      1.0  0.38677  0.78208  0.91479  1.0000
  H   H546      1.0  0.66403  0.61106  0.83011  1.0000
  H   H547      1.0  0.38697  0.87766  0.93335  1.0000
  C   C469      1.0  0.36931  0.60480  0.85393  1.0000
  H   H548      1.0  0.64225  0.82320  0.90666  1.0000
  C   C470      1.0  0.61249  0.87608  0.85769  1.0000
  H   H549      1.0  0.35758  0.88258  0.84996  1.0000
  C   C471      1.0  0.36124  0.53896  0.83790  1.0000
  H   H550      1.0  0.35068  0.52009  0.82492  1.0000
  H   H551      1.0  0.37828  0.52923  0.85366  1.0000
  Fe  Fe63      1.0  0.65836  0.99166  0.71956  1.0000
  H   H552      1.0  0.50281  0.79711  0.95601  1.0000
  C   C472      1.0  0.61561  0.79709  0.83917  1.0000
  C   C473      1.0  0.64293  0.82722  0.53215  1.0000
  H   H553      1.0  0.49208  0.91250  0.78501  1.0000
  H   H554      1.0  0.57946  0.79793  0.88700  1.0000
  H   H555      1.0  0.40120  0.78920  0.98408  1.0000
  H   H556      1.0  0.36270  0.70235  0.52175  1.0000
  H   H557      1.0  0.64027  0.72384  0.89214  1.0000
  C   C474      1.0  0.53052  0.98765  0.69278  1.0000
  N   N31       1.0  0.61774  0.81893  0.86478  1.0000
  C   C475      1.0  0.33938  0.56920  0.58982  1.0000
  C   C476      1.0  0.63919  0.80688  0.88758  1.0000
  H   H558      1.0  0.45561  0.88963  0.74932  1.0000
  C   C477      1.0  0.62881  0.84854  0.85358  1.0000
  H   H559      1.0  0.39486  0.64994  0.91100  1.0000
  H   H560      1.0  0.34212  0.56935  0.91724  1.0000
  C   C478      1.0  0.34683  0.85375  0.94757  1.0000
  C   C479      1.0  0.58741  0.82060  0.87928  1.0000
  C   C480      1.0  0.36803  0.60963  0.91696  1.0000
  C   C481      1.0  0.65693  0.85045  0.83806  1.0000
  H   H561      1.0  0.60045  0.65640  0.91118  1.0000
  C   C482      1.0  0.38390  0.62889  0.86846  1.0000
  C   C483      1.0  0.66337  0.86707  0.56388  1.0000
  Fe  Fe64      1.0  0.35007  0.53242  0.70924  1.0000
  S   S122      1.0  0.60769  0.98742  0.71742  1.0000
  H   H562      1.0  0.65035  0.63730  0.92443  1.0000
  H   H563      1.0  0.57006  0.82904  0.86310  1.0000
  C   C484      1.0  0.48692  0.92392  0.76391  1.0000
  H   H564      1.0  0.60472  0.77543  0.84605  1.0000
  H   H565      1.0  0.36268  0.55916  0.63169  1.0000
  C   C485      1.0  0.66256  0.62212  0.87872  1.0000
  H   H566      1.0  0.60183  0.80666  0.82037  1.0000
  C   C486      1.0  0.62368  0.90356  0.84669  1.0000
  C   C487      1.0  0.64931  0.80613  0.55463  1.0000
  N   N32       1.0  0.33824  0.55704  0.85446  1.0000
  H   H567      1.0  0.63807  0.79103  0.82960  1.0000
  C   C488      1.0  0.64988  0.85764  0.53682  1.0000
  H   H568      1.0  0.64544  0.87399  0.51913  1.0000
  H   H569      1.0  0.43823  0.75351  0.98157  1.0000
  C   C489      1.0  0.34102  0.86562  0.85629  1.0000
  H   H570      1.0  0.55033  0.99021  0.74944  1.0000
  H   H571      1.0  0.66194  0.80221  0.87783  1.0000
  H   H572      1.0  0.35979  0.56865  0.57624  1.0000
  C   C490      1.0  0.62229  0.63167  0.84156  1.0000
  H   H573      1.0  0.49892  0.82907  0.98041  1.0000
  C   C491      1.0  0.46010  0.92527  0.71644  1.0000
  C   C492      1.0  0.48580  0.81190  0.96755  1.0000
  C   C493      1.0  0.60408  0.64449  0.86404  1.0000
  H   H574      1.0  0.58183  0.65324  0.85848  1.0000
  H   H575      1.0  0.39602  0.64562  0.85518  1.0000
  H   H576      1.0  0.33705  0.52441  0.89088  1.0000
  H   H577      1.0  0.34596  0.66225  0.61798  1.0000
  C   C494      1.0  0.65113  0.62060  0.84862  1.0000
  H   H578      1.0  0.66218  0.97361  0.58458  1.0000
  C   C495      1.0  0.61453  0.64614  0.89373  1.0000
  H   H579      1.0  0.35314  0.67174  0.56612  1.0000
  C   C496      1.0  0.34922  0.83517  0.85614  1.0000
  C   C497      1.0  0.35326  0.58543  0.90264  1.0000
  H   H580      1.0  0.51714  0.95967  0.77348  1.0000
  H   H581      1.0  0.59073  0.87705  0.86880  1.0000
  C   C498      1.0  0.64325  0.63512  0.90106  1.0000
  H   H582      1.0  0.58752  0.83552  0.89966  1.0000
  H   H583      1.0  0.62768  0.69753  0.98478  1.0000
  H   H584      1.0  0.61397  0.63040  0.81848  1.0000
  H   H585      1.0  0.37209  0.82854  0.84997  1.0000
  C   C499      1.0  0.35337  0.58238  0.87053  1.0000
  H   H586      1.0  0.33592  0.87377  0.95668  1.0000
  H   H587      1.0  0.47298  0.82409  0.94963  1.0000
  C   C500      1.0  0.66277  0.81532  0.58187  1.0000
  C   C501      1.0  0.40984  0.80829  0.99675  1.0000
  H   H588      1.0  0.37103  0.60370  0.82950  1.0000
  S   S123      1.0  0.34584  0.54312  0.75916  1.0000
  N   N33       1.0  0.51174  0.99427  0.71991  1.0000
  S   S124      1.0  0.65989  0.98866  0.77085  1.0000
  H   H589      1.0  0.64564  0.87750  0.63355  1.0000
  C   C502      1.0  0.34196  0.70570  0.53455  1.0000
  H   H590      1.0  0.66527  0.82457  0.64549  1.0000
  H   H591      1.0  0.43921  0.77818  0.94887  1.0000
  H   H592      1.0  0.51668  0.98143  0.67272  1.0000
  N   N34       1.0  0.46505  0.79409  0.98705  1.0000
  H   H593      1.0  0.44426  0.91497  0.70073  1.0000
  H   H594      1.0  0.54636  0.96853  0.69715  1.0000
  H   H595      1.0  0.63296  0.81990  0.51089  1.0000
  C   C503      1.0  0.65103  0.90451  0.83106  1.0000
  C   C504      1.0  0.45270  0.76909  0.96814  1.0000
  H   H596      1.0  0.65913  0.92584  0.82201  1.0000
  H   H597      1.0  0.46941  0.96235  0.68729  1.0000
  H   H598      1.0  0.36309  0.50637  0.65139  1.0000
  H   H599      1.0  0.65531  0.98205  0.63998  1.0000
  C   C505      1.0  0.34106  0.56332  0.62116  1.0000
  H   H600      1.0  0.50062  0.76454  0.00267  1.0000
  H   H601      1.0  0.66752  0.79770  0.59802  1.0000
  C   C506      1.0  0.47451  0.95248  0.70905  1.0000
  H   H602      1.0  0.63107  0.78515  0.89741  1.0000
  C   C507      1.0  0.66771  0.87803  0.82686  1.0000
  C   C508      1.0  0.33605  0.68815  0.56022  1.0000
  Fe  Fe65      1.0  0.77803  0.13564  0.01775  1.0000
  H   H603      1.0  0.84237  0.05035  0.39971  1.0000
  S   S125      1.0  0.81419  0.11801  0.05025  1.0000
  H   H604      1.0  0.86938  0.01498  0.32938  1.0000
  H   H605      1.0  0.86936  0.32379  0.36173  1.0000
  C   C509      1.0  0.89061  0.12814  0.39779  1.0000
  Fe  Fe66      1.0  0.84327  0.03759  0.21211  1.0000
  S   S126      1.0  0.89301  0.03100  0.20368  1.0000
  S   S127      1.0  0.80727  0.06024  0.18259  1.0000
  Fe  Fe67      1.0  0.89876  0.03975  0.25381  1.0000
  S   S128      1.0  0.93770  0.06678  0.27473  1.0000
  S   S129      1.0  0.84954  0.04992  0.26134  1.0000
  Fe  Fe68      1.0  0.97697  0.23241  0.34459  1.0000
  S   S130      1.0  0.97324  0.23579  0.39538  1.0000
  S   S131      1.0  0.94013  0.20477  0.32032  1.0000
  Fe  Fe69      1.0  0.97555  0.28623  0.38913  1.0000
  S   S132      1.0  0.94573  0.32350  0.40993  1.0000
  S   S133      1.0  0.97682  0.28327  0.33823  1.0000
  Fe  Fe70      1.0  0.73713  0.40894  0.47917  1.0000
  S   S134      1.0  0.73115  0.35853  0.47329  1.0000
  S   S135      1.0  0.71253  0.44511  0.45140  1.0000
  S   S136      1.0  0.69023  0.21392  0.02091  1.0000
  S   S137      1.0  0.81175  0.31860  0.46438  1.0000
  H   H606      1.0  0.70511  0.24969  0.08240  1.0000
  C   C510      1.0  0.90832  0.32155  0.42455  1.0000
  C   C511      1.0  0.89161  0.34848  0.42820  1.0000
  C   C512      1.0  0.86214  0.34811  0.44057  1.0000
  C   C513      1.0  0.84897  0.32066  0.44923  1.0000
  C   C514      1.0  0.86563  0.29372  0.44540  1.0000
  C   C515      1.0  0.89523  0.29416  0.43338  1.0000
  H   H607      1.0  0.90155  0.36980  0.42141  1.0000
  H   H608      1.0  0.84947  0.36897  0.44294  1.0000
  H   H609      1.0  0.85564  0.27237  0.45202  1.0000
  H   H610      1.0  0.90812  0.27342  0.43135  1.0000
  C   C516      1.0  0.94011  0.16631  0.30784  1.0000
  C   C517      1.0  0.91291  0.15355  0.29713  1.0000
  C   C518      1.0  0.91177  0.12326  0.28672  1.0000
  C   C519      1.0  0.93792  0.10537  0.28676  1.0000
  C   C520      1.0  0.96510  0.11812  0.29749  1.0000
  C   C521      1.0  0.96622  0.14838  0.30801  1.0000
  H   H611      1.0  0.89259  0.16720  0.29676  1.0000
  H   H612      1.0  0.89071  0.11383  0.27855  1.0000
  H   H613      1.0  0.98546  0.10450  0.29767  1.0000
  H   H614      1.0  0.98733  0.15786  0.31605  1.0000
  C   C522      1.0  0.81156  0.10338  0.08759  1.0000
  C   C523      1.0  0.83841  0.09585  0.10291  1.0000
  C   C524      1.0  0.83761  0.08329  0.13220  1.0000
  C   C525      1.0  0.80984  0.07758  0.14634  1.0000
  C   C526      1.0  0.78299  0.08541  0.13112  1.0000
  C   C527      1.0  0.78379  0.09833  0.10194  1.0000
  H   H615      1.0  0.86000  0.09967  0.09202  1.0000
  H   H616      1.0  0.85849  0.07806  0.14382  1.0000
  H   H617      1.0  0.76139  0.08132  0.14192  1.0000
  H   H618      1.0  0.76296  0.10402  0.09045  1.0000
  C   C528      1.0  0.70010  0.42569  0.36126  1.0000
  C   C529      1.0  0.68510  0.47159  0.40212  1.0000
  H   H619      1.0  0.87884  0.23292  0.31049  1.0000
  H   H620      1.0  0.86784  0.13359  0.01920  1.0000
  C   C530      1.0  0.70191  0.44657  0.41245  1.0000
  C   C531      1.0  0.70926  0.42352  0.39183  1.0000
  C   C532      1.0  0.84100  0.06664  0.34118  1.0000
  H   H621      1.0  0.82726  0.04791  0.33119  1.0000
  H   H622      1.0  0.72229  0.40421  0.39929  1.0000
  S   S138      1.0  0.72764  0.12834  0.01445  1.0000
  H   H623      1.0  0.91640  0.26177  0.33615  1.0000
  H   H624      1.0  0.83692  0.18604  0.04712  1.0000
  H   H625      1.0  0.90400  0.02344  0.34842  1.0000
  H   H626      1.0  0.77159  0.27517  0.38710  1.0000
  Fe  Fe71      1.0  0.78109  0.35563  0.48392  1.0000
  H   H627      1.0  0.67927  0.48958  0.41781  1.0000
  C   C533      1.0  0.93377  0.10985  0.36974  1.0000
  C   C534      1.0  0.91710  0.08481  0.35973  1.0000
  C   C535      1.0  0.88639  0.08073  0.36854  1.0000
  H   H628      1.0  0.88043  0.14504  0.41252  1.0000
  H   H629      1.0  0.85060  0.10143  0.39583  1.0000
  H   H630      1.0  0.92874  0.06936  0.34461  1.0000
  H   H631      1.0  0.70613  0.40788  0.34543  1.0000
  C   C536      1.0  0.86958  0.15578  0.00748  1.0000
  H   H632      1.0  0.85534  0.26546  0.30356  1.0000
  S   S139      1.0  0.67297  0.45241  0.31185  1.0000
  C   C537      1.0  0.85700  0.03700  0.38411  1.0000
  C   C538      1.0  0.67594  0.47376  0.37155  1.0000
  H   H633      1.0  0.82537  0.07978  0.35593  1.0000
  H   H634      1.0  0.86933  0.02630  0.02953  1.0000
  H   H635      1.0  0.92694  0.16228  0.02099  1.0000
  S   S140      1.0  0.77441  0.18614  0.01184  1.0000
  H   H636      1.0  0.81209  0.24366  0.36609  1.0000
  N   N35       1.0  0.86768  0.05496  0.35785  1.0000
  H   H637      1.0  0.89197  0.04577  0.31640  1.0000
  H   H638      1.0  0.90237  0.36121  0.48835  1.0000
  C   C539      1.0  0.86094  0.18331  0.05405  1.0000
  H   H639      1.0  0.84817  0.08167  0.32227  1.0000
  N   N36       1.0  0.88169  0.17970  0.02771  1.0000
  H   H640      1.0  0.90734  0.28698  0.36655  1.0000
  H   H641      1.0  0.95703  0.11272  0.36240  1.0000
  C   C540      1.0  0.91128  0.16905  0.03961  1.0000
  H   H642      1.0  0.89618  0.29548  0.32800  1.0000
  H   H643      1.0  0.79608  0.00784  0.14614  1.0000
  H   H644      1.0  0.67156  0.17248  0.13000  1.0000
  C   C541      1.0  0.68978  0.24018  0.09907  1.0000
  C   C542      1.0  0.82302  0.03844  0.03763  1.0000
  H   H645      1.0  0.93353  0.15123  0.39554  1.0000
  H   H646      1.0  0.82785  0.35379  0.38125  1.0000
  C   C543      1.0  0.87375  0.10308  0.38811  1.0000
  C   C544      1.0  0.92053  0.13160  0.38845  1.0000
  H   H647      1.0  0.90864  0.14854  0.05400  1.0000
  H   H648      1.0  0.86734  0.20324  0.06817  1.0000
  H   H649      1.0  0.77917  0.33011  0.39486  1.0000
  C   C545      1.0  0.88410  0.03395  0.33718  1.0000
  H   H650      1.0  0.78098  0.01932  0.09834  1.0000
  H   H651      1.0  0.92227  0.18687  0.05373  1.0000
  H   H652      1.0  0.84016  0.23277  0.32225  1.0000
  C   C546      1.0  0.82800  0.00410  0.09166  1.0000
  H   H653      1.0  0.86086  0.16290  0.06881  1.0000
  H   H654      1.0  0.85660  0.21955  0.37317  1.0000
  S   S141      1.0  0.78776  0.40609  0.48646  1.0000
  N   N37       1.0  0.86962  0.26069  0.34984  1.0000
  C   C547      1.0  0.87575  0.23569  0.37139  1.0000
  C   C548      1.0  0.86050  0.24740  0.32030  1.0000
  C   C549      1.0  0.89851  0.27713  0.34502  1.0000
  C   C550      1.0  0.84500  0.28025  0.36167  1.0000
  C   C551      1.0  0.84839  0.31204  0.36612  1.0000
  C   C552      1.0  0.81641  0.26757  0.36905  1.0000
  C   C553      1.0  0.82460  0.32972  0.37742  1.0000
  C   C554      1.0  0.79296  0.28542  0.38080  1.0000
  C   C555      1.0  0.79709  0.31642  0.38504  1.0000
  H   H655      1.0  0.89578  0.22197  0.36436  1.0000
  H   H656      1.0  0.88042  0.24472  0.39445  1.0000
  C   C556      1.0  0.68350  0.45085  0.35083  1.0000
  H   H657      1.0  0.83513  0.21568  0.00708  1.0000
  C   C557      1.0  0.79836  0.03596  0.05711  1.0000
  C   C558      1.0  0.88393  0.20838  0.01053  1.0000
  H   H658      1.0  0.70792  0.19527  0.09408  1.0000
  C   C559      1.0  0.69132  0.20940  0.10554  1.0000
  C   C560      1.0  0.80069  0.01926  0.08386  1.0000
  H   H659      1.0  0.77764  0.04808  0.05193  1.0000
  C   C561      1.0  0.67072  0.19662  0.12566  1.0000
  H   H660      1.0  0.84953  0.02450  0.14444  1.0000
  H   H661      1.0  0.84320  0.01717  0.37674  1.0000
  H   H662      1.0  0.67419  0.38015  0.42778  1.0000
  H   H663      1.0  0.67348  0.49661  0.09769  1.0000
  H   H664      1.0  0.87641  0.02817  0.39750  1.0000
  H   H665      1.0  0.82122  0.05224  0.01743  1.0000
  H   H666      1.0  0.68190  0.49193  0.16510  1.0000
  C   C562      1.0  0.85012  0.02397  0.04462  1.0000
  C   C563      1.0  0.85267  0.00703  0.07120  1.0000
  H   H667      1.0  0.68464  0.46004  0.13957  1.0000
  H   H668      1.0  0.93330  0.20895  0.00380  1.0000
  H   H669      1.0  0.67399  0.40536  0.47892  1.0000
  H   H670      1.0  0.84847  0.36679  0.50190  1.0000
  Fe  Fe72      1.0  0.72449  0.17834  0.00481  1.0000
  H   H671      1.0  0.67361  0.04432  0.90403  1.0000
  H   H672      1.0  0.86666  0.35707  0.63830  1.0000
  H   H673      1.0  0.75684  0.42855  0.72874  1.0000
  Fe  Fe73      1.0  0.88857  0.48787  0.77978  1.0000
  S   S142      1.0  0.90960  0.45517  0.81418  1.0000
  C   C564      1.0  0.89745  0.32259  0.62277  1.0000
  Fe  Fe74      1.0  0.73564  0.12340  0.96384  1.0000
  S   S143      1.0  0.72993  0.17291  0.95441  1.0000
  S   S144      1.0  0.70799  0.08710  0.93905  1.0000
  Fe  Fe75      1.0  0.78019  0.17673  0.96211  1.0000
  S   S145      1.0  0.80724  0.20939  0.93267  1.0000
  S   S146      1.0  0.78645  0.12654  0.96795  1.0000
  H   H674      1.0  0.71207  0.32562  0.65312  1.0000
  H   H675      1.0  0.69000  0.19026  0.74094  1.0000
  H   H676      1.0  0.83669  0.36688  0.54052  1.0000
  Fe  Fe76      1.0  0.98077  0.24290  0.88720  1.0000
  S   S147      1.0  0.95039  0.21009  0.91322  1.0000
  S   S148      1.0  0.80102  0.48274  0.70145  1.0000
  Fe  Fe77      1.0  0.77646  0.40199  0.53625  1.0000
  S   S149      1.0  0.77243  0.35140  0.53375  1.0000
  S   S150      1.0  0.81082  0.41909  0.57122  1.0000
  S   S151      1.0  0.83805  0.49557  0.78353  1.0000
  H   H677      1.0  0.92684  0.29044  0.60092  1.0000
  S   S152      1.0  0.72637  0.40883  0.52958  1.0000
  C   C565      1.0  0.84667  0.20801  0.92470  1.0000
  C   C566      1.0  0.86454  0.18345  0.93343  1.0000
  C   C567      1.0  0.89616  0.18421  0.92907  1.0000
  C   C568      1.0  0.91022  0.20928  0.91543  1.0000
  C   C569      1.0  0.89219  0.23330  0.90541  1.0000
  C   C570      1.0  0.86057  0.23264  0.91008  1.0000
  H   H678      1.0  0.85389  0.16391  0.94345  1.0000
  H   H679      1.0  0.90986  0.16530  0.93633  1.0000
  H   H680      1.0  0.90265  0.25267  0.89475  1.0000
  H   H681      1.0  0.84689  0.25163  0.90291  1.0000
  C   C571      1.0  0.80428  0.46522  0.66518  1.0000
  C   C572      1.0  0.77814  0.46148  0.64733  1.0000
  C   C573      1.0  0.77961  0.44745  0.61854  1.0000
  C   C574      1.0  0.80733  0.43699  0.60727  1.0000
  C   C575      1.0  0.83350  0.44100  0.62499  1.0000
  C   C576      1.0  0.83201  0.45495  0.65379  1.0000
  H   H682      1.0  0.69691  0.37683  0.58762  1.0000
  H   H683      1.0  0.75938  0.44496  0.60505  1.0000
  H   H684      1.0  0.85511  0.43313  0.61650  1.0000
  H   H685      1.0  0.85229  0.45752  0.66729  1.0000
  C   C577      1.0  0.92731  0.41902  0.81092  1.0000
  C   C578      1.0  0.93176  0.40178  0.83732  1.0000
  C   C579      1.0  0.94660  0.37346  0.83621  1.0000
  C   C580      1.0  0.95783  0.36227  0.80868  1.0000
  C   C581      1.0  0.95336  0.37948  0.78227  1.0000
  C   C582      1.0  0.93804  0.40757  0.78330  1.0000
  H   H686      1.0  0.92335  0.41030  0.85877  1.0000
  H   H687      1.0  0.94911  0.36027  0.85662  1.0000
  S   S153      1.0  0.98381  0.29374  0.89206  1.0000
  H   H688      1.0  0.93492  0.42057  0.76283  1.0000
  C   C583      1.0  0.68930  0.07800  0.83642  1.0000
  C   C584      1.0  0.70715  0.10202  0.84754  1.0000
  C   C585      1.0  0.71301  0.10524  0.87883  1.0000
  C   C586      1.0  0.70111  0.08438  0.89940  1.0000
  Fe  Fe78      1.0  0.99385  0.29359  0.84197  1.0000
  H   H689      1.0  0.69338  0.32818  0.61701  1.0000
  H   H690      1.0  0.71687  0.11803  0.83182  1.0000
  H   H691      1.0  0.72711  0.12360  0.88693  1.0000
  S   S154      1.0  0.98744  0.24290  0.83642  1.0000
  H   H692      1.0  0.75957  0.33714  0.62393  1.0000
  N   N38       1.0  0.88481  0.36174  0.53409  1.0000
  H   H693      1.0  0.91323  0.39986  0.54501  1.0000
  H   H694      1.0  0.73775  0.34144  0.59042  1.0000
  C   C587      1.0  0.73130  0.38302  0.65652  1.0000
  C   C588      1.0  0.71904  0.41287  0.70212  1.0000
  C   C589      1.0  0.88943  0.34794  0.56427  1.0000
  S   S155      1.0  0.97874  0.32778  0.80607  1.0000
  H   H695      1.0  0.71834  0.40791  0.60299  1.0000
  H   H696      1.0  0.92930  0.35119  0.51656  1.0000
  C   C590      1.0  0.69390  0.12898  0.73831  1.0000
  C   C591      1.0  0.87835  0.34737  0.61889  1.0000
  C   C592      1.0  0.70415  0.38803  0.60910  1.0000
  C   C593      1.0  0.91224  0.30995  0.59782  1.0000
  H   H697      1.0  0.78047  0.37688  0.65071  1.0000
  C   C594      1.0  0.74964  0.41547  0.70914  1.0000
  C   C595      1.0  0.67451  0.17675  0.75550  1.0000
  H   H698      1.0  0.88435  0.15249  0.98731  1.0000
  H   H699      1.0  0.70236  0.42364  0.71666  1.0000
  C   C596      1.0  0.89040  0.39492  0.53559  1.0000
  S   S156      1.0  0.88867  0.48888  0.72856  1.0000
  C   C597      1.0  0.68292  0.06060  0.88834  1.0000
  H   H700      1.0  0.88886  0.40561  0.51283  1.0000
  H   H701      1.0  0.90067  0.31306  0.64515  1.0000
  C   C598      1.0  0.74625  0.35387  0.61070  1.0000
  Fe  Fe79      1.0  0.72307  0.35828  0.52372  1.0000
  H   H702      1.0  0.87340  0.40706  0.54977  1.0000
  H   H703      1.0  0.93470  0.25487  0.97428  1.0000
  C   C599      1.0  0.87416  0.35975  0.59011  1.0000
  H   H704      1.0  0.68913  0.10503  0.73209  1.0000
  H   H705      1.0  0.70582  0.12739  0.76050  1.0000
  Fe  Fe80      1.0  0.83912  0.49989  0.73248  1.0000
  H   H706      1.0  0.67946  0.34948  0.64837  1.0000
  S   S157      1.0  0.69183  0.32477  0.54782  1.0000
  C   C600      1.0  0.90830  0.32224  0.56891  1.0000
  C   C601      1.0  0.70990  0.39680  0.67630  1.0000
  H   H707      1.0  0.68313  0.39670  0.61993  1.0000
  H   H708      1.0  0.92020  0.31113  0.55057  1.0000
  C   C602      1.0  0.77120  0.40179  0.69056  1.0000
  H   H709      1.0  0.75655  0.46930  0.65595  1.0000
  C   C603      1.0  0.90503  0.34908  0.51021  1.0000
  H   H710      1.0  0.71001  0.13833  0.72138  1.0000
  H   H711      1.0  0.85867  0.37860  0.58825  1.0000
  C   C604      1.0  0.91321  0.24692  0.98315  1.0000
  S   S158      1.0  0.68306  0.07490  0.79668  1.0000
  H   H712      1.0  0.88771  0.28236  0.96177  1.0000
  H   H713      1.0  0.96187  0.37105  0.76083  1.0000
  H   H714      1.0  0.79503  0.40447  0.69593  1.0000
  C   C605      1.0  0.85314  0.35662  0.52444  1.0000
  N   N39       1.0  0.72102  0.36685  0.62889  1.0000
  C   C606      1.0  0.76239  0.38596  0.66450  1.0000
  C   C607      1.0  0.70065  0.34151  0.63731  1.0000
  H   H715      1.0  0.99814  0.41388  0.85364  1.0000
  H   H716      1.0  0.76171  0.37191  0.60218  1.0000
  C   C608      1.0  0.88674  0.26241  0.97594  1.0000
  H   H717      1.0  0.68640  0.17279  0.77740  1.0000
  C   C609      1.0  0.67702  0.05740  0.85706  1.0000
  H   H718      1.0  0.84784  0.33198  0.52272  1.0000
  H   H719      1.0  0.67005  0.14551  0.92558  1.0000
  H   H720      1.0  0.89978  0.32488  0.50513  1.0000
  H   H721      1.0  0.68590  0.39553  0.67176  1.0000
  H   H722      1.0  0.83817  0.26213  0.97808  1.0000
  H   H723      1.0  0.67301  0.12323  0.97602  1.0000
  C   C610      1.0  0.85888  0.25110  0.98531  1.0000
  C   C611      1.0  0.85739  0.22436  0.00206  1.0000
  H   H724      1.0  0.84648  0.16143  0.99914  1.0000
  C   C612      1.0  0.91200  0.22026  0.00012  1.0000
  H   H725      1.0  0.00173  0.35701  0.86697  1.0000
  Fe  Fe81      1.0  0.78358  0.90180  0.47025  1.0000
  S   S159      1.0  0.78134  0.85097  0.47405  1.0000
  S   S160      1.0  0.81835  0.91809  0.43517  1.0000
  Fe  Fe82      1.0  0.73076  0.85700  0.47815  1.0000
  S   S161      1.0  0.70159  0.82406  0.45025  1.0000
  S   S162      1.0  0.73292  0.90747  0.47174  1.0000
  N   N40       1.0  0.83154  0.98650  0.11993  1.0000
  S   S163      1.0  0.76377  0.63016  0.02547  1.0000
  S   S164      1.0  0.80376  0.71349  0.02247  1.0000
  Fe  Fe83      1.0  0.71391  0.63844  0.03430  1.0000
  H   H726      1.0  0.75217  0.84324  0.41531  1.0000
  S   S165      1.0  0.71647  0.68877  0.02465  1.0000
  H   H727      1.0  0.82425  0.94376  0.09747  1.0000
  Fe  Fe84      1.0  0.76554  0.67962  0.01306  1.0000
  C   C613      1.0  0.91511  0.78751  0.47975  1.0000
  Fe  Fe85      1.0  0.88529  0.98203  0.21650  1.0000
  S   S166      1.0  0.90021  0.94698  0.18063  1.0000
  H   H728      1.0  0.71054  0.87781  0.41426  1.0000
  Fe  Fe86      1.0  0.96704  0.73516  0.10667  1.0000
  S   S167      1.0  0.97748  0.73527  0.15676  1.0000
  S   S168      1.0  0.92925  0.70205  0.09367  1.0000
  Fe  Fe87      1.0  0.98275  0.78576  0.15144  1.0000
  S   S169      1.0  0.96411  0.81713  0.18826  1.0000
  S   S170      1.0  0.96977  0.78601  0.10225  1.0000
  C   C614      1.0  0.91795  0.91091  0.18347  1.0000
  C   C615      1.0  0.92654  0.89850  0.21124  1.0000
  C   C616      1.0  0.94056  0.86977  0.21221  1.0000
  C   C617      1.0  0.94623  0.85313  0.18551  1.0000
  C   C618      1.0  0.93756  0.86548  0.15771  1.0000
  C   C619      1.0  0.92356  0.89422  0.15674  1.0000
  H   H729      1.0  0.92240  0.91103  0.23198  1.0000
  H   H730      1.0  0.94712  0.86044  0.23386  1.0000
  H   H731      1.0  0.94131  0.85282  0.13701  1.0000
  H   H732      1.0  0.91688  0.90354  0.13514  1.0000
  C   C620      1.0  0.68368  0.60343  0.10706  1.0000
  C   C621      1.0  0.68504  0.57305  0.16378  1.0000
  H   H733      1.0  0.68734  0.62465  0.21258  1.0000
  H   H734      1.0  0.84294  0.94104  0.13374  1.0000
  C   C622      1.0  0.71185  0.57879  0.14751  1.0000
  C   C623      1.0  0.71122  0.59383  0.11932  1.0000
  H   H735      1.0  0.78247  0.92891  0.27898  1.0000
  C   C624      1.0  0.94620  0.78130  0.47983  1.0000
  H   H736      1.0  0.73330  0.57127  0.15659  1.0000
  H   H737      1.0  0.73201  0.59783  0.10701  1.0000
  C   C625      1.0  0.83902  0.70914  0.04139  1.0000
  C   C626      1.0  0.84600  0.68339  0.05835  1.0000
  C   C627      1.0  0.87378  0.68162  0.07401  1.0000
  C   C628      1.0  0.89480  0.70559  0.07314  1.0000
  C   C629      1.0  0.88790  0.73125  0.05603  1.0000
  C   C630      1.0  0.86022  0.73293  0.04019  1.0000
  H   H738      1.0  0.82984  0.66506  0.05978  1.0000
  H   H739      1.0  0.87890  0.66166  0.08718  1.0000
  H   H740      1.0  0.90391  0.74973  0.05484  1.0000
  S   S171      1.0  0.81111  0.98774  0.30854  1.0000
  C   C631      1.0  0.81576  0.93794  0.40025  1.0000
  C   C632      1.0  0.78890  0.95142  0.39040  1.0000
  C   C633      1.0  0.78803  0.96671  0.36240  1.0000
  C   C634      1.0  0.81395  0.96878  0.34392  1.0000
  C   C635      1.0  0.84090  0.95554  0.35388  1.0000
  C   C636      1.0  0.84176  0.94027  0.38189  1.0000
  H   H741      1.0  0.76891  0.95037  0.40449  1.0000
  H   H742      1.0  0.76706  0.97689  0.35494  1.0000
  H   H743      1.0  0.86099  0.95673  0.33990  1.0000
  H   H744      1.0  0.86269  0.92999  0.38934  1.0000
  N   N41       1.0  0.73868  0.86792  0.37544  1.0000
  C   C637      1.0  0.71952  0.84224  0.36524  1.0000
  C   C638      1.0  0.76232  0.85548  0.39580  1.0000
  C   C639      1.0  0.71980  0.88903  0.39368  1.0000
  C   C640      1.0  0.75119  0.88396  0.34882  1.0000
  C   C641      1.0  0.78281  0.88693  0.34341  1.0000
  C   C642      1.0  0.73146  0.89741  0.32734  1.0000
  C   C643      1.0  0.79372  0.90238  0.31806  1.0000
  C   C644      1.0  0.74267  0.91327  0.30237  1.0000
  C   C645      1.0  0.77375  0.91581  0.29780  1.0000
  H   H745      1.0  0.73261  0.82633  0.35061  1.0000
  H   H746      1.0  0.71061  0.82903  0.38482  1.0000
  H   H747      1.0  0.69937  0.84984  0.35234  1.0000
  H   H748      1.0  0.78462  0.97411  0.12564  1.0000
  H   H749      1.0  0.77670  0.87380  0.40563  1.0000
  S   S172      1.0  0.68112  0.62200  0.07135  1.0000
  H   H750      1.0  0.87671  0.65158  0.00997  1.0000
  H   H751      1.0  0.98717  0.71052  0.49366  1.0000
  S   S173      1.0  0.68732  0.55286  0.19857  1.0000
  H   H752      1.0  0.79969  0.87832  0.35882  1.0000
  H   H753      1.0  0.69994  0.89766  0.38102  1.0000
  Fe  Fe88      1.0  0.84519  0.00011  0.27140  1.0000
  H   H754      1.0  0.72725  0.92410  0.28671  1.0000
  S   S174      1.0  0.83506  0.98850  0.22274  1.0000
  N   N42       1.0  0.87652  0.75539  0.15811  1.0000
  C   C646      1.0  0.87015  0.77370  0.18566  1.0000
  C   C647      1.0  0.89167  0.72680  0.16721  1.0000
  C   C648      1.0  0.89837  0.77268  0.13931  1.0000
  C   C649      1.0  0.84777  0.74843  0.14228  1.0000
  C   C650      1.0  0.84090  0.75944  0.11284  1.0000
  C   C651      1.0  0.82545  0.73012  0.15644  1.0000
  C   C652      1.0  0.81376  0.75185  0.09840  1.0000
  C   C653      1.0  0.79858  0.72235  0.14157  1.0000
  C   C654      1.0  0.79287  0.73303  0.11250  1.0000
  H   H755      1.0  0.85587  0.76131  0.20221  1.0000
  H   H756      1.0  0.89144  0.78017  0.19766  1.0000
  H   H757      1.0  0.85813  0.79507  0.17978  1.0000
  H   H758      1.0  0.87860  0.71388  0.18427  1.0000
  H   H759      1.0  0.91425  0.73107  0.17752  1.0000
  H   H760      1.0  0.89517  0.71161  0.14726  1.0000
  H   H761      1.0  0.88935  0.79530  0.13295  1.0000
  H   H762      1.0  0.91987  0.77713  0.15172  1.0000
  H   H763      1.0  0.90451  0.75988  0.11834  1.0000
  H   H764      1.0  0.85636  0.77336  0.10007  1.0000
  H   H765      1.0  0.82880  0.72133  0.17897  1.0000
  H   H766      1.0  0.80925  0.75980  0.07559  1.0000
  H   H767      1.0  0.78221  0.70768  0.15245  1.0000
  H   H768      1.0  0.77237  0.72650  0.10064  1.0000
  C   C655      1.0  0.67445  0.64378  0.22312  1.0000
  H   H769      1.0  0.81790  0.90512  0.31478  1.0000
  H   H770      1.0  0.68585  0.59609  0.25660  1.0000
  H   H771      1.0  0.80684  0.97149  0.15946  1.0000
  S   S175      1.0  0.89500  0.99009  0.26624  1.0000
  H   H772      1.0  0.85506  0.75294  0.02711  1.0000
  H   H773      1.0  0.73328  0.90894  0.40134  1.0000
  H   H774      1.0  0.69111  0.66089  0.23116  1.0000
  H   H775      1.0  0.87794  0.00036  0.12809  1.0000
  H   H776      1.0  0.77705  0.83879  0.38391  1.0000
  H   H777      1.0  0.70719  0.89619  0.33000  1.0000
  H   H778      1.0  0.99984  0.75416  0.45663  1.0000
  C   C656      1.0  0.84087  0.95495  0.11279  1.0000
  H   H779      1.0  0.69229  0.62905  0.27961  1.0000
  C   C657      1.0  0.80344  0.98491  0.13842  1.0000
  C   C658      1.0  0.85526  0.00065  0.13896  1.0000
  H   H780      1.0  0.86347  0.95382  0.10178  1.0000
  H   H781      1.0  0.90539  0.80167  0.46226  1.0000
  H   H782      1.0  0.95927  0.79121  0.46177  1.0000
  H   H783      1.0  0.87429  0.99665  0.07590  1.0000
  H   H784      1.0  0.85779  0.98871  0.16084  1.0000
  H   H785      1.0  0.83873  0.61444  0.01778  1.0000
  H   H786      1.0  0.98981  0.90545  0.14024  1.0000
  H   H787      1.0  0.67066  0.52575  0.12545  1.0000
  H   H788      1.0  0.99570  0.84901  0.12505  1.0000
  C   C659      1.0  0.67432  0.61498  0.26896  1.0000
  C   C660      1.0  0.89650  0.77628  0.50256  1.0000
  H   H789      1.0  0.87256  0.78187  0.50295  1.0000
  Fe  Fe89      1.0  0.73828  0.90990  0.52289  1.0000
  S   S176      1.0  0.73327  0.85957  0.52891  1.0000
  S   S177      1.0  0.70729  0.94243  0.54928  1.0000
  Fe  Fe90      1.0  0.78420  0.85804  0.52430  1.0000
  S   S178      1.0  0.80954  0.82683  0.55699  1.0000
  S   S179      1.0  0.78934  0.90868  0.52091  1.0000
  C   C661      1.0  0.94673  0.88875  0.63041  1.0000
  H   H790      1.0  0.73390  0.62833  0.90722  1.0000
  S   S180      1.0  0.95227  0.81409  0.57806  1.0000
  N   N43       1.0  0.99262  0.75781  0.50480  1.0000
  S   S181      1.0  0.96616  0.70104  0.68992  1.0000
  H   H791      1.0  0.86255  0.58649  0.00042  1.0000
  Fe  Fe91      1.0  0.70552  0.67642  0.97628  1.0000
  S   S182      1.0  0.70063  0.62675  0.98618  1.0000
  C   C662      1.0  0.93991  0.75271  0.52609  1.0000
  Fe  Fe92      1.0  0.75054  0.62294  0.97641  1.0000
  S   S183      1.0  0.76974  0.58396  0.94779  1.0000
  S   S184      1.0  0.75483  0.67167  0.96377  1.0000
  Fe  Fe93      1.0  0.84953  0.54517  0.78577  1.0000
  S   S185      1.0  0.90003  0.53771  0.78425  1.0000
  S   S186      1.0  0.82890  0.58321  0.81507  1.0000
  Fe  Fe94      1.0  0.89591  0.53952  0.73339  1.0000
  S   S187      1.0  0.92540  0.56228  0.69721  1.0000
  S   S188      1.0  0.84636  0.55028  0.73505  1.0000
  C   C663      1.0  0.81236  0.58265  0.85192  1.0000
  C   C664      1.0  0.80588  0.55570  0.86718  1.0000
  C   C665      1.0  0.79286  0.55658  0.89643  1.0000
  C   C666      1.0  0.78626  0.58433  0.91089  1.0000
  C   C667      1.0  0.79286  0.61128  0.89565  1.0000
  C   C668      1.0  0.80557  0.61039  0.86631  1.0000
  H   H792      1.0  0.81099  0.53418  0.85646  1.0000
  H   H793      1.0  0.78801  0.53556  0.90796  1.0000
  H   H794      1.0  0.78837  0.63287  0.90642  1.0000
  H   H795      1.0  0.81065  0.63137  0.85481  1.0000
  C   C669      1.0  0.95298  0.66292  0.69052  1.0000
  C   C670      1.0  0.95450  0.64379  0.66517  1.0000
  C   C671      1.0  0.94574  0.61313  0.66755  1.0000
  C   C672      1.0  0.93464  0.60142  0.69502  1.0000
  C   C673      1.0  0.93205  0.62082  0.72003  1.0000
  C   C674      1.0  0.94134  0.65130  0.71780  1.0000
  H   H796      1.0  0.96264  0.65250  0.64386  1.0000
  H   H797      1.0  0.94779  0.59833  0.64805  1.0000
  H   H798      1.0  0.92348  0.61218  0.74129  1.0000
  H   H799      1.0  0.93984  0.66592  0.73751  1.0000
  C   C675      1.0  0.70493  0.95042  0.58886  1.0000
  H   H800      1.0  0.84724  0.54591  0.59291  1.0000
  C   C676      1.0  0.69698  0.96006  0.65217  1.0000
  C   C677      1.0  0.72291  0.94532  0.64077  1.0000
  C   C678      1.0  0.72707  0.94086  0.60935  1.0000
  H   H801      1.0  0.73995  0.93733  0.65641  1.0000
  H   H802      1.0  0.74728  0.92974  0.60100  1.0000
  C   C679      1.0  0.84931  0.82404  0.56282  1.0000
  C   C680      1.0  0.86040  0.80346  0.58444  1.0000
  C   C681      1.0  0.89176  0.80027  0.58966  1.0000
  C   C682      1.0  0.91246  0.81758  0.57314  1.0000
  C   C683      1.0  0.90140  0.83826  0.55163  1.0000
  C   C684      1.0  0.87005  0.84148  0.54646  1.0000
  H   H803      1.0  0.84457  0.78987  0.59722  1.0000
  H   H804      1.0  0.89985  0.78428  0.60628  1.0000
  H   H805      1.0  0.91717  0.85172  0.53865  1.0000
  H   H806      1.0  0.86191  0.85739  0.52977  1.0000
  N   N44       1.0  0.85564  0.62656  0.97344  1.0000
  S   S189      1.0  0.69191  0.96276  0.69214  1.0000
  H   H807      1.0  0.71720  0.88383  0.58955  1.0000
  H   H808      1.0  0.98270  0.84223  0.62539  1.0000
  C   C685      1.0  0.86415  0.61334  0.94368  1.0000
  C   C686      1.0  0.86144  0.58190  0.93689  1.0000
  C   C687      1.0  0.87501  0.63228  0.92011  1.0000
  C   C688      1.0  0.86933  0.57038  0.90836  1.0000
  C   C689      1.0  0.88255  0.62052  0.89158  1.0000
  C   C690      1.0  0.87972  0.58963  0.88573  1.0000
  H   H809      1.0  0.71232  0.57661  0.91615  1.0000
  S   S190      1.0  0.98503  0.73229  0.60464  1.0000
  H   H810      1.0  0.83275  0.58325  0.60104  1.0000
  C   C691      1.0  0.90885  0.75875  0.52556  1.0000
  C   C692      1.0  0.88204  0.64232  0.98703  1.0000
  C   C693      1.0  0.99173  0.86026  0.64045  1.0000
  H   H811      1.0  0.83776  0.66846  0.95522  1.0000
  C   C694      1.0  0.84699  0.56453  0.61005  1.0000
  H   H812      1.0  0.90165  0.62665  0.98933  1.0000
  H   H813      1.0  0.85256  0.56576  0.95289  1.0000
  H   H814      1.0  0.87726  0.65644  0.92340  1.0000
  H   H815      1.0  0.86639  0.54647  0.90333  1.0000
  H   H816      1.0  0.89007  0.63543  0.87364  1.0000
  H   H817      1.0  0.88471  0.58067  0.86331  1.0000
  H   H818      1.0  0.79690  0.52827  0.65527  1.0000
  H   H819      1.0  0.99888  0.61320  0.72836  1.0000
  H   H820      1.0  0.78531  0.57329  0.67507  1.0000
  Fe  Fe95      1.0  0.98904  0.73211  0.65542  1.0000
  C   C695      1.0  0.83087  0.64878  0.96922  1.0000
  H   H821      1.0  0.78902  0.55383  0.62437  1.0000
  H   H822      1.0  0.99462  0.76992  0.55197  1.0000
  H   H823      1.0  0.92742  0.90211  0.63971  1.0000
  H   H824      1.0  0.71259  0.65549  0.88552  1.0000
  C   C696      1.0  0.99105  0.95659  0.68319  1.0000
  C   C697      1.0  0.66974  0.88301  0.62875  1.0000
  N   N45       1.0  0.83536  0.55401  0.63978  1.0000
  H   H825      1.0  0.68902  0.87893  0.81468  1.0000
  C   C698      1.0  0.85684  0.53150  0.65227  1.0000
  C   C699      1.0  0.83267  0.57997  0.66107  1.0000
  C   C700      1.0  0.80557  0.58676  0.67724  1.0000
  C   C701      1.0  0.85801  0.59889  0.66687  1.0000
  C   C702      1.0  0.80423  0.61094  0.69784  1.0000
  C   C703      1.0  0.85631  0.62315  0.68728  1.0000
  C   C704      1.0  0.82954  0.62907  0.70286  1.0000
  N   N46       1.0  0.69298  0.61082  0.88717  1.0000
  C   C705      1.0  0.98068  0.90274  0.67317  1.0000
  C   C706      1.0  0.71089  0.59884  0.86120  1.0000
  H   H826      1.0  0.84870  0.52266  0.67440  1.0000
  C   C707      1.0  0.99878  0.72521  0.51058  1.0000
  H   H827      1.0  0.73370  0.59080  0.86849  1.0000
  H   H828      1.0  0.96344  0.84561  0.69150  1.0000
  H   H829      1.0  0.87969  0.59455  0.65636  1.0000
  H   H830      1.0  0.78364  0.61524  0.71056  1.0000
  H   H831      1.0  0.87613  0.63701  0.69159  1.0000
  H   H832      1.0  0.82861  0.64739  0.71930  1.0000
  N   N47       1.0  0.96712  0.87802  0.65489  1.0000
  H   H833      1.0  0.73037  0.84657  0.59773  1.0000
  Fe  Fe96      1.0  0.97990  0.78294  0.60875  1.0000
  H   H834      1.0  0.95913  0.90263  0.61346  1.0000
  H   H835      1.0  0.67606  0.56708  0.90022  1.0000
  H   H836      1.0  0.87969  0.54125  0.65627  1.0000
  H   H837      1.0  0.93158  0.87057  0.68739  1.0000
  H   H838      1.0  0.96230  0.94148  0.64799  1.0000
  H   H839      1.0  0.67887  0.59376  0.93086  1.0000
  C   C708      1.0  0.80620  0.53823  0.63410  1.0000
  H   H840      1.0  0.81119  0.63787  0.95791  1.0000
  C   C709      1.0  0.84485  0.60376  0.99566  1.0000
  H   H841      1.0  0.94849  0.74053  0.54540  1.0000
  C   C710      1.0  0.67535  0.97062  0.63163  1.0000
  H   H842      1.0  0.89441  0.75093  0.54381  1.0000
  H   H843      1.0  0.93670  0.86945  0.61741  1.0000
  H   H844      1.0  0.99158  0.71802  0.53358  1.0000
  H   H845      1.0  0.82401  0.59207  0.98747  1.0000
  H   H846      1.0  0.87067  0.57289  0.61149  1.0000
  S   S191      1.0  0.98015  0.78238  0.65966  1.0000
  C   C711      1.0  0.71707  0.86593  0.60715  1.0000
  H   H847      1.0  0.88956  0.66200  0.97336  1.0000
  S   S192      1.0  0.67715  0.70073  0.94015  1.0000
  H   H848      1.0  0.93751  0.83962  0.66129  1.0000
  H   H849      1.0  0.71495  0.61661  0.84384  1.0000
  H   H850      1.0  0.85982  0.51170  0.63686  1.0000
  H   H851      1.0  0.98793  0.98025  0.67747  1.0000
  H   H852      1.0  0.72957  0.87514  0.62706  1.0000
  H   H853      1.0  0.70047  0.64423  0.92235  1.0000
  C   C712      1.0  0.71073  0.63577  0.90104  1.0000
  C   C713      1.0  0.94917  0.85766  0.67466  1.0000
  C   C714      1.0  0.97646  0.93395  0.66637  1.0000
  H   H854      1.0  0.82289  0.65836  0.99122  1.0000
  H   H855      1.0  0.80890  0.51883  0.61804  1.0000
  C   C715      1.0  0.68987  0.58603  0.90953  1.0000
  H   H856      1.0  0.66935  0.89077  0.56575  1.0000
  C   C716      1.0  0.67933  0.96580  0.60019  1.0000
  H   H857      1.0  0.69966  0.57901  0.85038  1.0000
  H   H858      1.0  0.00065  0.55930  0.71337  1.0000
  C   C717      1.0  0.99989  0.89584  0.69797  1.0000
  H   H859      1.0  0.70242  0.81368  0.63154  1.0000
  H   H860      1.0  0.69887  0.84215  0.65998  1.0000
  C   C718      1.0  0.95958  0.76351  0.50307  1.0000
  H   H861      1.0  0.00122  0.80056  0.52687  1.0000
  C   C719      1.0  0.68807  0.83309  0.63899  1.0000
  N   N48       1.0  0.68587  0.85666  0.61518  1.0000
  C   C720      1.0  0.67018  0.84625  0.58735  1.0000
  H   H862      1.0  0.68040  0.89077  0.65033  1.0000
  H   H863      1.0  0.67003  0.90319  0.61389  1.0000
  H   H864      1.0  0.67070  0.83056  0.83427  1.0000
