data_image0
_chemical_formula_structural       H4CHFeS2FeS2FeCFeS3FeS2HCFe2H2CNC3HCH3C2NC3H3CH2CSHCSHC6H4C6H3CHNC3HC2H2SC2H4C3HCH2SHCHCHFeH2CH6CSCHC2HC2SCHCH4SH2CHSC3H3CHCFeHSFeSCH2CSH4C2HCSCHCHCFeCH2C2NC5H2CH2SH2C3H2CHFeS2FeS2FeSFeS3FeSCFeSNFeSFeS3H3FeS2CHFeS3CHCHC6H2CHC3H3C2H2C6H4C6H4CH2SHC2HC3FeCHCH2C2HCNC9H17NC9H14NC5H8C2HCSCSH3CHC2H2C3SH2CSCHSH2C2H4C2H3CH4NHNCFeC4HNH2CH2C2H4C4H2CHCHC2H4CH5CH2CHCHCHCHC3H4FeH7FeH2FeS2FeSFeHS2FeS2FeS2FeS2FeS2FeCFeS3HC6HFeH2C3NC3H4C3HC6H4C6H4SH4C3HCH2CNC6H3CHCHCHCH2SH2CSH3C2H3CH3C2H2CHCSH2CH2CH2C3H2NC2HNHCH2C3HCH5C3H6CNC9H12C2H4FeSH2SHSNCH2FeCSFeSHFeCHS2HCHCHCH3FeC4SC2SCNC9H4CH11SNH2CHC2HCHC4H2CH10FeSFeS2FeHFeS3FeS2FeS2FeHFeS3CH2CH2CHCH2C6H4CSHC2H3C6H6NHNC9H14NCHC7H4CH2CH11C3HCH3C2SH2C2NC9H6CH2C2SC4SH2CHCHCH2CHCHSFeSHFeSH2FeSC2HNCH3SH2CHNHSHCH2CHCHCHS2C2HC7H3CH2CHFeCHCH2FeCSHC2SC2HCH3CH2SHFe2HSFeH9SHSCFeSFeS2FeS2FeS2FeSFeS3FeS2FeS2FeSFeS4C6HCHC6H4C6H5C4H4C5H4C5HSHC3H5C2HC5H3SCNHCHC2HCH5C3HC2HC2SC2H3CFeHCHCHCH3CHCHCHC2HCHC2HNC9H6SH5NCNC4HCHCH10CFeCH2CH2CH3CH2CHCFeHCH3C2HCHCH3C3H2C2FeC2NSH2CH2CH5CHC3H2NH3CHCNHNH3CH3C2H3C3H2C2SH5CH2C2FeHCH3CSHNHCHSH2CSCHSHSC2FeCH2CSC2SH3C2NSCH2CHCFeC4HC3HCH3CSH3SH4CH3C6HSCHC6H2CSC3H5C3NCHFeCH2SCH3FeH5CSH2C2HCH2FeSFeS2FeS2FeSFeS3FeS2FeS2FeSFeS3FeS2FeS2FeSFeS3C7H4C6H6C3H3C7H4C6H4CHC4HC4H3C2H6NC6H2S2H8CFeHCH5C3HCSC3H9CHC2H2CHCH2C2H2CHNCHCH2NSHC3H2CHCHCH2CH3C2HC2H2C2H5SCHNC3NC2H2CH2C4HC2HSH5CNHCH2C3H3NH2CH2SC2HC2H2SC4H5CHCHCH3CHFeCH4CHCHCHNHCH3C2H3C3H2CHCHCS2HCSCNHC2HFeHNCHFeCH4CH5CHSHC2SCSFeSFeH4SCH3CH4CHSNC2HCHC3H2CH4FeH4C2NC4SCHC2FeHSHC2H13C2
_chemical_formula_sum              "H864 C720 Fe96 S192 N48"
_cell_length_a       50.0994
_cell_length_b       49.8466
_cell_length_c       49.5861
_cell_angle_alpha    89.6851
_cell_angle_beta     89.4241
_cell_angle_gamma    89.8723

_space_group_name_H-M_alt    "P 1"
_space_group_IT_number       1

loop_
  _space_group_symop_operation_xyz
  'x, y, z'

loop_
  _atom_site_type_symbol
  _atom_site_label
  _atom_site_symmetry_multiplicity
  _atom_site_fract_x
  _atom_site_fract_y
  _atom_site_fract_z
  _atom_site_occupancy
  H   H1        1.0  0.34057  0.20416  0.22467  1.0000
  H   H2        1.0  0.48211  0.23090  0.20827  1.0000
  H   H3        1.0  0.43061  0.28148  0.19886  1.0000
  H   H4        1.0  0.27841  0.29724  0.37262  1.0000
  C   C1        1.0  0.44284  0.26340  0.19417  1.0000
  H   H5        1.0  0.25385  0.30019  0.34723  1.0000
  Fe  Fe1       1.0  0.43186  0.23523  0.31313  1.0000
  S   S1        1.0  0.43956  0.27978  0.31408  1.0000
  S   S2        1.0  0.46761  0.20978  0.30072  1.0000
  Fe  Fe2       1.0  0.37415  0.24239  0.33068  1.0000
  S   S3        1.0  0.37710  0.28705  0.33168  1.0000
  S   S4        1.0  0.33369  0.22689  0.34284  1.0000
  Fe  Fe3       1.0  0.40023  0.28323  0.29335  1.0000
  C   C2        1.0  0.08434  0.20535  0.47207  1.0000
  Fe  Fe4       1.0  0.41575  0.27970  0.35251  1.0000
  S   S5        1.0  0.41972  0.30728  0.38793  1.0000
  S   S6        1.0  0.39374  0.23887  0.28975  1.0000
  S   S7        1.0  0.41164  0.23489  0.35403  1.0000
  Fe  Fe5       1.0  0.25775  0.29562  0.45423  1.0000
  S   S8        1.0  0.22219  0.27230  0.44113  1.0000
  S   S9        1.0  0.30069  0.28268  0.45257  1.0000
  H   H6        1.0  0.31137  0.28098  0.33913  1.0000
  C   C3        1.0  0.47441  0.13895  0.33013  1.0000
  Fe  Fe6       1.0  0.20114  0.29034  0.47705  1.0000
  Fe  Fe7       1.0  0.21008  0.31003  0.41967  1.0000
  H   H7        1.0  0.17199  0.20344  0.41988  1.0000
  H   H8        1.0  0.46668  0.15511  0.34257  1.0000
  C   C4        1.0  0.27058  0.31106  0.35698  1.0000
  N   N1        1.0  0.14715  0.23884  0.42195  1.0000
  C   C5        1.0  0.15095  0.26746  0.42883  1.0000
  C   C6        1.0  0.45350  0.32265  0.42729  1.0000
  C   C7        1.0  0.13941  0.23709  0.39318  1.0000
  H   H9        1.0  0.46849  0.26303  0.24208  1.0000
  C   C8        1.0  0.44770  0.25523  0.24185  1.0000
  H   H10       1.0  0.46364  0.27079  0.19129  1.0000
  H   H11       1.0  0.29992  0.30544  0.25372  1.0000
  H   H12       1.0  0.43593  0.25528  0.17457  1.0000
  C   C9        1.0  0.45067  0.30727  0.40404  1.0000
  C   C10       1.0  0.32713  0.32197  0.37218  1.0000
  N   N2        1.0  0.29134  0.31940  0.33710  1.0000
  C   C11       1.0  0.13090  0.20636  0.45851  1.0000
  C   C12       1.0  0.34258  0.30929  0.25808  1.0000
  C   C13       1.0  0.47257  0.29311  0.39366  1.0000
  H   H13       1.0  0.45954  0.33529  0.35399  1.0000
  H   H14       1.0  0.28755  0.28365  0.31291  1.0000
  H   H15       1.0  0.47048  0.28121  0.37562  1.0000
  C   C14       1.0  0.30279  0.29515  0.32421  1.0000
  H   H16       1.0  0.42363  0.18877  0.21444  1.0000
  H   H17       1.0  0.15762  0.26954  0.45005  1.0000
  C   C15       1.0  0.12602  0.27538  0.49872  1.0000
  S   S10       1.0  0.19927  0.31012  0.37587  1.0000
  H   H18       1.0  0.42068  0.14011  0.24944  1.0000
  C   C16       1.0  0.36057  0.32592  0.47376  1.0000
  S   S11       1.0  0.23824  0.31094  0.49199  1.0000
  H   H19       1.0  0.34563  0.28836  0.26306  1.0000
  C   C17       1.0  0.32458  0.23991  0.37456  1.0000
  C   C18       1.0  0.29759  0.24182  0.38198  1.0000
  C   C19       1.0  0.29006  0.25456  0.40613  1.0000
  C   C20       1.0  0.30954  0.26490  0.42322  1.0000
  C   C21       1.0  0.33653  0.26207  0.41625  1.0000
  C   C22       1.0  0.34402  0.25006  0.39179  1.0000
  H   H20       1.0  0.28247  0.23405  0.36872  1.0000
  H   H21       1.0  0.26921  0.25644  0.41140  1.0000
  H   H22       1.0  0.35169  0.26967  0.42949  1.0000
  H   H23       1.0  0.36489  0.24871  0.38632  1.0000
  C   C23       1.0  0.46328  0.13808  0.24319  1.0000
  C   C24       1.0  0.48772  0.15005  0.24903  1.0000
  C   C25       1.0  0.48869  0.17216  0.26652  1.0000
  C   C26       1.0  0.46519  0.18284  0.27787  1.0000
  C   C27       1.0  0.44060  0.17164  0.27109  1.0000
  C   C28       1.0  0.43969  0.14922  0.25394  1.0000
  H   H24       1.0  0.30958  0.32247  0.49503  1.0000
  H   H25       1.0  0.06859  0.19758  0.48508  1.0000
  H   H26       1.0  0.42236  0.17973  0.27966  1.0000
  C   C29       1.0  0.12594  0.22717  0.43943  1.0000
  H   H27       1.0  0.31917  0.30053  0.30988  1.0000
  N   N3        1.0  0.44107  0.24268  0.21574  1.0000
  C   C30       1.0  0.46177  0.22203  0.20989  1.0000
  C   C31       1.0  0.41363  0.23170  0.21734  1.0000
  C   C32       1.0  0.40814  0.20372  0.21661  1.0000
  H   H28       1.0  0.08433  0.28523  0.49428  1.0000
  C   C33       1.0  0.17339  0.22517  0.42471  1.0000
  C   C34       1.0  0.36073  0.21177  0.22238  1.0000
  H   H29       1.0  0.39400  0.27063  0.22221  1.0000
  H   H30       1.0  0.46293  0.20682  0.22636  1.0000
  S   S12       1.0  0.39707  0.31453  0.26078  1.0000
  C   C35       1.0  0.40802  0.32551  0.50275  1.0000
  C   C36       1.0  0.47792  0.32335  0.44067  1.0000
  H   H31       1.0  0.32254  0.30180  0.37871  1.0000
  H   H32       1.0  0.13238  0.27945  0.42670  1.0000
  H   H33       1.0  0.12156  0.24946  0.38854  1.0000
  H   H34       1.0  0.43428  0.27234  0.24678  1.0000
  C   C37       1.0  0.45669  0.12234  0.31669  1.0000
  C   C38       1.0  0.49736  0.29455  0.40664  1.0000
  C   C39       1.0  0.11028  0.19559  0.47439  1.0000
  H   H35       1.0  0.15557  0.24460  0.37947  1.0000
  C   C40       1.0  0.07890  0.22609  0.45402  1.0000
  H   H36       1.0  0.34883  0.25308  0.22583  1.0000
  H   H37       1.0  0.44580  0.24046  0.25863  1.0000
  S   S13       1.0  0.18601  0.32651  0.45427  1.0000
  H   H38       1.0  0.18872  0.23388  0.41080  1.0000
  C   C41       1.0  0.50197  0.13574  0.32659  1.0000
  H   H39       1.0  0.15060  0.19835  0.46203  1.0000
  C   C42       1.0  0.36539  0.23929  0.22300  1.0000
  H   H40       1.0  0.26195  0.32345  0.30564  1.0000
  Fe  Fe8       1.0  0.49845  0.08636  0.20856  1.0000
  H   H41       1.0  0.13289  0.29199  0.48640  1.0000
  H   H42       1.0  0.05885  0.23428  0.45318  1.0000
  C   C43       1.0  0.31285  0.33426  0.35085  1.0000
  H   H43       1.0  0.42375  0.30077  0.47096  1.0000
  H   H44       1.0  0.13497  0.21598  0.38753  1.0000
  H   H45       1.0  0.38230  0.30201  0.44460  1.0000
  H   H46       1.0  0.50033  0.08458  0.28102  1.0000
  H   H47       1.0  0.09415  0.25330  0.42463  1.0000
  H   H48       1.0  0.16629  0.27715  0.41559  1.0000
  C   C44       1.0  0.50007  0.30971  0.43021  1.0000
  S   S14       1.0  0.46151  0.10870  0.22344  1.0000
  C   C45       1.0  0.39141  0.24917  0.22066  1.0000
  H   H49       1.0  0.47944  0.33421  0.45925  1.0000
  C   C46       1.0  0.09852  0.27167  0.50344  1.0000
  C   C47       1.0  0.38204  0.19404  0.21918  1.0000
  H   H50       1.0  0.18141  0.22734  0.44550  1.0000
  C   C48       1.0  0.40658  0.31188  0.47842  1.0000
  C   C49       1.0  0.09932  0.23690  0.43791  1.0000
  S   S15       1.0  0.49710  0.06350  0.16942  1.0000
  C   C50       1.0  0.38308  0.31246  0.46371  1.0000
  H   H51       1.0  0.45782  0.21152  0.19059  1.0000
  C   C51       1.0  0.31677  0.31896  0.25281  1.0000
  H   H52       1.0  0.37841  0.17260  0.21899  1.0000
  H   H53       1.0  0.45260  0.09054  0.28796  1.0000
  H   H54       1.0  0.11454  0.18012  0.48920  1.0000
  H   H55       1.0  0.26179  0.32867  0.36754  1.0000
  S   S16       1.0  0.24739  0.33169  0.42981  1.0000
  H   H56       1.0  0.21316  0.32897  0.32259  1.0000
  H   H57       1.0  0.35955  0.32447  0.40024  1.0000
  C   C52       1.0  0.36446  0.32658  0.25611  1.0000
  H   H58       1.0  0.34250  0.32486  0.46205  1.0000
  S   S17       1.0  0.17925  0.26112  0.50480  1.0000
  C   C53       1.0  0.46643  0.10257  0.29945  1.0000
  C   C54       1.0  0.49392  0.09931  0.29562  1.0000
  C   C55       1.0  0.27777  0.33524  0.31581  1.0000
  H   H59       1.0  0.43536  0.12550  0.31882  1.0000
  H   H60       1.0  0.46407  0.00846  0.16585  1.0000
  H   H61       1.0  0.43671  0.33393  0.43512  1.0000
  C   C56       1.0  0.34831  0.33491  0.38476  1.0000
  H   H62       1.0  0.50013  0.01749  0.07773  1.0000
  C   C57       1.0  0.36117  0.33968  0.49878  1.0000
  Fe  Fe9       1.0  0.03496  0.21632  0.55302  1.0000
  H   H63       1.0  0.08063  0.25035  0.58260  1.0000
  S   S18       1.0  0.05448  0.24585  0.52391  1.0000
  Fe  Fe10      1.0  0.02610  0.16227  0.58115  1.0000
  S   S19       1.0  0.03662  0.11861  0.58540  1.0000
  C   C58       1.0  0.13520  0.23669  0.52680  1.0000
  H   H64       1.0  0.06438  0.31956  0.63069  1.0000
  H   H65       1.0  0.12108  0.27098  0.57484  1.0000
  C   C59       1.0  0.00579  0.08153  0.66434  1.0000
  S   S20       1.0  0.05253  0.19737  0.59007  1.0000
  H   H66       1.0  0.10081  0.21654  0.54407  1.0000
  H   H67       1.0  0.32281  0.31609  0.52781  1.0000
  H   H68       1.0  0.15341  0.29815  0.55080  1.0000
  H   H69       1.0  0.02576  0.14174  0.63807  1.0000
  C   C60       1.0  0.08926  0.25045  0.51978  1.0000
  C   C61       1.0  0.01061  0.06552  0.64172  1.0000
  H   H70       1.0  0.14937  0.22300  0.53582  1.0000
  C   C62       1.0  0.07166  0.29852  0.62970  1.0000
  S   S21       1.0  0.01195  0.17934  0.54170  1.0000
  C   C63       1.0  0.10771  0.23308  0.53164  1.0000
  H   H71       1.0  0.05716  0.28632  0.64183  1.0000
  C   C64       1.0  0.11734  0.29231  0.57423  1.0000
  H   H72       1.0  0.04885  0.28478  0.56695  1.0000
  C   C65       1.0  0.02089  0.07692  0.61785  1.0000
  Fe  Fe11      1.0  0.01620  0.21374  0.61120  1.0000
  C   C66       1.0  0.04779  0.29162  0.58832  1.0000
  H   H73       1.0  0.09125  0.29755  0.64007  1.0000
  H   H74       1.0  0.06470  0.24843  0.61496  1.0000
  C   C67       1.0  0.09180  0.33254  0.58373  1.0000
  C   C68       1.0  0.09449  0.30430  0.58654  1.0000
  N   N4        1.0  0.07404  0.28863  0.60159  1.0000
  C   C69       1.0  0.13621  0.30777  0.56018  1.0000
  C   C70       1.0  0.08014  0.25951  0.60306  1.0000
  C   C71       1.0  0.38581  0.33936  0.51287  1.0000
  C   C72       1.0  0.31573  0.33230  0.51407  1.0000
  C   C73       1.0  0.02586  0.10451  0.61624  1.0000
  H   H75       1.0  0.03208  0.27955  0.59881  1.0000
  H   H76       1.0  0.01241  0.26064  0.70131  1.0000
  C   C74       1.0  0.02127  0.12055  0.63892  1.0000
  H   H77       1.0  0.09948  0.25557  0.61318  1.0000
  H   H78       1.0  0.00656  0.04433  0.64256  1.0000
  S   S22       1.0  0.02152  0.23263  0.65186  1.0000
  H   H79       1.0  0.02459  0.06441  0.60044  1.0000
  H   H80       1.0  0.04058  0.31269  0.58817  1.0000
  C   C75       1.0  0.14446  0.25769  0.51017  1.0000
  C   C76       1.0  0.13291  0.33540  0.55777  1.0000
  C   C77       1.0  0.01155  0.10901  0.66300  1.0000
  H   H81       1.0  0.00855  0.12138  0.68060  1.0000
  H   H82       1.0  0.42651  0.32514  0.51400  1.0000
  C   C78       1.0  0.03949  0.61871  0.09655  1.0000
  H   H83       1.0  0.02688  0.60116  0.09780  1.0000
  Fe  Fe12      1.0  0.29825  0.44206  0.29094  1.0000
  S   S23       1.0  0.30041  0.43647  0.24608  1.0000
  S   S24       1.0  0.33151  0.44528  0.32075  1.0000
  Fe  Fe13      1.0  0.23868  0.43040  0.29398  1.0000
  S   S25       1.0  0.23518  0.42347  0.24950  1.0000
  S   S26       1.0  0.20673  0.42724  0.32592  1.0000
  Fe  Fe14      1.0  0.27391  0.40084  0.25375  1.0000
  S   S27       1.0  0.28012  0.35809  0.24094  1.0000
  Fe  Fe15      1.0  0.26163  0.45981  0.24545  1.0000
  S   S28       1.0  0.25465  0.49614  0.21854  1.0000
  S   S29       1.0  0.27471  0.40489  0.29840  1.0000
  S   S30       1.0  0.26214  0.46839  0.29006  1.0000
  Fe  Fe16      1.0  0.17125  0.57580  0.05570  1.0000
  S   S31       1.0  0.17461  0.58108  0.10052  1.0000
  C   C79       1.0  0.44612  0.41496  0.46842  1.0000
  Fe  Fe17      1.0  0.11432  0.55445  0.05912  1.0000
  S   S32       1.0  0.11315  0.55712  0.10420  1.0000
  N   N5        1.0  0.45925  0.37889  0.35487  1.0000
  Fe  Fe18      1.0  0.13263  0.59715  0.09783  1.0000
  S   S33       1.0  0.11641  0.63654  0.11256  1.0000
  Fe  Fe19      1.0  0.15495  0.54041  0.10271  1.0000
  S   S34       1.0  0.16635  0.50359  0.12740  1.0000
  S   S35       1.0  0.13142  0.59526  0.05298  1.0000
  S   S36       1.0  0.15428  0.53423  0.05767  1.0000
  H   H84       1.0  0.05126  0.63225  0.03210  1.0000
  H   H85       1.0  0.46074  0.49007  0.44035  1.0000
  H   H86       1.0  0.32494  0.43885  0.37928  1.0000
  Fe  Fe20      1.0  0.43766  0.54700  0.34108  1.0000
  S   S37       1.0  0.44635  0.58628  0.36113  1.0000
  S   S38       1.0  0.40763  0.54540  0.30753  1.0000
  C   C80       1.0  0.44889  0.58190  0.24588  1.0000
  H   H87       1.0  0.50221  0.42128  0.40426  1.0000
  Fe  Fe21      1.0  0.44460  0.56220  0.39957  1.0000
  S   S39       1.0  0.42301  0.57734  0.43658  1.0000
  S   S40       1.0  0.48062  0.53559  0.33559  1.0000
  S   S41       1.0  0.43260  0.52417  0.37972  1.0000
  C   C81       1.0  0.34183  0.44888  0.41682  1.0000
  H   H88       1.0  0.31199  0.37125  0.32656  1.0000
  C   C82       1.0  0.25795  0.42424  0.50544  1.0000
  H   H89       1.0  0.45961  0.61043  0.29046  1.0000
  C   C83       1.0  0.39625  0.55876  0.45048  1.0000
  C   C84       1.0  0.38543  0.53675  0.43707  1.0000
  C   C85       1.0  0.36348  0.52301  0.44809  1.0000
  C   C86       1.0  0.35246  0.53083  0.47288  1.0000
  C   C87       1.0  0.36357  0.55244  0.48665  1.0000
  C   C88       1.0  0.38521  0.56656  0.47531  1.0000
  H   H90       1.0  0.39362  0.53028  0.41811  1.0000
  H   H91       1.0  0.35498  0.50634  0.43733  1.0000
  C   C89       1.0  0.40759  0.41366  0.31017  1.0000
  H   H92       1.0  0.27747  0.42238  0.45137  1.0000
  C   C90       1.0  0.06629  0.61675  0.10405  1.0000
  C   C91       1.0  0.08267  0.63940  0.10342  1.0000
  C   C92       1.0  0.41722  0.36300  0.33220  1.0000
  H   H93       1.0  0.01057  0.52925  0.04036  1.0000
  H   H94       1.0  0.07405  0.59781  0.11111  1.0000
  H   H95       1.0  0.37733  0.36703  0.24793  1.0000
  C   C93       1.0  0.27110  0.47231  0.14836  1.0000
  C   C94       1.0  0.19283  0.63906  0.03682  1.0000
  H   H96       1.0  0.37299  0.39594  0.29217  1.0000
  H   H97       1.0  0.24485  0.43952  0.14007  1.0000
  C   C95       1.0  0.22915  0.49816  0.19416  1.0000
  C   C96       1.0  0.22457  0.52270  0.18088  1.0000
  C   C97       1.0  0.20517  0.52485  0.16063  1.0000
  C   C98       1.0  0.19043  0.50231  0.15326  1.0000
  C   C99       1.0  0.19487  0.47782  0.16671  1.0000
  C   C100      1.0  0.21399  0.47577  0.18722  1.0000
  H   H98       1.0  0.23619  0.54012  0.18621  1.0000
  H   H99       1.0  0.20170  0.54390  0.15073  1.0000
  H   H100      1.0  0.18351  0.46031  0.16113  1.0000
  H   H101      1.0  0.21747  0.45673  0.19712  1.0000
  C   C101      1.0  0.35272  0.47279  0.31585  1.0000
  C   C102      1.0  0.37620  0.47416  0.33076  1.0000
  C   C103      1.0  0.39356  0.49589  0.32736  1.0000
  C   C104      1.0  0.38703  0.51695  0.30991  1.0000
  C   C105      1.0  0.36351  0.51560  0.29490  1.0000
  C   C106      1.0  0.34639  0.49342  0.29775  1.0000
  H   H102      1.0  0.38125  0.45813  0.34462  1.0000
  H   H103      1.0  0.41223  0.49599  0.33789  1.0000
  H   H104      1.0  0.35844  0.53173  0.28118  1.0000
  H   H105      1.0  0.32825  0.49240  0.28614  1.0000
  C   C107      1.0  0.25910  0.51639  0.05804  1.0000
  H   H106      1.0  0.43458  0.36281  0.38683  1.0000
  H   H107      1.0  0.02424  0.57465  0.03338  1.0000
  S   S42       1.0  0.23057  0.38973  0.47341  1.0000
  H   H108      1.0  0.45919  0.40086  0.45820  1.0000
  C   C108      1.0  0.20471  0.39462  0.33963  1.0000
  C   C109      1.0  0.21120  0.37221  0.32397  1.0000
  H   H109      1.0  0.42531  0.49503  0.44081  1.0000
  C   C110      1.0  0.32097  0.36055  0.34308  1.0000
  C   C111      1.0  0.19563  0.36513  0.37794  1.0000
  C   C112      1.0  0.19662  0.39098  0.36654  1.0000
  Fe  Fe22      1.0  0.47637  0.51577  0.37619  1.0000
  C   C113      1.0  0.49274  0.66332  0.30493  1.0000
  H   H110      1.0  0.19114  0.40815  0.37866  1.0000
  C   C114      1.0  0.36041  0.35367  0.24968  1.0000
  H   H111      1.0  0.41936  0.34318  0.34082  1.0000
  H   H112      1.0  0.31300  0.44153  0.47865  1.0000
  C   C115      1.0  0.44405  0.49960  0.45168  1.0000
  C   C116      1.0  0.29502  0.42995  0.44109  1.0000
  H   H113      1.0  0.19924  0.49143  0.07832  1.0000
  C   C117      1.0  0.20137  0.34268  0.36208  1.0000
  N   N6        1.0  0.34767  0.58065  0.37950  1.0000
  C   C118      1.0  0.33409  0.59422  0.35675  1.0000
  C   C119      1.0  0.34868  0.59976  0.40240  1.0000
  C   C120      1.0  0.37566  0.57493  0.37129  1.0000
  C   C121      1.0  0.33340  0.55540  0.38609  1.0000
  C   C122      1.0  0.31922  0.55142  0.41079  1.0000
  C   C123      1.0  0.33223  0.53432  0.36694  1.0000
  C   C124      1.0  0.30506  0.52776  0.41591  1.0000
  C   C125      1.0  0.31810  0.51069  0.37234  1.0000
  C   C126      1.0  0.30452  0.50747  0.39678  1.0000
  H   H114      1.0  0.31268  0.59804  0.36169  1.0000
  H   H115      1.0  0.34357  0.61382  0.35167  1.0000
  H   H116      1.0  0.33481  0.58196  0.33805  1.0000
  H   H117      1.0  0.32841  0.60676  0.40851  1.0000
  H   H118      1.0  0.36046  0.61803  0.39724  1.0000
  H   H119      1.0  0.35854  0.59051  0.42027  1.0000
  H   H120      1.0  0.38665  0.56480  0.38777  1.0000
  H   H121      1.0  0.37715  0.56202  0.35320  1.0000
  H   H122      1.0  0.38677  0.59362  0.36623  1.0000
  H   H123      1.0  0.31916  0.56594  0.42688  1.0000
  H   H124      1.0  0.34208  0.53595  0.34750  1.0000
  H   H125      1.0  0.29498  0.52493  0.43522  1.0000
  H   H126      1.0  0.40233  0.50534  0.48594  1.0000
  H   H127      1.0  0.42788  0.52937  0.49249  1.0000
  H   H128      1.0  0.25112  0.52629  0.03954  1.0000
  H   H129      1.0  0.29364  0.48920  0.40106  1.0000
  H   H130      1.0  0.28847  0.37955  0.39564  1.0000
  N   N7        1.0  0.16677  0.47540  0.26091  1.0000
  C   C127      1.0  0.15153  0.48308  0.28548  1.0000
  C   C128      1.0  0.16485  0.44578  0.25812  1.0000
  C   C129      1.0  0.19531  0.48192  0.26498  1.0000
  C   C130      1.0  0.15644  0.49044  0.23732  1.0000
  C   C131      1.0  0.14418  0.47768  0.21504  1.0000
  C   C132      1.0  0.15839  0.51886  0.23624  1.0000
  C   C133      1.0  0.13496  0.49257  0.19300  1.0000
  C   C134      1.0  0.14928  0.53349  0.21399  1.0000
  C   C135      1.0  0.13766  0.52035  0.19239  1.0000
  H   H131      1.0  0.12983  0.47910  0.28302  1.0000
  H   H132      1.0  0.15842  0.47161  0.30353  1.0000
  H   H133      1.0  0.15382  0.50470  0.29028  1.0000
  H   H134      1.0  0.14375  0.43906  0.25670  1.0000
  H   H135      1.0  0.17343  0.43506  0.27587  1.0000
  H   H136      1.0  0.17617  0.43864  0.24007  1.0000
  H   H137      1.0  0.19871  0.50334  0.26982  1.0000
  H   H138      1.0  0.20387  0.47018  0.28200  1.0000
  H   H139      1.0  0.20728  0.47747  0.24653  1.0000
  H   H140      1.0  0.14192  0.45621  0.21378  1.0000
  H   H141      1.0  0.16730  0.53000  0.25243  1.0000
  H   H142      1.0  0.12655  0.48250  0.17570  1.0000
  H   H143      1.0  0.15160  0.55510  0.21324  1.0000
  H   H144      1.0  0.13127  0.53161  0.17480  1.0000
  N   N8        1.0  0.27410  0.42027  0.39632  1.0000
  C   C136      1.0  0.24928  0.43464  0.40448  1.0000
  C   C137      1.0  0.27779  0.42450  0.36684  1.0000
  C   C138      1.0  0.27022  0.39119  0.40112  1.0000
  C   C139      1.0  0.29690  0.42971  0.41252  1.0000
  C   C140      1.0  0.32132  0.43881  0.40080  1.0000
  H   H145      1.0  0.25219  0.45675  0.40399  1.0000
  H   H146      1.0  0.23235  0.42999  0.39091  1.0000
  H   H147      1.0  0.24221  0.42894  0.42509  1.0000
  H   H148      1.0  0.29482  0.41261  0.35867  1.0000
  H   H149      1.0  0.28119  0.44603  0.36182  1.0000
  H   H150      1.0  0.25988  0.41813  0.35538  1.0000
  H   H151      1.0  0.26549  0.38679  0.42267  1.0000
  H   H152      1.0  0.25325  0.38319  0.38921  1.0000
  C   C141      1.0  0.02903  0.64316  0.08754  1.0000
  C   C142      1.0  0.46857  0.49450  0.49306  1.0000
  H   H153      1.0  0.26786  0.35330  0.32434  1.0000
  C   C143      1.0  0.39031  0.39259  0.30473  1.0000
  S   S43       1.0  0.07622  0.54874  0.03633  1.0000
  C   C144      1.0  0.43550  0.46142  0.48111  1.0000
  S   S44       1.0  0.32455  0.51376  0.48599  1.0000
  H   H154      1.0  0.27462  0.53007  0.06595  1.0000
  H   H155      1.0  0.26919  0.49745  0.05185  1.0000
  H   H156      1.0  0.42083  0.38418  0.48513  1.0000
  C   C145      1.0  0.31546  0.44035  0.45689  1.0000
  H   H157      1.0  0.29398  0.50826  0.15271  1.0000
  C   C146      1.0  0.48015  0.39990  0.35198  1.0000
  C   C147      1.0  0.33876  0.44995  0.44478  1.0000
  H   H158      1.0  0.47703  0.35131  0.32652  1.0000
  H   H159      1.0  0.18141  0.63179  0.05398  1.0000
  C   C148      1.0  0.33450  0.36359  0.24563  1.0000
  C   C149      1.0  0.35565  0.36070  0.37680  1.0000
  C   C150      1.0  0.43582  0.38380  0.33745  1.0000
  S   S45       1.0  0.48767  0.47235  0.38239  1.0000
  H   H160      1.0  0.36001  0.45640  0.40744  1.0000
  H   H161      1.0  0.33152  0.38454  0.24079  1.0000
  C   C151      1.0  0.39514  0.36730  0.31570  1.0000
  S   S46       1.0  0.20288  0.58602  0.02491  1.0000
  C   C152      1.0  0.42439  0.40557  0.48338  1.0000
  H   H162      1.0  0.35432  0.45848  0.45714  1.0000
  S   S47       1.0  0.48841  0.55236  0.39928  1.0000
  H   H163      1.0  0.34799  0.39348  0.34956  1.0000
  H   H164      1.0  0.24025  0.55117  0.09461  1.0000
  C   C153      1.0  0.34187  0.37359  0.35615  1.0000
  C   C154      1.0  0.24773  0.39827  0.50286  1.0000
  H   H165      1.0  0.22517  0.46026  0.10074  1.0000
  H   H166      1.0  0.20840  0.50622  0.04671  1.0000
  H   H167      1.0  0.00996  0.60718  0.03743  1.0000
  H   H168      1.0  0.08355  0.63764  0.04637  1.0000
  C   C155      1.0  0.26879  0.51011  0.11765  1.0000
  C   C156      1.0  0.41324  0.45121  0.49589  1.0000
  H   H169      1.0  0.48557  0.58863  0.30246  1.0000
  H   H170      1.0  0.49092  0.34958  0.35994  1.0000
  H   H171      1.0  0.31768  0.49485  0.35743  1.0000
  C   C157      1.0  0.31266  0.34618  0.24675  1.0000
  H   H172      1.0  0.00761  0.48775  0.01489  1.0000
  H   H173      1.0  0.21611  0.54745  0.06890  1.0000
  H   H174      1.0  0.21723  0.37481  0.30309  1.0000
  H   H175      1.0  0.27893  0.46316  0.16655  1.0000
  N   N9        1.0  0.23762  0.51101  0.07813  1.0000
  H   H176      1.0  0.20983  0.53368  0.10197  1.0000
  N   N10       1.0  0.47425  0.58234  0.26118  1.0000
  C   C158      1.0  0.19563  0.66683  0.03252  1.0000
  Fe  Fe23      1.0  0.48918  0.57327  0.35877  1.0000
  C   C159      1.0  0.22552  0.53693  0.08628  1.0000
  C   C160      1.0  0.45170  0.44241  0.46735  1.0000
  C   C161      1.0  0.24066  0.47133  0.11072  1.0000
  C   C162      1.0  0.21655  0.49529  0.06450  1.0000
  H   H177      1.0  0.22435  0.47579  0.05695  1.0000
  N   N11       1.0  0.44236  0.49032  0.48015  1.0000
  H   H178      1.0  0.48472  0.48254  0.48341  1.0000
  H   H179      1.0  0.18962  0.36253  0.39882  1.0000
  C   C163      1.0  0.42992  0.40955  0.32645  1.0000
  H   H180      1.0  0.32015  0.36368  0.47081  1.0000
  H   H181      1.0  0.44221  0.42689  0.33015  1.0000
  C   C164      1.0  0.42266  0.50772  0.49430  1.0000
  C   C165      1.0  0.40785  0.42368  0.49686  1.0000
  H   H182      1.0  0.39343  0.58354  0.48589  1.0000
  H   H183      1.0  0.27588  0.52996  0.11253  1.0000
  H   H184      1.0  0.40029  0.46396  0.50773  1.0000
  H   H185      1.0  0.46695  0.37361  0.39728  1.0000
  C   C166      1.0  0.24891  0.49732  0.10207  1.0000
  C   C167      1.0  0.20536  0.62088  0.01936  1.0000
  C   C168      1.0  0.27951  0.49780  0.14053  1.0000
  C   C169      1.0  0.25183  0.45907  0.13343  1.0000
  H   H186      1.0  0.47355  0.41956  0.36031  1.0000
  H   H187      1.0  0.40357  0.43335  0.30169  1.0000
  C   C170      1.0  0.49513  0.64079  0.32196  1.0000
  H   H188      1.0  0.47479  0.51592  0.49208  1.0000
  C   C171      1.0  0.20894  0.34627  0.33501  1.0000
  H   H189      1.0  0.47005  0.53954  0.26735  1.0000
  C   C172      1.0  0.45020  0.37832  0.38337  1.0000
  C   C173      1.0  0.46773  0.58967  0.28933  1.0000
  H   H190      1.0  0.44746  0.52166  0.45019  1.0000
  H   H191      1.0  0.47753  0.63184  0.33094  1.0000
  H   H192      1.0  0.43774  0.60115  0.24774  1.0000
  H   H193      1.0  0.37247  0.37041  0.38621  1.0000
  C   C174      1.0  0.07217  0.66405  0.09464  1.0000
  H   H194      1.0  0.44150  0.39796  0.38950  1.0000
  H   H195      1.0  0.46925  0.44861  0.45617  1.0000
  H   H196      1.0  0.07714  0.60748  0.02910  1.0000
  H   H197      1.0  0.38166  0.35087  0.31143  1.0000
  H   H198      1.0  0.46753  0.62428  0.22338  1.0000
  C   C175      1.0  0.04545  0.66583  0.08620  1.0000
  H   H199      1.0  0.48615  0.40279  0.33049  1.0000
  H   H200      1.0  0.45259  0.57603  0.29833  1.0000
  C   C176      1.0  0.00724  0.58760  0.02720  1.0000
  H   H201      1.0  0.43493  0.56622  0.25380  1.0000
  C   C177      1.0  0.48529  0.55463  0.26092  1.0000
  H   H202      1.0  0.25431  0.43912  0.48994  1.0000
  C   C178      1.0  0.47217  0.35276  0.34841  1.0000
  H   H203      1.0  0.45260  0.57757  0.22416  1.0000
  C   C179      1.0  0.32677  0.37300  0.48993  1.0000
  H   H204      1.0  0.49854  0.39466  0.36334  1.0000
  C   C180      1.0  0.49406  0.60176  0.25042  1.0000
  C   C181      1.0  0.48732  0.62218  0.23148  1.0000
  C   C182      1.0  0.07303  0.62935  0.02863  1.0000
  H   H205      1.0  0.50205  0.55192  0.27520  1.0000
  H   H206      1.0  0.30909  0.38408  0.49806  1.0000
  H   H207      1.0  0.34248  0.38801  0.48488  1.0000
  H   H208      1.0  0.47318  0.67135  0.30050  1.0000
  Fe  Fe24      1.0  0.22487  0.34554  0.46628  1.0000
  H   H209      1.0  0.12241  0.64761  0.01692  1.0000
  H   H210      1.0  0.49259  0.54914  0.24040  1.0000
  H   H211      1.0  0.29190  0.34151  0.29954  1.0000
  H   H212      1.0  0.50042  0.65720  0.20922  1.0000
  H   H213      1.0  0.35507  0.55870  0.50576  1.0000
  H   H214      1.0  0.11491  0.51022  0.01446  1.0000
  H   H215      1.0  0.22396  0.54136  0.72067  1.0000
  Fe  Fe25      1.0  0.22052  0.64594  0.75561  1.0000
  H   H216      1.0  0.10823  0.36931  0.56753  1.0000
  H   H217      1.0  0.23275  0.61296  0.90643  1.0000
  Fe  Fe26      1.0  0.19025  0.59728  0.77526  1.0000
  S   S48       1.0  0.16372  0.59729  0.73923  1.0000
  S   S49       1.0  0.18379  0.56726  0.80887  1.0000
  Fe  Fe27      1.0  0.20111  0.60572  0.71500  1.0000
  S   S50       1.0  0.20508  0.58366  0.67509  1.0000
  Fe  Fe28      1.0  0.16126  0.64176  0.74518  1.0000
  H   H218      1.0  0.40586  0.38185  0.56478  1.0000
  S   S51       1.0  0.22809  0.60170  0.75086  1.0000
  S   S52       1.0  0.18513  0.64109  0.78289  1.0000
  Fe  Fe29      1.0  0.04418  0.54330  0.86493  1.0000
  S   S53       1.0  0.05960  0.50135  0.86073  1.0000
  S   S54       1.0  0.06659  0.58110  0.85442  1.0000
  Fe  Fe30      1.0  0.04512  0.49599  0.90327  1.0000
  S   S55       1.0  0.07191  0.47523  0.93310  1.0000
  S   S56       1.0  0.03253  0.53881  0.90831  1.0000
  Fe  Fe31      1.0  0.32443  0.51686  0.59053  1.0000
  S   S57       1.0  0.29565  0.49895  0.56102  1.0000
  S   S58       1.0  0.31653  0.54438  0.62619  1.0000
  Fe  Fe32      1.0  0.37199  0.48536  0.56760  1.0000
  S   S59       1.0  0.34720  0.46439  0.53708  1.0000
  S   S60       1.0  0.41649  0.47972  0.56781  1.0000
  Fe  Fe33      1.0  0.32868  0.50472  0.53029  1.0000
  C   C183      1.0  0.06818  0.63054  0.97988  1.0000
  Fe  Fe34      1.0  0.31685  0.46025  0.57012  1.0000
  S   S61       1.0  0.29611  0.42082  0.57686  1.0000
  S   S62       1.0  0.35563  0.52628  0.55871  1.0000
  S   S63       1.0  0.34347  0.47742  0.60164  1.0000
  H   H219      1.0  0.06363  0.38755  0.83663  1.0000
  C   C184      1.0  0.42721  0.44665  0.56241  1.0000
  C   C185      1.0  0.45352  0.44210  0.55388  1.0000
  C   C186      1.0  0.46240  0.41603  0.54833  1.0000
  C   C187      1.0  0.44530  0.39422  0.55231  1.0000
  C   C188      1.0  0.41904  0.39868  0.56133  1.0000
  C   C189      1.0  0.40986  0.42493  0.56604  1.0000
  H   H220      1.0  0.46701  0.45879  0.55133  1.0000
  Fe  Fe35      1.0  0.49826  0.36051  0.52854  1.0000
  H   H221      1.0  0.11672  0.61710  0.99915  1.0000
  H   H222      1.0  0.38958  0.42835  0.57290  1.0000
  C   C190      1.0  0.01034  0.34631  0.83414  1.0000
  C   C191      1.0  0.07364  0.49490  0.96231  1.0000
  C   C192      1.0  0.05244  0.51194  0.96885  1.0000
  N   N12       1.0  0.08192  0.64255  0.00320  1.0000
  C   C193      1.0  0.18348  0.62208  0.88866  1.0000
  C   C194      1.0  0.25831  0.66569  0.86113  1.0000
  C   C195      1.0  0.09624  0.49424  0.97880  1.0000
  H   H223      1.0  0.03448  0.51177  0.95701  1.0000
  H   H224      1.0  0.24675  0.62472  0.85417  1.0000
  H   H225      1.0  0.11270  0.48102  0.97383  1.0000
  H   H226      1.0  0.09866  0.61871  0.78503  1.0000
  C   C196      1.0  0.26615  0.38665  0.54653  1.0000
  C   C197      1.0  0.27699  0.41242  0.54869  1.0000
  C   C198      1.0  0.05671  0.52897  0.78919  1.0000
  H   H227      1.0  0.26903  0.37217  0.56258  1.0000
  C   C199      1.0  0.15227  0.57141  0.82408  1.0000
  C   C200      1.0  0.14014  0.59666  0.82484  1.0000
  C   C201      1.0  0.11451  0.59965  0.83592  1.0000
  C   C202      1.0  0.10031  0.57722  0.84513  1.0000
  C   C203      1.0  0.11301  0.55221  0.84585  1.0000
  C   C204      1.0  0.13911  0.54936  0.83564  1.0000
  H   H228      1.0  0.15041  0.61395  0.81686  1.0000
  H   H229      1.0  0.10532  0.61929  0.83650  1.0000
  H   H230      1.0  0.10268  0.53496  0.85379  1.0000
  H   H231      1.0  0.14862  0.52985  0.83562  1.0000
  C   C205      1.0  0.23633  0.57430  0.66090  1.0000
  C   C206      1.0  0.26034  0.57987  0.67385  1.0000
  C   C207      1.0  0.28470  0.57083  0.66272  1.0000
  C   C208      1.0  0.28534  0.55630  0.63851  1.0000
  C   C209      1.0  0.26138  0.55132  0.62518  1.0000
  C   C210      1.0  0.23698  0.56014  0.63645  1.0000
  H   H232      1.0  0.26011  0.59083  0.69262  1.0000
  H   H233      1.0  0.30314  0.57497  0.67306  1.0000
  H   H234      1.0  0.26160  0.54076  0.60620  1.0000
  H   H235      1.0  0.21850  0.55596  0.62622  1.0000
  S   S64       1.0  0.26081  0.66098  0.89613  1.0000
  H   H236      1.0  0.06885  0.61683  0.80556  1.0000
  H   H237      1.0  0.03566  0.59781  0.91634  1.0000
  H   H238      1.0  0.18872  0.59090  0.96057  1.0000
  H   H239      1.0  0.11855  0.64815  0.98087  1.0000
  C   C211      1.0  0.25053  0.64412  0.84509  1.0000
  C   C212      1.0  0.15042  0.57353  0.96419  1.0000
  C   C213      1.0  0.10328  0.53793  0.78052  1.0000
  H   H240      1.0  0.38853  0.34927  0.53194  1.0000
  C   C214      1.0  0.02851  0.41323  0.90946  1.0000
  H   H241      1.0  0.09784  0.60645  0.73767  1.0000
  H   H242      1.0  0.00852  0.42048  0.90292  1.0000
  C   C215      1.0  0.05797  0.59088  0.95268  1.0000
  N   N13       1.0  0.06434  0.60186  0.76537  1.0000
  C   C216      1.0  0.06969  0.60248  0.97524  1.0000
  C   C217      1.0  0.17008  0.58746  0.92065  1.0000
  C   C218      1.0  0.22018  0.63059  0.99729  1.0000
  C   C219      1.0  0.07034  0.57386  0.77355  1.0000
  C   C220      1.0  0.09709  0.56439  0.77347  1.0000
  C   C221      1.0  0.05026  0.55536  0.78199  1.0000
  H   H243      1.0  0.15220  0.57118  0.98589  1.0000
  H   H244      1.0  0.03181  0.64662  0.92356  1.0000
  H   H245      1.0  0.06818  0.59277  0.72308  1.0000
  C   C222      1.0  0.27299  0.43115  0.52804  1.0000
  H   H246      1.0  0.10705  0.56137  0.91348  1.0000
  C   C223      1.0  0.07141  0.39602  0.89611  1.0000
  H   H247      1.0  0.04111  0.51519  0.79568  1.0000
  C   C224      1.0  0.03532  0.60796  0.76454  1.0000
  H   H248      1.0  0.03152  0.62896  0.75774  1.0000
  C   C225      1.0  0.09760  0.51089  0.00162  1.0000
  H   H249      1.0  0.20748  0.55854  0.89473  1.0000
  H   H250      1.0  0.18506  0.57167  0.87005  1.0000
  S   S65       1.0  0.45654  0.36140  0.54606  1.0000
  H   H251      1.0  0.11354  0.57755  0.76845  1.0000
  H   H252      1.0  0.03788  0.54260  0.99534  1.0000
  C   C226      1.0  0.05404  0.52886  0.99112  1.0000
  S   S66       1.0  0.12088  0.66169  0.74797  1.0000
  H   H253      1.0  0.06884  0.37713  0.90791  1.0000
  H   H254      1.0  0.02592  0.60606  0.78494  1.0000
  H   H255      1.0  0.32241  0.37674  0.54307  1.0000
  C   C227      1.0  0.11113  0.63868  0.99990  1.0000
  C   C228      1.0  0.05416  0.64612  0.96051  1.0000
  H   H256      1.0  0.06519  0.42825  0.85360  1.0000
  H   H257      1.0  0.08090  0.41113  0.90950  1.0000
  H   H258      1.0  0.04273  0.35507  0.80693  1.0000
  C   C229      1.0  0.04441  0.60675  0.93408  1.0000
  H   H259      1.0  0.48252  0.41287  0.54107  1.0000
  H   H260      1.0  0.02589  0.39614  0.92374  1.0000
  H   H261      1.0  0.14753  0.34719  0.54663  1.0000
  C   C230      1.0  0.08313  0.52027  0.78841  1.0000
  C   C231      1.0  0.07684  0.67178  0.00632  1.0000
  H   H262      1.0  0.16775  0.61730  0.87377  1.0000
  H   H263      1.0  0.20024  0.63131  0.87693  1.0000
  C   C232      1.0  0.11075  0.34779  0.56953  1.0000
  H   H264      1.0  0.05970  0.56947  0.94944  1.0000
  C   C233      1.0  0.03337  0.38503  0.86860  1.0000
  S   S67       1.0  0.19624  0.65067  0.71796  1.0000
  H   H265      1.0  0.08584  0.39189  0.87946  1.0000
  H   H266      1.0  0.17543  0.63762  0.90259  1.0000
  C   C234      1.0  0.21616  0.60575  0.91971  1.0000
  H   H267      1.0  0.21155  0.62248  0.93384  1.0000
  H   H268      1.0  0.07072  0.62802  0.73097  1.0000
  C   C235      1.0  0.12738  0.56489  0.95134  1.0000
  H   H269      1.0  0.21806  0.58430  0.87134  1.0000
  H   H270      1.0  0.29605  0.50413  0.69434  1.0000
  C   C236      1.0  0.07654  0.62059  0.78473  1.0000
  C   C237      1.0  0.05021  0.43072  0.87001  1.0000
  C   C238      1.0  0.17149  0.58476  0.94922  1.0000
  H   H271      1.0  0.05788  0.44715  0.88288  1.0000
  H   H272      1.0  0.24342  0.35963  0.52198  1.0000
  N   N14       1.0  0.04547  0.40582  0.88585  1.0000
  C   C239      1.0  0.04237  0.63428  0.93810  1.0000
  C   C240      1.0  0.07565  0.60737  0.73810  1.0000
  H   H273      1.0  0.24192  0.63066  0.80492  1.0000
  N   N15       1.0  0.19240  0.59799  0.90385  1.0000
  H   H274      1.0  0.12394  0.53138  0.78055  1.0000
  C   C241      1.0  0.25178  0.37949  0.52349  1.0000
  H   H275      1.0  0.22433  0.58847  0.93131  1.0000
  H   H276      1.0  0.03145  0.43780  0.86052  1.0000
  C   C242      1.0  0.14603  0.57907  0.90837  1.0000
  C   C243      1.0  0.24779  0.64747  0.81718  1.0000
  C   C244      1.0  0.04543  0.37808  0.84354  1.0000
  H   H277      1.0  0.22994  0.61665  0.98374  1.0000
  C   C245      1.0  0.22257  0.65833  0.99273  1.0000
  H   H278      1.0  0.07234  0.64193  0.77948  1.0000
  H   H279      1.0  0.02482  0.59447  0.75033  1.0000
  H   H280      1.0  0.28118  0.45111  0.52957  1.0000
  H   H281      1.0  0.08798  0.49990  0.79436  1.0000
  H   H282      1.0  0.08033  0.58929  0.98881  1.0000
  C   C246      1.0  0.20111  0.57724  0.88425  1.0000
  C   C247      1.0  0.34098  0.36685  0.53557  1.0000
  C   C248      1.0  0.00973  0.37095  0.87609  1.0000
  H   H283      1.0  0.42172  0.50329  0.51630  1.0000
  H   H284      1.0  0.27264  0.53474  0.72407  1.0000
  H   H285      1.0  0.03753  0.42977  0.92136  1.0000
  H   H286      1.0  0.14337  0.58074  0.88683  1.0000
  H   H287      1.0  0.11135  0.55566  0.96292  1.0000
  H   H288      1.0  0.19841  0.51693  0.68655  1.0000
  C   C249      1.0  0.12507  0.56794  0.92351  1.0000
  N   N16       1.0  0.27360  0.47082  0.65449  1.0000
  C   C250      1.0  0.27066  0.47985  0.62616  1.0000
  C   C251      1.0  0.30261  0.46745  0.65954  1.0000
  C   C252      1.0  0.26098  0.44405  0.65751  1.0000
  C   C253      1.0  0.26044  0.49027  0.67285  1.0000
  C   C254      1.0  0.23249  0.49483  0.67139  1.0000
  C   C255      1.0  0.27464  0.50520  0.69243  1.0000
  C   C256      1.0  0.21956  0.51283  0.68869  1.0000
  C   C257      1.0  0.26142  0.52296  0.70979  1.0000
  C   C258      1.0  0.23395  0.52672  0.70796  1.0000
  H   H289      1.0  0.28096  0.49929  0.62277  1.0000
  H   H290      1.0  0.27954  0.46521  0.61174  1.0000
  H   H291      1.0  0.24950  0.48268  0.62032  1.0000
  H   H292      1.0  0.31367  0.48657  0.65586  1.0000
  H   H293      1.0  0.31177  0.45230  0.64581  1.0000
  H   H294      1.0  0.30640  0.46053  0.68052  1.0000
  H   H295      1.0  0.23978  0.44413  0.65115  1.0000
  H   H296      1.0  0.27120  0.42872  0.64470  1.0000
  H   H297      1.0  0.26165  0.43702  0.67884  1.0000
  H   H298      1.0  0.22049  0.48501  0.65644  1.0000
  H   H299      1.0  0.35623  0.38297  0.53359  1.0000
  H   H300      1.0  0.23371  0.66552  0.97543  1.0000
  C   C259      1.0  0.03384  0.35923  0.82648  1.0000
  C   C260      1.0  0.07633  0.52813  0.00779  1.0000
  H   H301      1.0  0.46778  0.48847  0.51469  1.0000
  H   H302      1.0  0.34714  0.35265  0.55177  1.0000
  H   H303      1.0  0.02945  0.56078  0.78358  1.0000
  H   H304      1.0  0.05219  0.66756  0.96199  1.0000
  Fe  Fe36      1.0  0.01780  0.49048  0.84900  1.0000
  S   S68       1.0  0.00344  0.53330  0.84926  1.0000
  H   H305      1.0  0.07489  0.34303  0.59237  1.0000
  H   H306      1.0  0.39141  0.41633  0.50914  1.0000
  S   S69       1.0  0.00457  0.48161  0.89149  1.0000
  H   H307      1.0  0.49868  0.44350  0.59550  1.0000
  S   S70       1.0  0.01319  0.46323  0.81285  1.0000
  N   N17       1.0  0.33675  0.35283  0.50956  1.0000
  C   C261      1.0  0.25340  0.67227  0.80508  1.0000
  H   H308      1.0  0.29728  0.34112  0.52309  1.0000
  H   H309      1.0  0.00913  0.59104  0.00503  1.0000
  Fe  Fe37      1.0  0.43867  0.90264  0.08189  1.0000
  C   C262      1.0  0.30029  0.81389  0.06178  1.0000
  S   S71       1.0  0.43048  0.94257  0.10171  1.0000
  Fe  Fe38      1.0  0.41503  0.86068  0.04431  1.0000
  S   S72       1.0  0.45062  0.83333  0.04802  1.0000
  H   H310      1.0  0.43153  0.99097  0.13280  1.0000
  Fe  Fe39      1.0  0.44858  0.84320  0.09215  1.0000
  C   C263      1.0  0.01841  0.79043  0.02755  1.0000
  H   H311      1.0  0.28803  0.83184  0.06219  1.0000
  S   S73       1.0  0.41121  0.86771  0.08887  1.0000
  S   S74       1.0  0.43965  0.89792  0.03692  1.0000
  H   H312      1.0  0.25412  0.74571  0.06814  1.0000
  C   C264      1.0  0.33247  0.76821  0.05913  1.0000
  H   H313      1.0  0.33677  0.83559  0.06847  1.0000
  C   C265      1.0  0.48728  0.79045  0.16114  1.0000
  H   H314      1.0  0.48723  0.85492  0.13872  1.0000
  C   C266      1.0  0.49091  0.88204  0.22880  1.0000
  H   H315      1.0  0.34595  0.75135  0.05732  1.0000
  H   H316      1.0  0.48344  0.92428  0.11672  1.0000
  H   H317      1.0  0.49020  0.92445  0.01768  1.0000
  Fe  Fe40      1.0  0.47499  0.87119  0.04445  1.0000
  C   C267      1.0  0.47884  0.94229  0.12757  1.0000
  C   C268      1.0  0.45494  0.95597  0.12293  1.0000
  C   C269      1.0  0.44990  0.98012  0.13645  1.0000
  C   C270      1.0  0.46831  0.99006  0.15512  1.0000
  S   S75       1.0  0.45261  0.81098  0.12398  1.0000
  C   C271      1.0  0.21069  0.67657  0.01060  1.0000
  C   C272      1.0  0.49887  0.67925  0.38883  1.0000
  S   S76       1.0  0.37604  0.85442  0.02227  1.0000
  C   C273      1.0  0.28871  0.78887  0.05693  1.0000
  N   N18       1.0  0.43187  0.89524  0.18200  1.0000
  C   C274      1.0  0.43258  0.92499  0.18384  1.0000
  C   C275      1.0  0.43711  0.88788  0.15353  1.0000
  C   C276      1.0  0.40441  0.88662  0.18948  1.0000
  C   C277      1.0  0.45171  0.88164  0.19935  1.0000
  C   C278      1.0  0.47201  0.89572  0.21330  1.0000
  C   C279      1.0  0.45182  0.85323  0.20173  1.0000
  C   C280      1.0  0.30453  0.76514  0.05570  1.0000
  C   C281      1.0  0.47059  0.83983  0.21757  1.0000
  C   C282      1.0  0.49020  0.85418  0.23093  1.0000
  H   H318      1.0  0.45210  0.93317  0.17697  1.0000
  H   H319      1.0  0.41750  0.93467  0.17051  1.0000
  H   H320      1.0  0.42862  0.93195  0.20478  1.0000
  H   H321      1.0  0.45768  0.89361  0.14728  1.0000
  C   C283      1.0  0.30351  0.72808  0.02450  1.0000
  H   H322      1.0  0.43504  0.86595  0.14998  1.0000
  H   H323      1.0  0.38907  0.89785  0.17779  1.0000
  H   H324      1.0  0.42310  0.89825  0.13960  1.0000
  H   H325      1.0  0.40035  0.88999  0.21131  1.0000
  H   H326      1.0  0.47402  0.91729  0.21230  1.0000
  H   H327      1.0  0.43796  0.84101  0.19062  1.0000
  H   H328      1.0  0.32276  0.71564  0.07269  1.0000
  H   H329      1.0  0.08668  0.67993  0.02459  1.0000
  H   H330      1.0  0.26742  0.78872  0.05386  1.0000
  H   H331      1.0  0.36523  0.79529  0.06618  1.0000
  H   H332      1.0  0.03739  0.68483  0.07945  1.0000
  S   S77       1.0  0.47566  0.87858  0.08884  1.0000
  N   N19       1.0  0.29310  0.73828  0.05056  1.0000
  H   H333      1.0  0.40084  0.86508  0.18517  1.0000
  H   H334      1.0  0.25604  0.75023  0.03184  1.0000
  C   C284      1.0  0.49680  0.95172  0.14674  1.0000
  H   H335      1.0  0.47655  0.77178  0.15884  1.0000
  C   C285      1.0  0.32772  0.81607  0.06551  1.0000
  C   C286      1.0  0.26347  0.73814  0.04921  1.0000
  H   H336      1.0  0.29143  0.69929  0.06974  1.0000
  C   C287      1.0  0.49151  0.97551  0.16071  1.0000
  H   H337      1.0  0.05780  0.80055  0.01486  1.0000
  C   C288      1.0  0.49336  0.83720  0.14951  1.0000
  C   C289      1.0  0.34376  0.79328  0.06422  1.0000
  C   C290      1.0  0.36588  0.82345  0.00866  1.0000
  C   C291      1.0  0.47959  0.81313  0.14625  1.0000
  H   H338      1.0  0.18628  0.68077  0.04637  1.0000
  H   H339      1.0  0.49973  0.72008  0.37632  1.0000
  C   C292      1.0  0.30088  0.71933  0.07232  1.0000
  H   H340      1.0  0.47772  0.67975  0.39366  1.0000
  H   H341      1.0  0.08480  0.68163  0.09407  1.0000
  H   H342      1.0  0.47064  0.81808  0.21856  1.0000
  H   H343      1.0  0.40367  0.80345  0.01333  1.0000
  H   H344      1.0  0.29506  0.70807  0.01956  1.0000
  H   H345      1.0  0.49667  0.98829  0.09867  1.0000
  H   H346      1.0  0.32561  0.72593  0.02416  1.0000
  H   H347      1.0  0.25550  0.71753  0.04609  1.0000
  H   H348      1.0  0.29473  0.72712  0.09245  1.0000
  H   H349      1.0  0.02361  0.78986  0.04871  1.0000
  Fe  Fe41      1.0  0.24105  0.72244  0.97069  1.0000
  S   S78       1.0  0.27811  0.69861  0.96252  1.0000
  Fe  Fe42      1.0  0.24951  0.75777  0.92146  1.0000
  S   S79       1.0  0.28701  0.73616  0.90924  1.0000
  S   S80       1.0  0.23644  0.79070  0.89336  1.0000
  Fe  Fe43      1.0  0.26409  0.69903  0.91976  1.0000
  H   H350      1.0  0.26947  0.70740  0.86137  1.0000
  Fe  Fe44      1.0  0.29716  0.73838  0.95319  1.0000
  S   S81       1.0  0.33952  0.74615  0.96683  1.0000
  S   S82       1.0  0.22571  0.72037  0.92850  1.0000
  S   S83       1.0  0.26105  0.76259  0.96487  1.0000
  Fe  Fe45      1.0  0.09209  0.81705  0.86384  1.0000
  S   S84       1.0  0.08714  0.77720  0.84407  1.0000
  S   S85       1.0  0.11358  0.81835  0.90339  1.0000
  Fe  Fe46      1.0  0.05870  0.84673  0.82132  1.0000
  S   S86       1.0  0.05040  0.80892  0.79841  1.0000
  S   S87       1.0  0.04520  0.88923  0.81149  1.0000
  Fe  Fe47      1.0  0.04448  0.78993  0.83948  1.0000
  H   H351      1.0  0.19401  0.73966  0.87529  1.0000
  Fe  Fe48      1.0  0.09379  0.79960  0.80539  1.0000
  S   S88       1.0  0.12349  0.78587  0.77401  1.0000
  S   S89       1.0  0.04895  0.82857  0.86177  1.0000
  S   S90       1.0  0.10261  0.83869  0.82569  1.0000
  C   C293      1.0  0.01161  0.88844  0.73700  1.0000
  H   H352      1.0  0.04849  0.84601  0.96515  1.0000
  H   H353      1.0  0.13634  0.71337  0.84031  1.0000
  C   C294      1.0  0.02954  0.89871  0.78109  1.0000
  H   H354      1.0  0.07948  0.83586  0.94958  1.0000
  H   H355      1.0  0.02729  0.81941  0.92864  1.0000
  C   C295      1.0  0.04121  0.74070  0.89208  1.0000
  H   H356      1.0  0.14454  0.74123  0.81867  1.0000
  C   C296      1.0  0.02325  0.83967  0.62142  1.0000
  H   H357      1.0  0.17891  0.82823  0.79292  1.0000
  H   H358      1.0  0.14658  0.83658  0.75766  1.0000
  C   C297      1.0  0.12265  0.75132  0.76708  1.0000
  C   C298      1.0  0.14461  0.73914  0.75432  1.0000
  C   C299      1.0  0.14444  0.71150  0.74889  1.0000
  C   C300      1.0  0.01710  0.84797  0.59532  1.0000
  C   C301      1.0  0.10003  0.70830  0.76829  1.0000
  C   C302      1.0  0.10049  0.73579  0.77438  1.0000
  H   H359      1.0  0.16186  0.75104  0.74878  1.0000
  H   H360      1.0  0.16144  0.70222  0.73903  1.0000
  H   H361      1.0  0.08469  0.68355  0.98882  1.0000
  H   H362      1.0  0.08350  0.74504  0.78429  1.0000
  C   C303      1.0  0.26355  0.69064  0.84914  1.0000
  S   S91       1.0  0.03114  0.71807  0.96999  1.0000
  H   H363      1.0  0.08265  0.69647  0.77355  1.0000
  C   C304      1.0  0.34874  0.77559  0.98412  1.0000
  C   C305      1.0  0.33090  0.79691  0.98766  1.0000
  H   H364      1.0  0.06618  0.76249  0.95927  1.0000
  H   H365      1.0  0.18492  0.86082  0.82990  1.0000
  H   H366      1.0  0.15145  0.70744  0.80835  1.0000
  C   C306      1.0  0.14757  0.81020  0.90022  1.0000
  C   C307      1.0  0.16053  0.79707  0.92147  1.0000
  C   C308      1.0  0.18776  0.79065  0.91931  1.0000
  C   C309      1.0  0.20228  0.79819  0.89627  1.0000
  C   C310      1.0  0.18938  0.81155  0.87512  1.0000
  C   C311      1.0  0.16194  0.81709  0.87687  1.0000
  H   H367      1.0  0.14947  0.79170  0.93954  1.0000
  H   H368      1.0  0.19762  0.78034  0.93570  1.0000
  H   H369      1.0  0.20055  0.81732  0.85725  1.0000
  H   H370      1.0  0.15201  0.82723  0.86045  1.0000
  H   H371      1.0  0.07460  0.83110  0.98487  1.0000
  H   H372      1.0  0.02751  0.94041  0.79222  1.0000
  N   N20       1.0  0.05272  0.80342  0.95985  1.0000
  H   H373      1.0  0.24272  0.78736  0.81263  1.0000
  N   N21       1.0  0.33438  0.80661  0.90153  1.0000
  C   C312      1.0  0.30885  0.80380  0.91665  1.0000
  C   C313      1.0  0.32981  0.82393  0.87758  1.0000
  C   C314      1.0  0.34201  0.77953  0.89162  1.0000
  C   C315      1.0  0.35474  0.81897  0.91901  1.0000
  C   C316      1.0  0.37897  0.80581  0.92599  1.0000
  C   C317      1.0  0.35065  0.84512  0.92956  1.0000
  C   C318      1.0  0.39796  0.81839  0.94206  1.0000
  C   C319      1.0  0.36965  0.85735  0.94587  1.0000
  C   C320      1.0  0.39331  0.84407  0.95197  1.0000
  H   H374      1.0  0.30113  0.82317  0.92447  1.0000
  H   H375      1.0  0.29282  0.79547  0.90377  1.0000
  H   H376      1.0  0.31121  0.79000  0.93414  1.0000
  H   H377      1.0  0.32118  0.84373  0.88309  1.0000
  H   H378      1.0  0.31543  0.81464  0.86340  1.0000
  H   H379      1.0  0.34882  0.82761  0.86634  1.0000
  H   H380      1.0  0.36084  0.78012  0.87954  1.0000
  H   H381      1.0  0.34450  0.76503  0.90865  1.0000
  H   H382      1.0  0.32640  0.77087  0.87840  1.0000
  H   H383      1.0  0.38352  0.78555  0.91987  1.0000
  H   H384      1.0  0.33251  0.85617  0.92568  1.0000
  H   H385      1.0  0.41599  0.80779  0.94771  1.0000
  H   H386      1.0  0.11129  0.92239  0.75266  1.0000
  H   H387      1.0  0.40759  0.85331  0.96535  1.0000
  N   N22       1.0  0.17837  0.72341  0.83828  1.0000
  C   C321      1.0  0.01553  0.74846  0.88431  1.0000
  H   H388      1.0  0.05922  0.80805  0.91694  1.0000
  C   C322      1.0  0.02439  0.72774  0.93649  1.0000
  C   C323      1.0  0.19729  0.73614  0.81898  1.0000
  C   C324      1.0  0.21295  0.75889  0.82560  1.0000
  C   C325      1.0  0.20106  0.72531  0.79281  1.0000
  C   C326      1.0  0.23081  0.77022  0.80694  1.0000
  C   C327      1.0  0.21884  0.73686  0.77426  1.0000
  C   C328      1.0  0.23373  0.75924  0.78130  1.0000
  H   H389      1.0  0.03464  0.78409  0.92588  1.0000
  H   H390      1.0  0.31053  0.79519  0.98104  1.0000
  H   H391      1.0  0.16766  0.75929  0.85999  1.0000
  H   H392      1.0  0.26553  0.71309  0.81177  1.0000
  C   C329      1.0  0.04288  0.80380  0.93170  1.0000
  H   H393      1.0  0.08495  0.78362  0.98100  1.0000
  H   H394      1.0  0.02192  0.84975  0.66352  1.0000
  C   C330      1.0  0.26134  0.69385  0.82108  1.0000
  H   H395      1.0  0.13263  0.85794  0.72035  1.0000
  H   H396      1.0  0.20806  0.69710  0.85487  1.0000
  H   H397      1.0  0.19076  0.70738  0.78658  1.0000
  H   H398      1.0  0.10981  0.88283  0.70900  1.0000
  H   H399      1.0  0.22171  0.72773  0.75462  1.0000
  H   H400      1.0  0.24791  0.76769  0.76700  1.0000
  H   H401      1.0  0.02191  0.83502  0.57843  1.0000
  H   H402      1.0  0.02831  0.85902  0.76430  1.0000
  H   H403      1.0  0.21208  0.76809  0.84518  1.0000
  H   H404      1.0  0.06560  0.72467  0.92393  1.0000
  H   H405      1.0  0.38878  0.76146  0.99125  1.0000
  C   C331      1.0  0.06425  0.83024  0.96520  1.0000
  C   C332      1.0  0.02369  0.88000  0.76111  1.0000
  C   C333      1.0  0.15161  0.72124  0.82588  1.0000
  H   H406      1.0  0.15763  0.90215  0.83136  1.0000
  C   C334      1.0  0.37489  0.77793  0.99379  1.0000
  H   H407      1.0  0.12469  0.91141  0.79713  1.0000
  H   H408      1.0  0.36578  0.87692  0.95456  1.0000
  H   H409      1.0  0.14109  0.89281  0.72343  1.0000
  C   C335      1.0  0.17500  0.73852  0.86387  1.0000
  C   C336      1.0  0.12200  0.69609  0.75557  1.0000
  S   S92       1.0  0.21502  0.71148  0.00629  1.0000
  H   H410      1.0  0.08970  0.78597  0.94537  1.0000
  H   H411      1.0  0.05772  0.74269  0.87811  1.0000
  C   C337      1.0  0.04561  0.73027  0.91803  1.0000
  C   C338      1.0  0.02303  0.92583  0.77683  1.0000
  N   N23       1.0  0.11185  0.87907  0.75235  1.0000
  C   C339      1.0  0.09171  0.85738  0.75447  1.0000
  C   C340      1.0  0.09743  0.90507  0.75465  1.0000
  C   C341      1.0  0.12442  0.87813  0.72514  1.0000
  C   C342      1.0  0.13244  0.87505  0.77328  1.0000
  C   C343      1.0  0.14879  0.85174  0.77297  1.0000
  C   C344      1.0  0.13639  0.89336  0.79481  1.0000
  C   C345      1.0  0.16750  0.84676  0.79314  1.0000
  C   C346      1.0  0.15535  0.88827  0.81478  1.0000
  C   C347      1.0  0.17078  0.86499  0.81400  1.0000
  H   H412      1.0  0.08133  0.85790  0.77439  1.0000
  H   H413      1.0  0.07610  0.85932  0.73877  1.0000
  H   H414      1.0  0.10066  0.83703  0.75235  1.0000
  H   H415      1.0  0.08651  0.90664  0.77425  1.0000
  H   H416      1.0  0.08192  0.90740  0.73884  1.0000
  H   H417      1.0  0.19053  0.68327  0.82705  1.0000
  C   C348      1.0  0.18814  0.69614  0.84518  1.0000
  H   H418      1.0  0.16021  0.72886  0.87769  1.0000
  H   H419      1.0  0.17428  0.68558  0.85928  1.0000
  C   C349      1.0  0.03166  0.79711  0.98011  1.0000
  C   C350      1.0  0.07431  0.78307  0.96150  1.0000
  S   S93       1.0  0.01006  0.76397  0.85283  1.0000
  C   C351      1.0  0.01061  0.93423  0.75288  1.0000
  C   C352      1.0  0.38339  0.80169  0.00628  1.0000
  C   C353      1.0  0.03781  0.79657  0.00800  1.0000
  C   C354      1.0  0.33960  0.82089  0.99943  1.0000
  S   S94       1.0  0.24983  0.67637  0.77014  1.0000
  H   H420      1.0  0.02265  0.93744  0.60972  1.0000
  H   H421      1.0  0.03275  0.82038  0.62478  1.0000
  C   C355      1.0  0.01717  0.85620  0.64318  1.0000
  H   H422      1.0  0.00573  0.95517  0.74983  1.0000
  C   C356      1.0  0.00498  0.91555  0.73282  1.0000
  H   H423      1.0  0.00718  0.87385  0.72161  1.0000
  C   C357      1.0  0.00478  0.87282  0.59085  1.0000
  H   H424      1.0  0.05511  0.67613  0.00857  1.0000
  H   H425      1.0  0.32589  0.83757  0.00148  1.0000
  C   C358      1.0  0.00491  0.79088  0.97302  1.0000
  H   H426      1.0  0.29838  0.74205  0.00776  1.0000
  C   C359      1.0  0.00492  0.88106  0.63894  1.0000
  H   H427      1.0  0.00526  0.93659  0.64158  1.0000
  S   S95       1.0  0.53124  0.31190  0.44606  1.0000
  Fe  Fe49      1.0  0.55507  0.06833  0.21988  1.0000
  S   S96       1.0  0.53832  0.10523  0.19974  1.0000
  H   H428      1.0  0.70896  0.03110  0.34616  1.0000
  Fe  Fe50      1.0  0.53834  0.07976  0.16238  1.0000
  S   S97       1.0  0.54915  0.09241  0.12001  1.0000
  H   H429      1.0  0.78242  0.09191  0.41888  1.0000
  H   H430      1.0  0.60769  0.05957  0.04774  1.0000
  Fe  Fe51      1.0  0.82174  0.04603  0.45931  1.0000
  S   S98       1.0  0.85727  0.03194  0.48273  1.0000
  C   C360      1.0  0.54930  0.08345  0.30784  1.0000
  C   C361      1.0  0.55845  0.12809  0.32279  1.0000
  H   H431      1.0  0.54224  0.14177  0.27277  1.0000
  N   N24       1.0  0.74030  0.09188  0.43002  1.0000
  C   C362      1.0  0.76360  0.00957  0.42576  1.0000
  H   H432      1.0  0.69650  0.05632  0.42706  1.0000
  H   H433      1.0  0.75008  0.12627  0.40515  1.0000
  H   H434      1.0  0.70369  0.09265  0.45347  1.0000
  S   S99       1.0  0.83182  0.08962  0.46415  1.0000
  H   H435      1.0  0.74369  0.13383  0.43983  1.0000
  H   H436      1.0  0.74855  0.06041  0.34168  1.0000
  C   C363      1.0  0.70831  0.05846  0.40888  1.0000
  H   H437      1.0  0.73291  0.09933  0.47243  1.0000
  N   N25       1.0  0.54161  0.11208  0.30438  1.0000
  H   H438      1.0  0.76271  0.08818  0.37923  1.0000
  S   S100      1.0  0.55877  0.04487  0.18170  1.0000
  H   H439      1.0  0.77203  0.06461  0.43990  1.0000
  C   C364      1.0  0.55369  0.01180  0.06972  1.0000
  H   H440      1.0  0.76494  0.01634  0.44633  1.0000
  H   H441      1.0  0.63060  0.04785  0.28367  1.0000
  C   C365      1.0  0.70031  0.04310  0.38687  1.0000
  H   H442      1.0  0.55737  0.02615  0.12076  1.0000
  C   C366      1.0  0.73710  0.06027  0.36035  1.0000
  H   H443      1.0  0.72662  0.06571  0.46204  1.0000
  C   C367      1.0  0.72509  0.08707  0.45549  1.0000
  H   H444      1.0  0.68343  0.02957  0.38878  1.0000
  S   S101      1.0  0.58809  0.06848  0.25037  1.0000
  S   S102      1.0  0.51530  0.05123  0.23165  1.0000
  C   C368      1.0  0.73749  0.12065  0.42289  1.0000
  C   C369      1.0  0.71472  0.04389  0.36274  1.0000
  H   H445      1.0  0.71643  0.12565  0.41791  1.0000
  C   C370      1.0  0.62588  0.05480  0.08662  1.0000
  C   C371      1.0  0.60538  0.06246  0.06923  1.0000
  C   C372      1.0  0.58218  0.07466  0.07960  1.0000
  C   C373      1.0  0.57899  0.07836  0.10744  1.0000
  C   C374      1.0  0.59934  0.07035  0.12486  1.0000
  C   C375      1.0  0.62289  0.05892  0.11442  1.0000
  C   C376      1.0  0.93870  0.13168  0.50539  1.0000
  H   H446      1.0  0.56658  0.08104  0.06606  1.0000
  H   H447      1.0  0.59725  0.07365  0.14630  1.0000
  H   H448      1.0  0.56978  0.11862  0.27179  1.0000
  C   C377      1.0  0.76878  0.08628  0.43575  1.0000
  H   H449      1.0  0.58012  0.12412  0.31933  1.0000
  H   H450      1.0  0.50583  0.14200  0.24028  1.0000
  C   C378      1.0  0.58749  0.01397  0.24386  1.0000
  H   H451      1.0  0.51441  0.28380  0.39855  1.0000
  Fe  Fe52      1.0  0.64870  0.01453  0.03779  1.0000
  C   C379      1.0  0.54805  0.12052  0.27638  1.0000
  H   H452      1.0  0.55569  0.15004  0.31945  1.0000
  C   C380      1.0  0.62111  0.03110  0.27387  1.0000
  H   H453      1.0  0.53756  0.10804  0.26130  1.0000
  H   H454      1.0  0.95373  0.12258  0.49251  1.0000
  Fe  Fe53      1.0  0.80626  0.08713  0.50147  1.0000
  C   C381      1.0  0.59966  0.03569  0.25645  1.0000
  S   S103      1.0  0.81480  0.02915  0.41772  1.0000
  H   H455      1.0  0.55393  0.12322  0.34429  1.0000
  C   C382      1.0  0.78490  0.01355  0.40774  1.0000
  C   C383      1.0  0.74518  0.07588  0.38213  1.0000
  S   S104      1.0  0.90635  0.09142  0.48857  1.0000
  C   C384      1.0  0.91298  0.12087  0.50659  1.0000
  C   C385      1.0  0.73123  0.07523  0.40722  1.0000
  H   H456      1.0  0.63881  0.05324  0.12790  1.0000
  C   C386      1.0  0.51259  0.11556  0.30932  1.0000
  H   H457      1.0  0.57076  0.01717  0.23069  1.0000
  H   H458      1.0  0.79907  0.00773  0.36698  1.0000
  H   H459      1.0  0.57132  0.08051  0.30622  1.0000
  C   C387      1.0  0.53687  0.02096  0.11416  1.0000
  H   H460      1.0  0.54253  0.07551  0.32777  1.0000
  H   H461      1.0  0.86984  0.23171  0.50323  1.0000
  S   S105      1.0  0.65543  0.04038  0.07392  1.0000
  H   H462      1.0  0.77571  0.09766  0.45361  1.0000
  Fe  Fe54      1.0  0.53153  0.33869  0.48257  1.0000
  Fe  Fe55      1.0  0.86458  0.07545  0.49107  1.0000
  H   H463      1.0  0.51438  0.14984  0.33708  1.0000
  S   S106      1.0  0.79358  0.04454  0.49474  1.0000
  Fe  Fe56      1.0  0.51764  0.03031  0.19171  1.0000
  H   H464      1.0  0.50773  0.18096  0.27143  1.0000
  H   H465      1.0  0.69459  0.01233  0.18403  1.0000
  H   H466      1.0  0.54096  0.07038  0.29190  1.0000
  H   H467      1.0  0.54650  0.03192  0.06315  1.0000
  H   H468      1.0  0.52509  0.01380  0.13192  1.0000
  H   H469      1.0  0.57492  0.01392  0.07580  1.0000
  H   H470      1.0  0.52764  0.04025  0.10760  1.0000
  H   H471      1.0  0.73377  0.04389  0.86605  1.0000
  H   H472      1.0  0.88544  0.16367  0.55228  1.0000
  S   S107      1.0  0.94492  0.30229  0.76321  1.0000
  H   H473      1.0  0.57651  0.06019  0.93609  1.0000
  S   S108      1.0  0.88709  0.29120  0.73360  1.0000
  C   C388      1.0  0.92157  0.11414  0.61646  1.0000
  Fe  Fe57      1.0  0.90774  0.27826  0.77126  1.0000
  S   S109      1.0  0.90756  0.23395  0.78053  1.0000
  Fe  Fe58      1.0  0.92242  0.31806  0.72746  1.0000
  S   S110      1.0  0.93713  0.32112  0.68457  1.0000
  S   S111      1.0  0.88870  0.30978  0.79710  1.0000
  Fe  Fe59      1.0  0.75877  0.10354  0.84042  1.0000
  S   S112      1.0  0.77261  0.07521  0.80748  1.0000
  S   S113      1.0  0.73428  0.10110  0.87941  1.0000
  Fe  Fe60      1.0  0.78682  0.15159  0.81456  1.0000
  S   S114      1.0  0.80294  0.12812  0.77996  1.0000
  S   S115      1.0  0.79278  0.19597  0.81852  1.0000
  Fe  Fe61      1.0  0.76258  0.10918  0.77894  1.0000
  S   S116      1.0  0.74809  0.10531  0.73626  1.0000
  Fe  Fe62      1.0  0.81214  0.09639  0.81048  1.0000
  S   S117      1.0  0.85409  0.08025  0.80893  1.0000
  S   S118      1.0  0.74539  0.13558  0.81121  1.0000
  S   S119      1.0  0.79948  0.12166  0.84553  1.0000
  Fe  Fe63      1.0  0.76303  0.22335  0.61621  1.0000
  S   S120      1.0  0.71991  0.21123  0.61691  1.0000
  S   S121      1.0  0.79806  0.19717  0.60508  1.0000
  Fe  Fe64      1.0  0.75164  0.27874  0.63777  1.0000
  S   S122      1.0  0.70750  0.27179  0.64091  1.0000
  S   S123      1.0  0.76887  0.31930  0.64630  1.0000
  Fe  Fe65      1.0  0.71890  0.23124  0.65716  1.0000
  S   S124      1.0  0.69670  0.21323  0.69242  1.0000
  Fe  Fe66      1.0  0.71180  0.25259  0.60034  1.0000
  S   S125      1.0  0.68286  0.25709  0.56582  1.0000
  S   S126      1.0  0.76269  0.24014  0.65809  1.0000
  S   S127      1.0  0.75525  0.26275  0.59576  1.0000
  S   S128      1.0  0.52308  0.32308  0.52446  1.0000
  C   C389      1.0  0.65790  0.28224  0.56595  1.0000
  C   C390      1.0  0.63927  0.28311  0.54495  1.0000
  C   C391      1.0  0.61790  0.30153  0.54554  1.0000
  C   C392      1.0  0.61493  0.31907  0.56727  1.0000
  C   C393      1.0  0.63377  0.31845  0.58806  1.0000
  C   C394      1.0  0.65528  0.30028  0.58732  1.0000
  H   H474      1.0  0.62332  0.19208  0.59400  1.0000
  C   C395      1.0  0.77409  0.21380  0.89269  1.0000
  H   H475      1.0  0.66958  0.30001  0.60348  1.0000
  C   C396      1.0  0.73387  0.13534  0.72411  1.0000
  C   C397      1.0  0.71680  0.15054  0.74050  1.0000
  C   C398      1.0  0.70490  0.17401  0.73036  1.0000
  C   C399      1.0  0.71084  0.18299  0.70416  1.0000
  C   C400      1.0  0.72832  0.16809  0.68789  1.0000
  C   C401      1.0  0.73937  0.14400  0.69767  1.0000
  H   H476      1.0  0.71215  0.14379  0.76076  1.0000
  H   H477      1.0  0.69132  0.18538  0.74301  1.0000
  H   H478      1.0  0.73299  0.17483  0.66762  1.0000
  H   H479      1.0  0.75231  0.13220  0.68479  1.0000
  C   C402      1.0  0.87571  0.22324  0.79120  1.0000
  C   C403      1.0  0.85514  0.24185  0.79513  1.0000
  C   C404      1.0  0.82994  0.23335  0.80416  1.0000
  C   C405      1.0  0.82482  0.20605  0.80815  1.0000
  C   C406      1.0  0.84523  0.18728  0.80396  1.0000
  C   C407      1.0  0.87077  0.19592  0.79586  1.0000
  H   H480      1.0  0.85861  0.26288  0.79139  1.0000
  H   H481      1.0  0.81437  0.24798  0.80775  1.0000
  H   H482      1.0  0.84155  0.16619  0.80762  1.0000
  H   H483      1.0  0.88668  0.18144  0.79335  1.0000
  H   H484      1.0  0.64783  0.18779  0.65088  1.0000
  C   C408      1.0  0.81298  0.30579  0.71342  1.0000
  C   C409      1.0  0.79903  0.30163  0.68931  1.0000
  C   C410      1.0  0.78554  0.32303  0.67702  1.0000
  C   C411      1.0  0.73330  0.27909  0.72079  1.0000
  H   H485      1.0  0.96728  0.14196  0.69562  1.0000
  H   H486      1.0  0.82370  0.28945  0.72281  1.0000
  H   H487      1.0  0.79912  0.28208  0.68005  1.0000
  H   H488      1.0  0.66512  0.06360  0.88009  1.0000
  C   C412      1.0  0.79099  0.17501  0.57875  1.0000
  C   C413      1.0  0.76654  0.17605  0.56544  1.0000
  C   C414      1.0  0.76157  0.15856  0.54398  1.0000
  C   C415      1.0  0.80565  0.13942  0.54880  1.0000
  C   C416      1.0  0.81045  0.15653  0.57052  1.0000
  H   H489      1.0  0.75155  0.19050  0.57142  1.0000
  H   H490      1.0  0.84909  0.19507  0.56416  1.0000
  H   H491      1.0  0.82932  0.15552  0.58084  1.0000
  H   H492      1.0  0.87218  0.26507  0.57154  1.0000
  C   C417      1.0  0.97869  0.28668  0.69460  1.0000
  C   C418      1.0  0.96009  0.29598  0.67590  1.0000
  C   C419      1.0  0.96008  0.28548  0.64977  1.0000
  C   C420      1.0  0.59259  0.03798  0.87164  1.0000
  C   C421      1.0  0.58849  0.04256  0.94270  1.0000
  H   H493      1.0  0.94569  0.29260  0.63527  1.0000
  S   S129      1.0  0.99210  0.06769  0.69419  1.0000
  H   H494      1.0  0.85002  0.22271  0.58674  1.0000
  C   C422      1.0  0.88712  0.05450  0.77335  1.0000
  C   C423      1.0  0.86080  0.05780  0.78263  1.0000
  C   C424      1.0  0.84031  0.04283  0.77116  1.0000
  H   H495      1.0  0.53554  0.22932  0.64518  1.0000
  H   H496      1.0  0.90299  0.06609  0.78223  1.0000
  H   H497      1.0  0.53203  0.26662  0.61222  1.0000
  H   H498      1.0  0.92397  0.21969  0.72385  1.0000
  H   H499      1.0  0.91359  0.18414  0.75051  1.0000
  C   C425      1.0  0.82764  0.19987  0.87818  1.0000
  C   C426      1.0  0.96622  0.10342  0.57765  1.0000
  H   H500      1.0  0.96488  0.16260  0.51916  1.0000
  C   C427      1.0  0.69725  0.05345  0.93500  1.0000
  C   C428      1.0  0.70824  0.07561  0.92112  1.0000
  C   C429      1.0  0.72153  0.07234  0.89621  1.0000
  C   C430      1.0  0.72370  0.04664  0.88524  1.0000
  C   C431      1.0  0.91498  0.11889  0.73218  1.0000
  H   H501      1.0  0.68712  0.05627  0.95415  1.0000
  H   H502      1.0  0.70642  0.09544  0.92972  1.0000
  H   H503      1.0  0.75299  0.21735  0.89897  1.0000
  S   S130      1.0  0.93317  0.02892  0.66771  1.0000
  C   C432      1.0  0.87154  0.21893  0.52161  1.0000
  N   N26       1.0  0.95789  0.19303  0.71862  1.0000
  H   H504      1.0  0.94343  0.10084  0.70500  1.0000
  C   C433      1.0  0.77871  0.25636  0.53006  1.0000
  H   H505      1.0  0.63915  0.24961  0.65535  1.0000
  C   C434      1.0  0.94293  0.16761  0.72226  1.0000
  C   C435      1.0  0.63748  0.20715  0.60203  1.0000
  H   H506      1.0  0.91328  0.03404  0.74539  1.0000
  C   C436      1.0  0.59809  0.25248  0.60500  1.0000
  H   H507      1.0  0.78207  0.06861  0.70014  1.0000
  H   H508      1.0  0.64113  0.26923  0.52833  1.0000
  H   H509      1.0  0.82000  0.04518  0.77840  1.0000
  H   H510      1.0  0.82107  0.12595  0.54207  1.0000
  H   H511      1.0  0.97307  0.11342  0.59628  1.0000
  C   C437      1.0  0.83242  0.24131  0.54018  1.0000
  C   C438      1.0  0.82349  0.26820  0.54365  1.0000
  C   C439      1.0  0.96907  0.20139  0.74486  1.0000
  H   H512      1.0  0.61485  0.25971  0.59328  1.0000
  C   C440      1.0  0.55312  0.23572  0.63399  1.0000
  C   C441      1.0  0.87840  0.25505  0.55247  1.0000
  H   H513      1.0  0.64293  0.06808  0.83604  1.0000
  C   C442      1.0  0.82865  0.26668  0.62757  1.0000
  C   C443      1.0  0.79700  0.27548  0.53856  1.0000
  S   S131      1.0  0.93436  0.19370  0.55779  1.0000
  C   C444      1.0  0.95049  0.14326  0.70936  1.0000
  C   C445      1.0  0.89359  0.13285  0.52310  1.0000
  H   H514      1.0  0.84040  0.22719  0.64042  1.0000
  H   H515      1.0  0.62139  0.20409  0.66856  1.0000
  H   H516      1.0  0.89097  0.29097  0.66586  1.0000
  C   C446      1.0  0.85652  0.30424  0.64254  1.0000
  Fe  Fe67      1.0  0.83000  0.03394  0.51871  1.0000
  H   H517      1.0  0.86163  0.19948  0.51745  1.0000
  C   C447      1.0  0.93977  0.21451  0.70881  1.0000
  H   H518      1.0  0.71287  0.30604  0.69375  1.0000
  C   C448      1.0  0.57351  0.26510  0.60099  1.0000
  H   H519      1.0  0.98427  0.09361  0.56881  1.0000
  C   C449      1.0  0.87473  0.12564  0.61342  1.0000
  H   H520      1.0  0.99142  0.21030  0.69700  1.0000
  H   H521      1.0  0.72636  0.26205  0.70952  1.0000
  H   H522      1.0  0.85385  0.10878  0.57994  1.0000
  C   C450      1.0  0.74963  0.32553  0.74718  1.0000
  H   H523      1.0  0.81997  0.30715  0.61840  1.0000
  C   C451      1.0  0.98051  0.19097  0.69908  1.0000
  H   H524      1.0  0.90477  0.10018  0.73653  1.0000
  C   C452      1.0  0.84515  0.24842  0.64072  1.0000
  H   H525      1.0  0.80527  0.06124  0.72640  1.0000
  C   C453      1.0  0.78110  0.14015  0.53566  1.0000
  C   C454      1.0  0.64668  0.23913  0.63701  1.0000
  H   H526      1.0  0.89306  0.21401  0.52416  1.0000
  C   C455      1.0  0.69930  0.02778  0.92396  1.0000
  H   H527      1.0  0.74258  0.15935  0.53379  1.0000
  C   C456      1.0  0.60105  0.23111  0.62378  1.0000
  C   C457      1.0  0.62749  0.19660  0.64829  1.0000
  H   H528      1.0  0.66633  0.23009  0.64211  1.0000
  N   N27       1.0  0.82216  0.08204  0.69199  1.0000
  C   C458      1.0  0.84986  0.07280  0.69740  1.0000
  C   C459      1.0  0.81842  0.10805  0.70610  1.0000
  C   C460      1.0  0.80314  0.06256  0.70408  1.0000
  C   C461      1.0  0.81742  0.08376  0.66256  1.0000
  C   C462      1.0  0.80474  0.10623  0.65025  1.0000
  C   C463      1.0  0.82419  0.06194  0.64543  1.0000
  C   C464      1.0  0.79961  0.10681  0.62257  1.0000
  C   C465      1.0  0.81917  0.06284  0.61771  1.0000
  C   C466      1.0  0.80682  0.08520  0.60633  1.0000
  H   H529      1.0  0.86474  0.08515  0.68610  1.0000
  H   H530      1.0  0.85475  0.07396  0.71924  1.0000
  H   H531      1.0  0.85318  0.05142  0.69199  1.0000
  H   H532      1.0  0.79722  0.11483  0.70579  1.0000
  H   H533      1.0  0.83130  0.12400  0.69717  1.0000
  H   H534      1.0  0.82339  0.10642  0.72790  1.0000
  S   S132      1.0  0.99130  0.17709  0.60541  1.0000
  H   H535      1.0  0.88997  0.14204  0.75881  1.0000
  H   H536      1.0  0.80604  0.04200  0.69594  1.0000
  H   H537      1.0  0.79818  0.12350  0.66160  1.0000
  H   H538      1.0  0.83301  0.04376  0.65338  1.0000
  H   H539      1.0  0.78959  0.12402  0.61371  1.0000
  N   N28       1.0  0.86306  0.33321  0.64380  1.0000
  C   C467      1.0  0.71256  0.02449  0.89905  1.0000
  N   N29       1.0  0.75922  0.25009  0.75408  1.0000
  C   C468      1.0  0.78847  0.24766  0.75010  1.0000
  C   C469      1.0  0.75284  0.24794  0.78333  1.0000
  C   C470      1.0  0.74659  0.22687  0.74065  1.0000
  C   C471      1.0  0.75010  0.27640  0.74362  1.0000
  H   H540      1.0  0.77214  0.30015  0.77289  1.0000
  C   C472      1.0  0.72511  0.30435  0.71159  1.0000
  H   H541      1.0  0.97360  0.18572  0.67850  1.0000
  C   C473      1.0  0.90674  0.14247  0.74475  1.0000
  H   H542      1.0  0.57791  0.20701  0.65297  1.0000
  H   H543      1.0  0.79960  0.26373  0.76068  1.0000
  H   H544      1.0  0.79612  0.22811  0.75790  1.0000
  H   H545      1.0  0.79392  0.24911  0.72832  1.0000
  H   H546      1.0  0.76526  0.26146  0.79573  1.0000
  H   H547      1.0  0.75651  0.22736  0.79122  1.0000
  H   H548      1.0  0.73146  0.25274  0.78735  1.0000
  H   H549      1.0  0.75320  0.20735  0.74947  1.0000
  H   H550      1.0  0.72446  0.22764  0.74277  1.0000
  H   H551      1.0  0.75188  0.22596  0.71883  1.0000
  C   C474      1.0  0.60627  0.04980  0.84988  1.0000
  Fe  Fe68      1.0  0.87071  0.32455  0.75867  1.0000
  C   C475      1.0  0.78679  0.22986  0.52664  1.0000
  H   H552      1.0  0.81822  0.20137  0.52940  1.0000
  H   H553      1.0  0.65733  0.19732  0.60438  1.0000
  C   C476      1.0  0.89507  0.09653  0.58003  1.0000
  H   H554      1.0  0.95073  0.23357  0.70469  1.0000
  H   H555      1.0  0.76731  0.16812  0.86484  1.0000
  C   C477      1.0  0.83410  0.29418  0.62840  1.0000
  H   H556      1.0  0.89921  0.24769  0.55578  1.0000
  H   H557      1.0  0.57192  0.28156  0.58661  1.0000
  H   H558      1.0  0.78637  0.22960  0.90231  1.0000
  C   C478      1.0  0.93672  0.11932  0.71443  1.0000
  H   H559      1.0  0.81214  0.14022  0.90883  1.0000
  H   H560      1.0  0.95880  0.07399  0.62260  1.0000
  C   C479      1.0  0.87257  0.02080  0.74168  1.0000
  H   H561      1.0  0.86558  0.20816  0.85900  1.0000
  C   C480      1.0  0.63232  0.05900  0.85293  1.0000
  Fe  Fe69      1.0  0.97846  0.19632  0.56676  1.0000
  H   H562      1.0  0.79455  0.19703  0.94063  1.0000
  C   C481      1.0  0.82331  0.15578  0.89850  1.0000
  H   H563      1.0  0.85734  0.13620  0.62111  1.0000
  H   H564      1.0  0.88040  0.24335  0.66459  1.0000
  H   H565      1.0  0.57854  0.03383  0.96096  1.0000
  C   C482      1.0  0.86002  0.21374  0.56879  1.0000
  C   C483      1.0  0.86752  0.25753  0.65434  1.0000
  H   H566      1.0  0.59667  0.05182  0.83046  1.0000
  C   C484      1.0  0.90023  0.15515  0.53889  1.0000
  H   H567      1.0  0.82036  0.21931  0.87196  1.0000
  C   C485      1.0  0.84626  0.02406  0.75096  1.0000
  H   H568      1.0  0.83647  0.28394  0.55048  1.0000
  H   H569      1.0  0.64034  0.22275  0.58613  1.0000
  H   H570      1.0  0.97905  0.29505  0.71466  1.0000
  C   C486      1.0  0.75831  0.30045  0.75627  1.0000
  C   C487      1.0  0.87329  0.28495  0.65512  1.0000
  C   C488      1.0  0.86469  0.16862  0.87641  1.0000
  H   H571      1.0  0.60813  0.05029  0.94934  1.0000
  H   H572      1.0  0.77483  0.21676  0.87039  1.0000
  C   C489      1.0  0.89296  0.03631  0.75260  1.0000
  C   C490      1.0  0.55105  0.25673  0.61544  1.0000
  Fe  Fe70      1.0  0.97268  0.02749  0.68844  1.0000
  C   C491      1.0  0.57771  0.22302  0.63824  1.0000
  C   C492      1.0  0.81141  0.18093  0.89230  1.0000
  N   N30       1.0  0.78335  0.18647  0.90031  1.0000
  S   S133      1.0  0.83998  0.07627  0.52894  1.0000
  H   H573      1.0  0.61416  0.17987  0.64235  1.0000
  H   H574      1.0  0.94008  0.11623  0.62730  1.0000
  C   C493      1.0  0.87275  0.11013  0.59025  1.0000
  H   H575      1.0  0.95985  0.11945  0.56337  1.0000
  H   H576      1.0  0.88058  0.20766  0.57463  1.0000
  C   C494      1.0  0.84948  0.14973  0.89049  1.0000
  H   H577      1.0  0.98076  0.22032  0.74293  1.0000
  H   H578      1.0  0.92448  0.05331  0.55992  1.0000
  H   H579      1.0  0.79039  0.29598  0.54163  1.0000
  H   H580      1.0  0.88476  0.16370  0.86970  1.0000
  H   H581      1.0  0.65073  0.25459  0.62128  1.0000
  C   C495      1.0  0.78032  0.18371  0.93000  1.0000
  H   H582      1.0  0.75974  0.18891  0.93692  1.0000
  C   C496      1.0  0.76536  0.16697  0.88720  1.0000
  C   C497      1.0  0.85386  0.19368  0.87047  1.0000
  C   C498      1.0  0.92612  0.16580  0.53787  1.0000
  H   H583      1.0  0.89213  0.08509  0.56186  1.0000
  H   H584      1.0  0.92985  0.20850  0.68982  1.0000
  N   N31       1.0  0.62755  0.21854  0.62786  1.0000
  H   H585      1.0  0.80256  0.08567  0.58491  1.0000
  H   H586      1.0  0.75806  0.26196  0.52664  1.0000
  H   H587      1.0  0.60347  0.30179  0.52944  1.0000
  C   C499      1.0  0.94517  0.15418  0.52079  1.0000
  H   H588      1.0  0.74399  0.17058  0.89239  1.0000
  C   C500      1.0  0.89911  0.12763  0.62652  1.0000
  N   N32       1.0  0.86017  0.23267  0.54566  1.0000
  H   H589      1.0  0.93681  0.04970  0.60819  1.0000
  N   N33       1.0  0.94434  0.08396  0.58279  1.0000
  H   H590      1.0  0.64200  0.04318  0.91843  1.0000
  H   H591      1.0  0.97067  0.05245  0.59647  1.0000
  H   H592      1.0  0.95847  0.05854  0.55041  1.0000
  C   C501      1.0  0.92029  0.09825  0.59280  1.0000
  H   H593      1.0  0.90071  0.13981  0.64446  1.0000
  H   H594      1.0  0.76959  0.14589  0.89326  1.0000
  H   H595      1.0  0.78399  0.16282  0.93705  1.0000
  C   C502      1.0  0.94002  0.06903  0.55737  1.0000
  C   C503      1.0  0.95303  0.06426  0.60343  1.0000
  H   H596      1.0  0.87367  0.12467  0.52408  1.0000
  H   H597      1.0  0.93407  0.08270  0.54069  1.0000
  H   H598      1.0  0.81117  0.25945  0.61714  1.0000
  C   C504      1.0  0.92043  0.16648  0.73989  1.0000
  C   C505      1.0  0.97854  0.26560  0.64239  1.0000
  C   C506      1.0  0.60483  0.03502  0.89725  1.0000
  H   H599      1.0  0.82451  0.04591  0.60499  1.0000
  H   H600      1.0  0.97814  0.25735  0.62235  1.0000
  C   C507      1.0  0.64480  0.05648  0.87776  1.0000
  C   C508      1.0  0.63134  0.04473  0.89962  1.0000
  S   S134      1.0  0.63156  0.02616  0.99760  1.0000
  H   H601      1.0  0.95326  0.20538  0.76024  1.0000
  H   H602      1.0  0.83045  0.01205  0.74256  1.0000
  H   H603      1.0  0.85781  0.13006  0.89466  1.0000
  H   H604      1.0  0.99564  0.17599  0.70568  1.0000
  H   H605      1.0  0.63158  0.33194  0.60496  1.0000
  C   C509      1.0  0.81318  0.22234  0.53169  1.0000
  H   H606      1.0  0.77240  0.21489  0.52053  1.0000
  H   H607      1.0  0.98242  0.18561  0.75327  1.0000
  C   C510      1.0  0.73313  0.32749  0.72483  1.0000
  C   C511      1.0  0.99763  0.26733  0.68697  1.0000
  Fe  Fe71      1.0  0.92394  0.33553  0.78578  1.0000
  H   H608      1.0  0.55033  0.02883  0.90860  1.0000
  C   C512      1.0  0.99756  0.25676  0.66087  1.0000
  H   H609      1.0  0.00072  0.33248  0.82051  1.0000
  H   H610      1.0  0.57251  0.03127  0.86785  1.0000
  H   H611      1.0  0.90545  0.32675  0.63874  1.0000
  C   C513      1.0  0.81261  0.33109  0.72562  1.0000
  S   S135      1.0  0.00002  0.23478  0.57492  1.0000
  H   H612      1.0  0.88200  0.33111  0.68300  1.0000
  N   N34       1.0  0.59116  0.02256  0.92079  1.0000
  H   H613      1.0  0.87949  0.27012  0.53585  1.0000
  C   C514      1.0  0.56398  0.01238  0.91495  1.0000
  H   H614      1.0  0.84708  0.33790  0.68379  1.0000
  S   S136      1.0  0.82747  0.33636  0.75696  1.0000
  H   H615      1.0  0.88767  0.33203  0.60803  1.0000
  H   H616      1.0  0.88264  0.00650  0.52766  1.0000
  C   C515      1.0  0.88873  0.33812  0.62952  1.0000
  S   S137      1.0  0.77452  0.11834  0.50880  1.0000
  C   C516      1.0  0.53928  0.62077  0.25134  1.0000
  H   H617      1.0  0.96200  0.61402  0.04026  1.0000
  S   S138      1.0  0.50411  0.37416  0.48593  1.0000
  H   H618      1.0  0.51366  0.50428  0.42367  1.0000
  S   S139      1.0  0.56842  0.36162  0.49402  1.0000
  C   C517      1.0  0.53203  0.64050  0.23284  1.0000
  C   C518      1.0  0.99377  0.50397  0.01069  1.0000
  Fe  Fe72      1.0  0.98283  0.67199  0.04544  1.0000
  C   C519      1.0  0.50611  0.64125  0.22300  1.0000
  H   H619      1.0  0.54629  0.65577  0.22674  1.0000
  H   H620      1.0  0.55923  0.62078  0.25963  1.0000
  C   C520      1.0  0.53278  0.44836  0.45858  1.0000
  S   S140      1.0  0.54780  0.43902  0.48917  1.0000
  C   C521      1.0  0.51311  0.65549  0.39233  1.0000
  C   C522      1.0  0.50982  0.43653  0.41747  1.0000
  S   S141      1.0  0.99509  0.64465  0.07915  1.0000
  H   H621      1.0  0.98002  0.58949  0.07548  1.0000
  H   H622      1.0  0.99763  0.55901  0.07113  1.0000
  H   H623      1.0  0.53740  0.49075  0.46536  1.0000
  C   C523      1.0  0.52054  0.60195  0.26041  1.0000
  C   C524      1.0  0.52025  0.62969  0.32699  1.0000
  N   N35       1.0  0.98108  0.57548  0.03427  1.0000
  S   S142      1.0  0.52397  0.59970  0.34588  1.0000
  C   C525      1.0  0.52970  0.47559  0.45201  1.0000
  H   H624      1.0  0.52629  0.40787  0.44540  1.0000
  H   H625      1.0  0.56260  0.63410  0.32042  1.0000
  C   C526      1.0  0.54306  0.64240  0.31635  1.0000
  H   H626      1.0  0.52677  0.58826  0.27613  1.0000
  C   C527      1.0  0.98003  0.57044  0.06383  1.0000
  Fe  Fe73      1.0  0.53995  0.39583  0.50076  1.0000
  C   C528      1.0  0.50601  0.46371  0.41126  1.0000
  C   C529      1.0  0.52318  0.42888  0.44101  1.0000
  C   C530      1.0  0.95999  0.59551  0.02796  1.0000
  C   C531      1.0  0.54022  0.65462  0.38597  1.0000
  H   H627      1.0  0.55100  0.63582  0.38808  1.0000
  C   C532      1.0  0.51618  0.48327  0.42846  1.0000
  C   C533      1.0  0.54073  0.66535  0.29986  1.0000
  C   C534      1.0  0.99515  0.52783  0.02531  1.0000
  H   H628      1.0  0.96170  0.55915  0.06961  1.0000
  C   C535      1.0  0.97818  0.54994  0.01948  1.0000
  H   H629      1.0  0.93968  0.58737  0.03202  1.0000
  H   H630      1.0  0.50309  0.63750  0.39948  1.0000
  H   H631      1.0  0.94430  0.52053  0.96747  1.0000
  C   C536      1.0  0.56200  0.41853  0.59770  1.0000
  S   S143      1.0  0.91991  0.63962  0.97529  1.0000
  H   H632      1.0  0.99894  0.37481  0.89459  1.0000
  H   H633      1.0  0.60919  0.38984  0.58781  1.0000
  H   H634      1.0  0.96114  0.60228  0.00657  1.0000
  S   S144      1.0  0.95313  0.53508  0.91100  1.0000
  H   H635      1.0  0.90396  0.55552  0.92947  1.0000
  H   H636      1.0  0.77602  0.36512  0.67914  1.0000
  H   H637      1.0  0.57276  0.40407  0.60972  1.0000
  H   H638      1.0  0.84759  0.37244  0.63345  1.0000
  C   C537      1.0  0.53536  0.42316  0.60515  1.0000
  H   H639      1.0  0.62160  0.40713  0.53223  1.0000
  H   H640      1.0  0.89099  0.59615  0.95446  1.0000
  H   H641      1.0  0.56377  0.45860  0.54153  1.0000
  C   C538      1.0  0.95928  0.38878  0.81736  1.0000
  C   C539      1.0  0.97248  0.39559  0.79330  1.0000
  C   C540      1.0  0.98880  0.41857  0.79208  1.0000
  C   C541      1.0  0.99176  0.43506  0.81476  1.0000
  C   C542      1.0  0.97815  0.42847  0.83864  1.0000
  C   C543      1.0  0.96215  0.40536  0.83995  1.0000
  H   H642      1.0  0.97053  0.38288  0.77582  1.0000
  S   S145      1.0  0.53202  0.38499  0.54399  1.0000
  C   C544      1.0  0.95961  0.54655  0.99826  1.0000
  H   H643      1.0  0.95196  0.40022  0.85860  1.0000
  C   C545      1.0  0.93100  0.61153  0.95685  1.0000
  C   C546      1.0  0.95793  0.60705  0.94997  1.0000
  C   C547      1.0  0.96533  0.58381  0.93543  1.0000
  C   C548      1.0  0.94577  0.56519  0.92797  1.0000
  C   C549      1.0  0.91911  0.56984  0.93507  1.0000
  C   C550      1.0  0.91176  0.59288  0.94925  1.0000
  H   H644      1.0  0.97293  0.62147  0.95562  1.0000
  H   H645      1.0  0.89457  0.35965  0.63027  1.0000
  C   C551      1.0  0.55683  0.44897  0.55986  1.0000
  S   S146      1.0  0.94081  0.35874  0.82090  1.0000
  C   C552      1.0  0.86574  0.34171  0.67229  1.0000
  C   C553      1.0  0.61565  0.45226  0.56122  1.0000
  C   C554      1.0  0.53024  0.45338  0.56745  1.0000
  H   H646      1.0  0.79902  0.37197  0.72252  1.0000
  H   H647      1.0  0.61786  0.42031  0.60532  1.0000
  H   H648      1.0  0.99923  0.42356  0.77352  1.0000
  H   H649      1.0  0.84051  0.34694  0.60941  1.0000
  H   H650      1.0  0.98601  0.58021  0.93013  1.0000
  C   C555      1.0  0.84255  0.35081  0.63135  1.0000
  C   C556      1.0  0.57363  0.43150  0.57479  1.0000
  C   C557      1.0  0.60112  0.41153  0.53992  1.0000
  N   N36       1.0  0.60147  0.42645  0.56568  1.0000
  C   C558      1.0  0.78622  0.34849  0.68869  1.0000
  H   H651      1.0  0.61422  0.46517  0.57944  1.0000
  Fe  Fe74      1.0  0.55786  0.34883  0.53637  1.0000
  C   C559      1.0  0.51951  0.44052  0.59006  1.0000
  H   H652      1.0  0.52668  0.41261  0.62228  1.0000
  H   H653      1.0  0.51767  0.46621  0.55522  1.0000
  S   S147      1.0  0.99174  0.65961  0.00293  1.0000
  C   C560      1.0  0.61732  0.41048  0.58525  1.0000
  H   H654      1.0  0.97992  0.44112  0.85612  1.0000
  H   H655      1.0  0.60751  0.46381  0.54389  1.0000
  H   H656      1.0  0.63718  0.44912  0.55639  1.0000
  Fe  Fe75      1.0  0.99318  0.52527  0.89276  1.0000
  H   H657      1.0  0.82268  0.34801  0.64125  1.0000
  H   H658      1.0  0.59077  0.39196  0.54247  1.0000
  H   H659      1.0  0.75676  0.34360  0.75684  1.0000
  H   H660      1.0  0.63832  0.40762  0.57825  1.0000
  H   H661      1.0  0.94616  0.56227  0.99192  1.0000
  C   C561      1.0  0.95831  0.52253  0.98390  1.0000
  S   S148      1.0  0.90411  0.35312  0.74921  1.0000
  H   H662      1.0  0.87030  0.36348  0.67406  1.0000
  H   H663      1.0  0.97980  0.34228  0.86443  1.0000
  C   C562      1.0  0.79928  0.35240  0.71317  1.0000
  C   C563      1.0  0.97545  0.50138  0.98994  1.0000
  H   H664      1.0  0.59051  0.42270  0.52376  1.0000
  C   C564      1.0  0.99855  0.35188  0.85902  1.0000
  H   H665      1.0  0.97481  0.48315  0.97815  1.0000
  H   H666      1.0  0.72724  0.34702  0.71724  1.0000
  Fe  Fe76      1.0  0.94835  0.66708  0.99621  1.0000
  S   S149      1.0  0.58743  0.34116  0.57008  1.0000
  Fe  Fe77      1.0  0.72638  0.93981  0.28334  1.0000
  S   S150      1.0  0.73518  0.92159  0.32385  1.0000
  S   S151      1.0  0.75344  0.94466  0.24732  1.0000
  Fe  Fe78      1.0  0.66683  0.94350  0.29376  1.0000
  S   S152      1.0  0.66976  0.92503  0.33496  1.0000
  S   S153      1.0  0.62889  0.94994  0.27074  1.0000
  Fe  Fe79      1.0  0.70560  0.95194  0.33955  1.0000
  S   S154      1.0  0.70837  0.97214  0.38024  1.0000
  Fe  Fe80      1.0  0.69895  0.89641  0.31636  1.0000
  S   S155      1.0  0.69992  0.85153  0.31997  1.0000
  S   S156      1.0  0.70012  0.97281  0.29945  1.0000
  S   S157      1.0  0.69265  0.91221  0.27481  1.0000
  Fe  Fe81      1.0  0.77187  0.84477  0.10555  1.0000
  S   S158      1.0  0.80713  0.82652  0.12640  1.0000
  S   S159      1.0  0.77465  0.88254  0.08096  1.0000
  Fe  Fe82      1.0  0.73212  0.80552  0.12956  1.0000
  S   S160      1.0  0.76372  0.78348  0.15250  1.0000
  S   S161      1.0  0.68736  0.80026  0.13191  1.0000
  Fe  Fe83      1.0  0.77965  0.82414  0.16230  1.0000
  S   S162      1.0  0.79164  0.83097  0.20524  1.0000
  Fe  Fe84      1.0  0.78877  0.78723  0.11475  1.0000
  S   S163      1.0  0.81201  0.75003  0.10290  1.0000
  S   S164      1.0  0.74609  0.84603  0.14256  1.0000
  S   S165      1.0  0.75559  0.80566  0.09061  1.0000
  Fe  Fe85      1.0  0.55926  0.78237  0.22962  1.0000
  S   S166      1.0  0.56239  0.73877  0.21864  1.0000
  S   S167      1.0  0.54967  0.81849  0.20402  1.0000
  Fe  Fe86      1.0  0.58010  0.77320  0.28626  1.0000
  S   S168      1.0  0.58584  0.72904  0.28049  1.0000
  S   S169      1.0  0.58694  0.79576  0.32454  1.0000
  Fe  Fe87      1.0  0.60190  0.74078  0.23959  1.0000
  S   S170      1.0  0.64051  0.72435  0.22335  1.0000
  Fe  Fe88      1.0  0.54587  0.73066  0.26049  1.0000
  S   S171      1.0  0.60001  0.78483  0.24752  1.0000
  S   S172      1.0  0.53900  0.77439  0.26926  1.0000
  S   S173      1.0  0.92311  0.75564  0.04020  1.0000
  C   C565      1.0  0.55303  0.80006  0.11166  1.0000
  C   C566      1.0  0.84325  0.75211  0.08626  1.0000
  C   C567      1.0  0.85337  0.77660  0.07687  1.0000
  C   C568      1.0  0.87788  0.77734  0.06279  1.0000
  C   C569      1.0  0.89253  0.75372  0.05822  1.0000
  C   C570      1.0  0.88269  0.72934  0.06819  1.0000
  C   C571      1.0  0.85802  0.72854  0.08195  1.0000
  H   H667      1.0  0.84211  0.79487  0.08006  1.0000
  H   H668      1.0  0.88547  0.79632  0.05532  1.0000
  H   H669      1.0  0.56854  0.86271  0.05663  1.0000
  H   H670      1.0  0.85036  0.70956  0.08933  1.0000
  C   C572      1.0  0.67442  0.77768  0.15607  1.0000
  C   C573      1.0  0.64724  0.77905  0.16294  1.0000
  C   C574      1.0  0.63667  0.76251  0.18341  1.0000
  C   C575      1.0  0.65314  0.74408  0.19665  1.0000
  C   C576      1.0  0.68015  0.74218  0.18927  1.0000
  C   C577      1.0  0.69084  0.75911  0.16918  1.0000
  H   H671      1.0  0.63447  0.79334  0.15286  1.0000
  H   H672      1.0  0.61578  0.76400  0.18889  1.0000
  H   H673      1.0  0.69295  0.72795  0.19948  1.0000
  H   H674      1.0  0.71173  0.75770  0.16380  1.0000
  H   H675      1.0  0.51236  0.82814  0.09531  1.0000
  H   H676      1.0  0.58326  0.70653  0.33769  1.0000
  C   C578      1.0  0.80106  0.94550  0.44228  1.0000
  C   C579      1.0  0.73815  0.98772  0.39039  1.0000
  C   C580      1.0  0.91373  0.71154  0.15621  1.0000
  H   H677      1.0  0.68887  0.91763  0.11496  1.0000
  H   H678      1.0  0.83060  0.73403  0.15375  1.0000
  H   H679      1.0  0.57345  0.84000  0.25530  1.0000
  C   C581      1.0  0.68667  0.94082  0.15164  1.0000
  C   C582      1.0  0.76430  0.91314  0.23568  1.0000
  C   C583      1.0  0.76748  0.89168  0.25370  1.0000
  C   C584      1.0  0.77664  0.86673  0.24433  1.0000
  C   C585      1.0  0.78154  0.86278  0.21678  1.0000
  C   C586      1.0  0.77779  0.88406  0.19867  1.0000
  C   C587      1.0  0.76962  0.90932  0.20817  1.0000
  H   H680      1.0  0.76348  0.89448  0.27497  1.0000
  H   H681      1.0  0.77956  0.85040  0.25846  1.0000
  H   H682      1.0  0.78185  0.88127  0.17739  1.0000
  H   H683      1.0  0.76735  0.92586  0.19416  1.0000
  C   C588      1.0  0.66833  0.83651  0.32115  1.0000
  C   C589      1.0  0.64718  0.84836  0.33538  1.0000
  C   C590      1.0  0.62236  0.83539  0.33700  1.0000
  C   C591      1.0  0.61836  0.81119  0.32342  1.0000
  C   C592      1.0  0.63931  0.79971  0.30860  1.0000
  C   C593      1.0  0.66442  0.81207  0.30799  1.0000
  H   H684      1.0  0.65025  0.86703  0.34592  1.0000
  H   H685      1.0  0.60625  0.84417  0.34869  1.0000
  H   H686      1.0  0.63644  0.78087  0.29830  1.0000
  H   H687      1.0  0.68091  0.80268  0.29741  1.0000
  C   C594      1.0  0.69674  0.88023  0.06135  1.0000
  H   H688      1.0  0.56870  0.78438  0.10907  1.0000
  C   C595      1.0  0.69547  0.94846  0.20798  1.0000
  C   C596      1.0  0.61809  0.98316  0.26584  1.0000
  C   C597      1.0  0.81302  0.75314  0.02720  1.0000
  C   C598      1.0  0.65819  0.97806  0.12087  1.0000
  H   H689      1.0  0.58783  0.97135  0.23793  1.0000
  C   C599      1.0  0.72186  0.87336  0.07136  1.0000
  C   C600      1.0  0.74251  0.89216  0.07105  1.0000
  C   C601      1.0  0.73758  0.91831  0.06184  1.0000
  C   C602      1.0  0.71205  0.92548  0.05276  1.0000
  H   H690      1.0  0.75347  0.93296  0.06181  1.0000
  H   H691      1.0  0.70819  0.94574  0.04619  1.0000
  H   H692      1.0  0.94195  0.71445  0.12326  1.0000
  C   C603      1.0  0.74331  0.77107  0.25973  1.0000
  C   C604      1.0  0.66889  0.82347  0.22142  1.0000
  H   H693      1.0  0.69221  0.84470  0.26441  1.0000
  H   H694      1.0  0.65664  0.82146  0.24018  1.0000
  H   H695      1.0  0.66276  0.84245  0.21130  1.0000
  H   H696      1.0  0.66361  0.80693  0.20753  1.0000
  H   H697      1.0  0.74873  0.81009  0.24308  1.0000
  H   H698      1.0  0.76424  0.76901  0.26467  1.0000
  N   N37       1.0  0.85763  0.76009  0.17444  1.0000
  C   C605      1.0  0.83504  0.74084  0.17459  1.0000
  C   C606      1.0  0.86471  0.76632  0.20269  1.0000
  C   C607      1.0  0.84802  0.78534  0.16181  1.0000
  C   C608      1.0  0.88095  0.74813  0.16028  1.0000
  C   C609      1.0  0.89197  0.72347  0.16942  1.0000
  C   C610      1.0  0.89331  0.76025  0.13729  1.0000
  H   H699      1.0  0.97742  0.77959  0.03509  1.0000
  H   H700      1.0  0.64073  0.84124  0.12097  1.0000
  S   S174      1.0  0.68207  0.98969  0.02021  1.0000
  S   S175      1.0  0.51591  0.87244  0.02507  1.0000
  H   H701      1.0  0.81637  0.74997  0.18286  1.0000
  H   H702      1.0  0.55004  0.85587  0.27763  1.0000
  H   H703      1.0  0.86995  0.74806  0.21446  1.0000
  H   H704      1.0  0.84782  0.77624  0.21362  1.0000
  H   H705      1.0  0.88211  0.78017  0.20335  1.0000
  H   H706      1.0  0.86351  0.80130  0.16197  1.0000
  H   H707      1.0  0.84178  0.78188  0.14064  1.0000
  H   H708      1.0  0.83031  0.79374  0.17270  1.0000
  C   C611      1.0  0.75743  0.92725  0.42949  1.0000
  Fe  Fe89      1.0  0.65298  0.95585  0.02428  1.0000
  H   H709      1.0  0.55501  0.80912  0.13204  1.0000
  C   C612      1.0  0.66345  0.98337  0.14797  1.0000
  H   H710      1.0  0.58004  0.90487  0.11928  1.0000
  H   H711      1.0  0.56404  0.89609  0.30392  1.0000
  H   H712      1.0  0.50787  0.98540  0.06431  1.0000
  H   H713      1.0  0.80938  0.77355  0.03381  1.0000
  H   H714      1.0  0.53328  0.79456  0.06329  1.0000
  C   C613      1.0  0.57192  0.94521  0.13246  1.0000
  C   C614      1.0  0.68139  0.93578  0.12444  1.0000
  C   C615      1.0  0.77824  0.87334  0.01056  1.0000
  H   H715      1.0  0.52536  0.85731  0.16972  1.0000
  C   C616      1.0  0.58493  0.89221  0.29720  1.0000
  S   S176      1.0  0.93870  0.67607  0.03948  1.0000
  C   C617      1.0  0.55062  0.74824  0.38058  1.0000
  C   C618      1.0  0.82484  0.93187  0.48250  1.0000
  C   C619      1.0  0.56111  0.89810  0.20087  1.0000
  H   H716      1.0  0.50532  0.84355  0.24231  1.0000
  H   H717      1.0  0.75070  0.92199  0.38708  1.0000
  H   H718      1.0  0.83313  0.91423  0.47154  1.0000
  H   H719      1.0  0.53968  0.95454  0.06249  1.0000
  H   H720      1.0  0.51692  0.74046  0.33940  1.0000
  H   H721      1.0  0.54037  0.95334  0.23477  1.0000
  H   H722      1.0  0.80311  0.99402  0.46540  1.0000
  H   H723      1.0  0.56101  0.76669  0.37313  1.0000
  H   H724      1.0  0.71560  0.94290  0.20002  1.0000
  C   C620      1.0  0.79002  0.93723  0.39484  1.0000
  H   H725      1.0  0.64765  0.99275  0.10868  1.0000
  C   C621      1.0  0.54923  0.92291  0.20562  1.0000
  C   C622      1.0  0.57372  0.89443  0.24854  1.0000
  H   H726      1.0  0.64332  0.96350  0.20648  1.0000
  H   H727      1.0  0.79532  0.93846  0.37360  1.0000
  C   C623      1.0  0.71257  0.82681  0.20154  1.0000
  H   H728      1.0  0.68228  0.93055  0.20783  1.0000
  C   C624      1.0  0.70335  0.84641  0.24499  1.0000
  H   H729      1.0  0.69869  0.95365  0.22954  1.0000
  H   H730      1.0  0.75782  0.98505  0.35172  1.0000
  C   C625      1.0  0.79654  0.73265  0.03670  1.0000
  C   C626      1.0  0.69178  0.90626  0.05199  1.0000
  H   H731      1.0  0.72543  0.85320  0.07850  1.0000
  H   H732      1.0  0.69833  0.92586  0.16207  1.0000
  C   C627      1.0  0.76484  0.92791  0.40237  1.0000
  H   H733      1.0  0.59441  0.87985  0.31326  1.0000
  N   N38       1.0  0.81951  0.95440  0.46362  1.0000
  C   C628      1.0  0.73419  0.79461  0.24742  1.0000
  H   H734      1.0  0.69770  0.86572  0.23524  1.0000
  C   C629      1.0  0.50936  0.99777  0.08280  1.0000
  H   H735      1.0  0.57978  0.84053  0.29051  1.0000
  H   H736      1.0  0.56928  0.89102  0.01546  1.0000
  N   N39       1.0  0.69787  0.82315  0.22741  1.0000
  S   S177      1.0  0.62120  0.97989  0.04488  1.0000
  H   H737      1.0  0.56912  0.79397  0.05933  1.0000
  C   C630      1.0  0.77524  0.93574  0.44922  1.0000
  C   C631      1.0  0.66708  0.95429  0.10915  1.0000
  C   C632      1.0  0.70691  0.79809  0.24070  1.0000
  H   H738      1.0  0.85650  0.94806  0.44179  1.0000
  H   H739      1.0  0.72477  0.84818  0.25015  1.0000
  C   C633      1.0  0.53920  0.70189  0.37161  1.0000
  H   H740      1.0  0.55340  0.99871  0.05165  1.0000
  C   C634      1.0  0.54810  0.95255  0.08236  1.0000
  H   H741      1.0  0.55860  0.91146  0.07485  1.0000
  C   C635      1.0  0.56066  0.97009  0.12586  1.0000
  H   H742      1.0  0.66278  0.98298  0.22930  1.0000
  H   H743      1.0  0.70507  0.84431  0.18982  1.0000
  C   C636      1.0  0.67757  0.96477  0.16435  1.0000
  H   H744      1.0  0.89411  0.71112  0.06555  1.0000
  H   H745      1.0  0.85902  0.97068  0.46954  1.0000
  H   H746      1.0  0.54981  0.82165  0.04666  1.0000
  C   C637      1.0  0.54937  0.93376  0.23141  1.0000
  C   C638      1.0  0.75069  0.87056  0.00866  1.0000
  H   H747      1.0  0.62452  0.86217  0.28088  1.0000
  C   C639      1.0  0.68938  0.77649  0.24703  1.0000
  C   C640      1.0  0.72562  0.75026  0.26555  1.0000
  H   H748      1.0  0.71071  0.80879  0.18855  1.0000
  H   H749      1.0  0.88938  0.70533  0.01818  1.0000
  C   C641      1.0  0.75938  0.99179  0.37235  1.0000
  C   C642      1.0  0.92526  0.72386  0.13368  1.0000
  H   H750      1.0  0.56012  0.74210  0.39987  1.0000
  H   H751      1.0  0.65685  0.00252  0.15575  1.0000
  H   H752      1.0  0.73420  0.83031  0.20456  1.0000
  H   H753      1.0  0.66834  0.77700  0.24260  1.0000
  H   H754      1.0  0.73273  0.73195  0.27493  1.0000
  S   S178      1.0  0.99121  0.71566  0.03851  1.0000
  C   C643      1.0  0.51166  0.70218  0.37876  1.0000
  H   H755      1.0  0.59603  0.91154  0.29668  1.0000
  N   N40       1.0  0.68359  0.97125  0.19279  1.0000
  C   C644      1.0  0.69875  0.75296  0.25916  1.0000
  C   C645      1.0  0.56163  0.91997  0.25263  1.0000
  C   C646      1.0  0.55164  0.80713  0.06372  1.0000
  N   N41       1.0  0.55460  0.82079  0.09002  1.0000
  C   C647      1.0  0.54832  0.97450  0.10047  1.0000
  C   C648      1.0  0.57316  0.88402  0.22195  1.0000
  H   H756      1.0  0.84315  0.98180  0.43946  1.0000
  H   H757      1.0  0.65012  0.99836  0.19983  1.0000
  C   C649      1.0  0.82326  0.70020  0.01230  1.0000
  H   H758      1.0  0.68499  0.73661  0.26331  1.0000
  H   H759      1.0  0.92408  0.75761  0.10664  1.0000
  C   C650      1.0  0.55915  0.92773  0.08923  1.0000
  C   C651      1.0  0.91519  0.74822  0.12438  1.0000
  C   C652      1.0  0.53165  0.83921  0.09393  1.0000
  C   C653      1.0  0.52277  0.81585  0.18188  1.0000
  H   H760      1.0  0.53853  0.71912  0.32026  1.0000
  C   C654      1.0  0.83488  0.74734  0.01043  1.0000
  C   C655      1.0  0.80789  0.94613  0.41435  1.0000
  H   H761      1.0  0.54002  0.93394  0.18932  1.0000
  S   S179      1.0  0.51345  0.98566  0.18602  1.0000
  H   H762      1.0  0.54762  0.75326  0.32662  1.0000
  H   H763      1.0  0.66331  0.95044  0.08801  1.0000
  H   H764      1.0  0.64672  0.00133  0.29220  1.0000
  H   H765      1.0  0.88367  0.71312  0.18676  1.0000
  H   H766      1.0  0.73752  0.92060  0.43508  1.0000
  C   C656      1.0  0.55320  0.67735  0.37569  1.0000
  N   N42       1.0  0.55212  0.72633  0.36050  1.0000
  H   H767      1.0  0.59283  0.71706  0.37119  1.0000
  C   C657      1.0  0.78267  0.00469  0.38103  1.0000
  H   H768      1.0  0.80652  0.92521  0.49341  1.0000
  H   H769      1.0  0.78975  0.85856  0.02162  1.0000
  C   C658      1.0  0.60109  0.83075  0.10795  1.0000
  C   C659      1.0  0.65890  0.97936  0.20752  1.0000
  C   C660      1.0  0.84566  0.96405  0.45303  1.0000
  H   H770      1.0  0.58134  0.94243  0.15186  1.0000
  H   H771      1.0  0.68128  0.86515  0.06056  1.0000
  H   H772      1.0  0.56089  0.88961  0.18081  1.0000
  N   N43       1.0  0.58595  0.87861  0.27061  1.0000
  H   H773      1.0  0.76845  0.93495  0.46995  1.0000
  H   H774      1.0  0.53394  0.85121  0.11260  1.0000
  C   C661      1.0  0.58072  0.72240  0.35325  1.0000
  H   H775      1.0  0.64506  0.87963  0.08936  1.0000
  H   H776      1.0  0.83909  0.72265  0.18690  1.0000
  S   S180      1.0  0.51147  0.70294  0.27119  1.0000
  C   C662      1.0  0.57977  0.83632  0.08999  1.0000
  C   C663      1.0  0.51498  0.83853  0.16713  1.0000
  H   H777      1.0  0.60043  0.81445  0.12236  1.0000
  C   C664      1.0  0.59689  0.98788  0.24831  1.0000
  C   C665      1.0  0.58356  0.85778  0.07140  1.0000
  H   H778      1.0  0.82663  0.95399  0.40689  1.0000
  H   H779      1.0  0.52938  0.85359  0.07695  1.0000
  S   S181      1.0  0.66027  0.91378  0.03880  1.0000
  C   C666      1.0  0.57169  0.85269  0.27359  1.0000
  C   C667      1.0  0.60679  0.87325  0.07137  1.0000
  C   C668      1.0  0.80724  0.97675  0.47899  1.0000
  C   C669      1.0  0.62440  0.84619  0.10754  1.0000
  H   H780      1.0  0.53345  0.78945  0.11176  1.0000
  H   H781      1.0  0.88625  0.77879  0.12851  1.0000
  H   H782      1.0  0.58977  0.74100  0.34457  1.0000
  H   H783      1.0  0.62555  0.89220  0.26069  1.0000
  H   H784      1.0  0.60928  0.88956  0.05694  1.0000
  C   C670      1.0  0.52846  0.90467  0.01751  1.0000
  H   H785      1.0  0.58186  0.86471  0.21729  1.0000
  C   C671      1.0  0.62707  0.86760  0.08954  1.0000
  H   H786      1.0  0.92164  0.69254  0.16333  1.0000
  C   C672      1.0  0.57115  0.92406  0.11420  1.0000
  H   H787      1.0  0.61692  0.86053  0.24590  1.0000
  H   H788      1.0  0.83935  0.93767  0.49834  1.0000
  H   H789      1.0  0.56178  0.93000  0.27188  1.0000
  C   C673      1.0  0.61443  0.87312  0.26415  1.0000
  H   H790      1.0  0.78025  0.73723  0.05052  1.0000
  Fe  Fe90      1.0  0.94743  0.71887  0.02894  1.0000
  C   C674      1.0  0.53816  0.73515  0.33573  1.0000
  H   H791      1.0  0.50646  0.89308  0.23892  1.0000
  H   H792      1.0  0.78813  0.97108  0.48899  1.0000
  H   H793      1.0  0.78901  0.69032  0.03715  1.0000
  H   H794      1.0  0.82054  0.98393  0.49533  1.0000
  C   C675      1.0  0.50891  0.79176  0.17891  1.0000
  H   H795      1.0  0.51486  0.94055  0.15057  1.0000
  C   C676      1.0  0.51148  0.92687  0.01491  1.0000
  H   H796      1.0  0.74097  0.85349  0.01819  1.0000
  C   C677      1.0  0.80164  0.70623  0.02928  1.0000
  H   H797      1.0  0.51477  0.77419  0.19034  1.0000
  N   N44       1.0  0.53724  0.00082  0.09218  1.0000
  H   H798      1.0  0.52971  0.75425  0.38521  1.0000
  C   C678      1.0  0.74032  0.99668  0.41708  1.0000
  H   H799      1.0  0.72157  0.98858  0.18225  1.0000
  H   H800      1.0  0.55839  0.67451  0.29119  1.0000
  H   H801      1.0  0.56175  0.98552  0.14104  1.0000
  C   C679      1.0  0.99239  0.78458  0.01993  1.0000
  C   C680      1.0  0.55601  0.90806  0.01373  1.0000
  H   H802      1.0  0.72387  0.99364  0.43105  1.0000
  H   H803      1.0  0.57404  0.67489  0.37061  1.0000
  H   H804      1.0  0.70853  0.99886  0.21443  1.0000
  C   C681      1.0  0.51548  0.67550  0.29357  1.0000
  C   C682      1.0  0.70284  0.99378  0.19338  1.0000
  C   C683      1.0  0.63032  0.00481  0.27861  1.0000
  H   H805      1.0  0.72536  0.97812  0.97734  1.0000
  H   H806      1.0  0.96219  0.91542  0.64620  1.0000
  C   C684      1.0  0.74753  0.91369  0.98464  1.0000
  H   H807      1.0  0.89950  0.68995  0.98719  1.0000
  C   C685      1.0  0.87950  0.73709  0.97564  1.0000
  H   H808      1.0  0.84875  0.99359  0.60655  1.0000
  C   C686      1.0  0.92637  0.96918  0.78110  1.0000
  S   S182      1.0  0.56263  0.98717  0.99531  1.0000
  S   S183      1.0  0.63611  0.96198  0.98318  1.0000
  H   H809      1.0  0.99393  0.95836  0.61543  1.0000
  C   C687      1.0  0.77577  0.91541  0.98614  1.0000
  S   S184      1.0  0.93300  0.96342  0.67342  1.0000
  C   C688      1.0  0.86261  0.00050  0.56582  1.0000
  N   N45       1.0  0.98510  0.91654  0.60889  1.0000
  H   H810      1.0  0.92417  0.88596  0.76757  1.0000
  C   C689      1.0  0.86603  0.99539  0.59341  1.0000
  C   C690      1.0  0.93775  0.89358  0.78247  1.0000
  H   H811      1.0  0.94947  0.94239  0.73964  1.0000
  Fe  Fe91      1.0  0.97244  0.96640  0.69426  1.0000
  H   H812      1.0  0.86714  0.75143  0.96384  1.0000
  N   N46       1.0  0.86364  0.71351  0.98481  1.0000
  C   C691      1.0  0.60715  0.99949  0.93065  1.0000
  H   H813      1.0  0.96073  0.95019  0.81343  1.0000
  Fe  Fe92      1.0  0.99613  0.70383  0.99502  1.0000
  C   C692      1.0  0.97413  0.91069  0.82092  1.0000
  H   H814      1.0  0.94826  0.93609  0.62051  1.0000
  H   H815      1.0  0.89436  0.98928  0.62545  1.0000
  H   H816      1.0  0.72765  0.95395  0.93267  1.0000
  H   H817      1.0  0.88860  0.93496  0.79997  1.0000
  C   C693      1.0  0.79079  0.89562  0.99917  1.0000
  H   H818      1.0  0.73550  0.91866  0.93224  1.0000
  H   H819      1.0  0.62675  0.00572  0.93876  1.0000
  H   H820      1.0  0.83955  0.71169  0.94918  1.0000
  H   H821      1.0  0.55455  0.00299  0.93321  1.0000
  H   H822      1.0  0.81221  0.89784  0.00106  1.0000
  C   C694      1.0  0.84059  0.72057  0.00234  1.0000
  H   H823      1.0  0.97423  0.75073  0.89647  1.0000
  S   S185      1.0  0.95908  0.99966  0.72193  1.0000
  H   H824      1.0  0.99837  0.79018  0.95236  1.0000
  C   C695      1.0  0.88188  0.69549  0.99972  1.0000
  C   C696      1.0  0.97240  0.88357  0.81466  1.0000
  S   S186      1.0  0.83036  0.00378  0.55247  1.0000
  C   C697      1.0  0.85432  0.69933  0.96041  1.0000
  S   S187      1.0  0.95317  0.71042  0.98483  1.0000
  Fe  Fe93      1.0  0.66271  0.99824  0.98029  1.0000
  S   S188      1.0  0.87943  0.99714  0.71652  1.0000
  Fe  Fe94      1.0  0.92083  0.99849  0.69874  1.0000
  H   H825      1.0  0.92793  0.00084  0.54615  1.0000
  H   H826      1.0  0.96553  0.77954  0.98699  1.0000
  H   H827      1.0  0.69566  0.93039  0.99497  1.0000
  H   H828      1.0  0.91612  0.95358  0.73210  1.0000
  S   S189      1.0  0.98965  0.99437  0.66303  1.0000
  C   C698      1.0  0.73936  0.93783  0.94292  1.0000
  H   H829      1.0  0.88804  0.91440  0.77034  1.0000
  H   H830      1.0  0.92136  0.97252  0.80275  1.0000
  H   H831      1.0  0.94734  0.97561  0.77720  1.0000
  C   C699      1.0  0.99859  0.73471  0.92845  1.0000
  H   H832      1.0  0.98215  0.73315  0.94249  1.0000
  H   H833      1.0  0.71413  0.00472  0.89029  1.0000
  H   H834      1.0  0.88845  0.74783  0.99302  1.0000
  H   H835      1.0  0.69639  0.91299  0.96304  1.0000
  C   C700      1.0  0.88503  0.00277  0.54894  1.0000
  H   H836      1.0  0.76076  0.94290  0.93986  1.0000
  S   S190      1.0  0.94664  0.99119  0.59955  1.0000
  N   N47       1.0  0.92217  0.94077  0.77323  1.0000
  C   C701      1.0  0.92793  0.93876  0.74393  1.0000
  C   C702      1.0  0.73804  0.96147  0.98520  1.0000
  H   H837      1.0  0.91345  0.98314  0.76933  1.0000
  C   C703      1.0  0.93919  0.92146  0.78809  1.0000
  H   H838      1.0  0.98568  0.86925  0.82425  1.0000
  C   C704      1.0  0.95421  0.87501  0.79552  1.0000
  C   C705      1.0  0.97927  0.92307  0.58025  1.0000
  C   C706      1.0  0.89358  0.93450  0.77804  1.0000
  H   H839      1.0  0.98890  0.91720  0.83534  1.0000
  H   H840      1.0  0.92310  0.91875  0.73559  1.0000
  C   C707      1.0  0.91417  0.99478  0.58702  1.0000
  H   H841      1.0  0.88030  0.94924  0.76767  1.0000
  H   H842      1.0  0.69156  0.94829  0.96405  1.0000
  H   H843      1.0  0.96931  0.94300  0.57819  1.0000
  H   H844      1.0  0.50869  0.96908  0.00524  1.0000
  Fe  Fe95      1.0  0.94908  0.99394  0.64457  1.0000
  H   H845      1.0  0.89658  0.73106  0.96242  1.0000
  H   H846      1.0  0.75899  0.96800  0.98188  1.0000
  H   H847      1.0  0.99787  0.92423  0.56785  1.0000
  H   H848      1.0  0.78641  0.93239  0.97776  1.0000
  C   C708      1.0  0.70268  0.93150  0.97363  1.0000
  C   C709      1.0  0.54956  0.95547  0.00409  1.0000
  N   N48       1.0  0.73201  0.93560  0.97189  1.0000
  C   C710      1.0  0.89183  0.99295  0.60410  1.0000
  C   C711      1.0  0.00251  0.93807  0.61937  1.0000
  C   C712      1.0  0.95786  0.92949  0.80792  1.0000
  C   C713      1.0  0.99825  0.89016  0.61267  1.0000
  S   S191      1.0  0.99021  0.92521  0.70204  1.0000
  C   C714      1.0  0.73540  0.89040  0.99606  1.0000
  H   H849      1.0  0.61125  0.98488  0.91422  1.0000
  C   C715      1.0  0.91071  0.99944  0.55943  1.0000
  C   C716      1.0  0.95939  0.91702  0.62401  1.0000
  Fe  Fe96      1.0  0.60666  0.98904  0.00345  1.0000
  H   H850      1.0  0.00061  0.87794  0.57014  1.0000
  S   S192      1.0  0.68509  0.99934  0.94008  1.0000
  H   H851      1.0  0.58786  0.93576  0.00493  1.0000
  C   C717      1.0  0.99414  0.74487  0.90238  1.0000
  C   C718      1.0  0.98570  0.78467  0.99276  1.0000
  H   H852      1.0  0.95321  0.85388  0.79051  1.0000
  H   H853      1.0  0.94624  0.90022  0.61783  1.0000
  H   H854      1.0  0.84730  0.76412  0.00469  1.0000
  H   H855      1.0  0.96542  0.90821  0.57131  1.0000
  H   H856      1.0  0.59670  0.98851  0.94728  1.0000
  H   H857      1.0  0.71406  0.88736  0.99644  1.0000
  H   H858      1.0  0.87121  0.69454  0.94640  1.0000
  H   H859      1.0  0.56453  0.99662  0.89913  1.0000
  H   H860      1.0  0.00065  0.89316  0.65648  1.0000
  H   H861      1.0  0.84484  0.67974  0.96532  1.0000
  H   H862      1.0  0.82660  0.67935  0.00741  1.0000
  H   H863      1.0  0.73464  0.96005  0.00737  1.0000
  H   H864      1.0  0.87238  0.67624  0.00583  1.0000
  C   C719      1.0  0.56656  0.93345  0.00755  1.0000
  C   C720      1.0  0.52197  0.95213  0.00779  1.0000
