data_image0
_chemical_formula_structural       H3C2SH2CNHCH4CH2CSCHCH2CHCH3FeHC3H3CHCHCHC6H3C2H4CHCHCFeH2CSC2HNCH3S2H2SNH2CSH8C2HCHCHNFeCHCHCH2C3HCHC2H2CSH2C2H2C2SCH2SHC2H2SFeHSCHFeSHFeS2FeSFeSCSH7C7H2CHC6H4C3HSCHC5HNH2CHSCH2SC4H2C4HC4H4SH2FeNCH2CH2C2SCH2C2H3NSHSHFeH2CHNCHFeCH2SH2C4SHCH3SCFeH2CH6C2SH2SHCNHS2H3SHFeS2HSHFeS4CFeSFeSH3FeSFeCHSHSHSH4CHC6H5NH3FeH4CH3CHCHC7H3C3H2CFeCH3NCSC8H2CHCHCH6NC8HCH2CHC3H2CHCH3C2HCH2C2HFeH3NFeHFeCH2SC2FeSHCHCSFeH2C2HC2HSHC3FeHSCFe2CHCSH2C2H2NH4CHSH2CHSFeH2FeSC2HSH2SFeSCHCH2C2HCSH2CHC2H4CH6CH2CSCH3CSFeS2FeSFeS3FeS2FeS2FeSFeS3FeS2FeSHFeSFeS4FeS2FeSFeSHSC6H4CHC6H2CHCH2C2HC6H3NC6H4C6H4C6H4SC2H2C2H3CHC3HCH5CH3CH4CNHCHNC9H15CHC3HNC6H11SCHCHCHCH2CH2CH2C2FeCH2CNHC3HCHCHCHCHCH3C3H8CH4C2HC2FeH2C3H2CHCHCSCHCHSFeSHS2FeS2FeSHFeS2FeS2FeSFeS3HSC6H4C6H6CHC6H4SC6H4CHSNH3CHCH3CNC8H11C3H2Fe2HC2HCS2HCHCHCHNHNC5H10CH4SCH3Fe2CSFeHCHFe2CHC2HSC3H2NFeH3CH2CSHCHCH3C5H2C2HC2HS2CH2C2HNHCHNCH3CHCH2SC3H5C2HCH2C2H2C4SC2H3SHCHCHNHCHC3HCNCH3CHCH3CHC2HCHNCH2CH3C2H2CH2CHCH3C2HCH2C3HSHC2H3CHC2SCHC2HCH2CHCHNCHCH5SNHC4H2CH2CHC3HC3FeH3SC2H3SC2H3CHCHCFeCNCHC2HCHCHC2H2CHSH2C2HCH3C3H3CSHC
_chemical_formula_sum              "H576 C480 S128 N32 Fe64"
_cell_length_a       40.0399
_cell_length_b       39.3324
_cell_length_c       62.2907
_cell_angle_alpha    87.4293
_cell_angle_beta     87.4934
_cell_angle_gamma    106.412

_space_group_name_H-M_alt    "P 1"
_space_group_IT_number       1

loop_
  _space_group_symop_operation_xyz
  'x, y, z'

loop_
  _atom_site_type_symbol
  _atom_site_label
  _atom_site_symmetry_multiplicity
  _atom_site_fract_x
  _atom_site_fract_y
  _atom_site_fract_z
  _atom_site_occupancy
  H   H1        1.0  0.29103  0.44041  0.97818  1.0000
  H   H2        1.0  0.41055  0.48887  0.00698  1.0000
  H   H3        1.0  0.35696  0.47911  0.03075  1.0000
  C   C1        1.0  0.26225  0.45343  0.07051  1.0000
  C   C2        1.0  0.22806  0.42826  0.04157  1.0000
  S   S1        1.0  0.22721  0.46123  0.98431  1.0000
  H   H4        1.0  0.21119  0.40546  0.05184  1.0000
  H   H5        1.0  0.28535  0.44680  0.06313  1.0000
  C   C3        1.0  0.18220  0.47468  0.04950  1.0000
  N   N1        1.0  0.23908  0.46056  0.05394  1.0000
  H   H6        1.0  0.27319  0.47721  0.07977  1.0000
  C   C4        1.0  0.15319  0.48415  0.05763  1.0000
  H   H7        1.0  0.21333  0.43217  0.02744  1.0000
  H   H8        1.0  0.38309  0.47827  0.24528  1.0000
  H   H9        1.0  0.25091  0.42041  0.03491  1.0000
  H   H10       1.0  0.18467  0.47226  0.03233  1.0000
  C   C5        1.0  0.20348  0.47529  0.08533  1.0000
  H   H11       1.0  0.24832  0.43086  0.08196  1.0000
  H   H12       1.0  0.22216  0.47310  0.09690  1.0000
  C   C6        1.0  0.20815  0.46967  0.06311  1.0000
  S   S2        1.0  0.14258  0.49417  0.99774  1.0000
  C   C7        1.0  0.17449  0.48506  0.09325  1.0000
  H   H13       1.0  0.28391  0.48512  0.03226  1.0000
  C   C8        1.0  0.25992  0.49046  0.03925  1.0000
  H   H14       1.0  0.05618  0.37454  0.98281  1.0000
  H   H15       1.0  0.13422  0.48896  0.04686  1.0000
  C   C9        1.0  0.37970  0.50089  0.03325  1.0000
  H   H16       1.0  0.08428  0.43968  0.98033  1.0000
  C   C10       1.0  0.14938  0.48939  0.07945  1.0000
  H   H17       1.0  0.17196  0.49033  0.11009  1.0000
  H   H18       1.0  0.12753  0.49807  0.08549  1.0000
  H   H19       1.0  0.24512  0.49596  0.02545  1.0000
  Fe  Fe1       1.0  0.19525  0.49973  0.98161  1.0000
  H   H20       1.0  0.07377  0.42622  0.42715  1.0000
  C   C11       1.0  0.05872  0.46670  0.47130  1.0000
  C   C12       1.0  0.27909  0.47357  0.37475  1.0000
  C   C13       1.0  0.03500  0.41499  0.53295  1.0000
  H   H21       1.0  0.04732  0.43308  0.37128  1.0000
  H   H22       1.0  0.27432  0.47637  0.42944  1.0000
  H   H23       1.0  0.19553  0.42465  0.38844  1.0000
  C   C14       1.0  0.01841  0.39546  0.47022  1.0000
  H   H24       1.0  0.29527  0.48210  0.36006  1.0000
  C   C15       1.0  0.05469  0.40389  0.47125  1.0000
  H   H25       1.0  0.06728  0.38289  0.47173  1.0000
  C   C16       1.0  0.18686  0.48537  0.34260  1.0000
  H   H26       1.0  0.37226  0.50314  0.41426  1.0000
  C   C17       1.0  0.01749  0.44018  0.40935  1.0000
  C   C18       1.0  0.07650  0.43157  0.40937  1.0000
  C   C19       1.0  0.22203  0.44048  0.39040  1.0000
  C   C20       1.0  0.34527  0.48679  0.41171  1.0000
  C   C21       1.0  0.02246  0.45825  0.47023  1.0000
  C   C22       1.0  0.23296  0.44957  0.41081  1.0000
  H   H27       1.0  0.02472  0.47090  0.51612  1.0000
  H   H28       1.0  0.21513  0.44047  0.42488  1.0000
  H   H29       1.0  0.23672  0.44475  0.35659  1.0000
  C   C23       1.0  0.07479  0.43941  0.47193  1.0000
  C   C24       1.0  0.29086  0.48383  0.39536  1.0000
  H   H30       1.0  0.08606  0.46957  0.37250  1.0000
  H   H31       1.0  0.36516  0.49683  0.47019  1.0000
  H   H32       1.0  0.30369  0.45921  0.47276  1.0000
  H   H33       1.0  0.10263  0.44556  0.47330  1.0000
  C   C25       1.0  0.21343  0.48980  0.32647  1.0000
  H   H34       1.0  0.49138  0.44285  0.43211  1.0000
  C   C26       1.0  0.24523  0.45197  0.37247  1.0000
  H   H35       1.0  0.06967  0.40587  0.40151  1.0000
  C   C27       1.0  0.06982  0.48996  0.41116  1.0000
  Fe  Fe2       1.0  0.48265  0.50484  0.45056  1.0000
  H   H36       1.0  0.10477  0.44400  0.40507  1.0000
  H   H37       1.0  0.38907  0.49080  0.34078  1.0000
  C   C28       1.0  0.00235  0.42276  0.46978  1.0000
  S   S3        1.0  0.42163  0.48372  0.38039  1.0000
  C   C29       1.0  0.26692  0.47053  0.41329  1.0000
  C   C30       1.0  0.30945  0.48784  0.47130  1.0000
  H   H38       1.0  0.04919  0.43980  0.54038  1.0000
  N   N2        1.0  0.05489  0.45473  0.40235  1.0000
  C   C31       1.0  0.05823  0.45898  0.37854  1.0000
  H   H39       1.0  0.00988  0.47924  0.46947  1.0000
  H   H40       1.0  0.04745  0.39414  0.53798  1.0000
  H   H41       1.0  0.09863  0.49962  0.40814  1.0000
  S   S4        1.0  0.42571  0.49046  0.44411  1.0000
  S   S5        1.0  0.23919  0.47695  0.46983  1.0000
  H   H42       1.0  0.06431  0.48871  0.42885  1.0000
  H   H43       1.0  0.35171  0.49734  0.36937  1.0000
  S   S6        1.0  0.15641  0.48078  0.44153  1.0000
  N   N3        1.0  0.99710  0.40447  0.53933  1.0000
  H   H44       1.0  0.16198  0.46591  0.34117  1.0000
  H   H45       1.0  0.34748  0.46272  0.40365  1.0000
  C   C32       1.0  0.99729  0.46391  0.52102  1.0000
  S   S7        1.0  0.15860  0.49876  0.38058  1.0000
  H   H46       1.0  0.01793  0.38586  0.41926  1.0000
  H   H47       1.0  0.00328  0.48867  0.40104  1.0000
  H   H48       1.0  0.20902  0.47369  0.31267  1.0000
  H   H49       1.0  0.03969  0.41904  0.51514  1.0000
  H   H50       1.0  0.04415  0.47760  0.37223  1.0000
  H   H51       1.0  0.33229  0.47794  0.42793  1.0000
  H   H52       1.0  0.48048  0.13027  0.48906  1.0000
  H   H53       1.0  0.00750  0.37869  0.56861  1.0000
  C   C33       1.0  0.19262  0.50551  0.36073  1.0000
  C   C34       1.0  0.00265  0.40428  0.41713  1.0000
  H   H54       1.0  0.00311  0.42268  0.57136  1.0000
  C   C35       1.0  0.28222  0.50358  0.47047  1.0000
  H   H55       1.0  0.49115  0.22853  0.53388  1.0000
  C   C36       1.0  0.15015  0.40680  0.96249  1.0000
  H   H56       1.0  0.12029  0.26373  0.92347  1.0000
  N   N4        1.0  0.15708  0.40310  0.93926  1.0000
  Fe  Fe3       1.0  0.46832  0.48260  0.93501  1.0000
  C   C37       1.0  0.11273  0.34339  0.93843  1.0000
  H   H57       1.0  0.07593  0.29181  0.93701  1.0000
  C   C38       1.0  0.19432  0.42243  0.93370  1.0000
  H   H58       1.0  0.00852  0.38344  0.92321  1.0000
  C   C39       1.0  0.03024  0.37475  0.95325  1.0000
  H   H59       1.0  0.34571  0.46834  0.95557  1.0000
  H   H60       1.0  0.13919  0.41769  0.90904  1.0000
  C   C40       1.0  0.06238  0.44830  0.95033  1.0000
  C   C41       1.0  0.04079  0.43235  0.93433  1.0000
  C   C42       1.0  0.02472  0.39562  0.93578  1.0000
  H   H61       1.0  0.03656  0.44844  0.92072  1.0000
  C   C43       1.0  0.14777  0.36493  0.93492  1.0000
  H   H62       1.0  0.14219  0.44986  0.92905  1.0000
  C   C44       1.0  0.06806  0.42744  0.96777  1.0000
  C   C45       1.0  0.26579  0.47969  0.96810  1.0000
  H   H63       1.0  0.18201  0.29939  0.91744  1.0000
  H   H64       1.0  0.19997  0.36193  0.92441  1.0000
  C   C46       1.0  0.13558  0.42091  0.92657  1.0000
  S   S8        1.0  0.08081  0.49442  0.94850  1.0000
  H   H65       1.0  0.16668  0.39475  0.97252  1.0000
  H   H66       1.0  0.09232  0.35411  0.94442  1.0000
  C   C47       1.0  0.17266  0.34795  0.92733  1.0000
  C   C48       1.0  0.12795  0.29166  0.92668  1.0000
  H   H67       1.0  0.20027  0.45107  0.93698  1.0000
  H   H68       1.0  0.12259  0.39377  0.96798  1.0000
  C   C49       1.0  0.05203  0.39067  0.96920  1.0000
  C   C50       1.0  0.29333  0.46420  0.96812  1.0000
  S   S9        1.0  0.01083  0.32876  0.95533  1.0000
  C   C51       1.0  0.10304  0.30742  0.93429  1.0000
  H   H69       1.0  0.00409  0.47426  0.95979  1.0000
  H   H70       1.0  0.15581  0.43517  0.96631  1.0000
  S   S10       1.0  0.42546  0.48239  0.95967  1.0000
  H   H71       1.0  0.20142  0.42122  0.91634  1.0000
  C   C52       1.0  0.16268  0.31184  0.92328  1.0000
  C   C53       1.0  0.32423  0.47994  0.95532  1.0000
  H   H72       1.0  0.10729  0.41025  0.93108  1.0000
  H   H73       1.0  0.21213  0.41197  0.94364  1.0000
  S   S11       1.0  0.47811  0.43401  0.92181  1.0000
  Fe  Fe4       1.0  0.34941  0.63534  0.27404  1.0000
  H   H74       1.0  0.16903  0.59664  0.10999  1.0000
  S   S12       1.0  0.35083  0.65916  0.24045  1.0000
  C   C54       1.0  0.34046  0.59219  0.22640  1.0000
  H   H75       1.0  0.37533  0.66903  0.19595  1.0000
  Fe  Fe5       1.0  0.34240  0.55708  0.09066  1.0000
  S   S13       1.0  0.32572  0.60597  0.08334  1.0000
  H   H76       1.0  0.36563  0.76853  0.03407  1.0000
  Fe  Fe6       1.0  0.34863  0.57039  0.13803  1.0000
  S   S14       1.0  0.33212  0.62009  0.13453  1.0000
  S   S15       1.0  0.35696  0.54915  0.17080  1.0000
  Fe  Fe7       1.0  0.29180  0.58919  0.11361  1.0000
  S   S16       1.0  0.23611  0.58964  0.11848  1.0000
  Fe  Fe8       1.0  0.36781  0.63174  0.10480  1.0000
  S   S17       1.0  0.40127  0.68718  0.09608  1.0000
  C   C55       1.0  0.39812  0.60471  0.99766  1.0000
  S   S18       1.0  0.38773  0.58413  0.10978  1.0000
  H   H77       1.0  0.40404  0.63403  0.99833  1.0000
  H   H78       1.0  0.37957  0.62599  0.16873  1.0000
  H   H79       1.0  0.25541  0.55523  0.27279  1.0000
  H   H80       1.0  0.20872  0.58152  0.16519  1.0000
  H   H81       1.0  0.22208  0.65115  0.07609  1.0000
  H   H82       1.0  0.28596  0.71221  0.00899  1.0000
  H   H83       1.0  0.32899  0.58261  0.24229  1.0000
  C   C56       1.0  0.37867  0.52386  0.04963  1.0000
  C   C57       1.0  0.42219  0.68895  0.07062  1.0000
  C   C58       1.0  0.42316  0.65761  0.06124  1.0000
  C   C59       1.0  0.43817  0.65896  0.04038  1.0000
  C   C60       1.0  0.45056  0.69146  0.02848  1.0000
  C   C61       1.0  0.45002  0.72290  0.03790  1.0000
  C   C62       1.0  0.43656  0.72169  0.05917  1.0000
  H   H84       1.0  0.41253  0.63234  0.07011  1.0000
  H   H85       1.0  0.43973  0.63477  0.03340  1.0000
  C   C63       1.0  0.21174  0.57725  0.18276  1.0000
  H   H86       1.0  0.43643  0.74604  0.06655  1.0000
  C   C64       1.0  0.21209  0.58169  0.09536  1.0000
  C   C65       1.0  0.22534  0.57036  0.07664  1.0000
  C   C66       1.0  0.20639  0.56661  0.05791  1.0000
  C   C67       1.0  0.17434  0.57444  0.05798  1.0000
  C   C68       1.0  0.16086  0.58475  0.07691  1.0000
  C   C69       1.0  0.17948  0.58805  0.09557  1.0000
  H   H87       1.0  0.24995  0.56423  0.07677  1.0000
  H   H88       1.0  0.21640  0.55769  0.04348  1.0000
  H   H89       1.0  0.33306  0.53969  0.21522  1.0000
  H   H90       1.0  0.29888  0.61561  0.18329  1.0000
  C   C70       1.0  0.25678  0.53367  0.24180  1.0000
  C   C71       1.0  0.43861  0.55690  0.03970  1.0000
  C   C72       1.0  0.40813  0.55182  0.05289  1.0000
  H   H91       1.0  0.28421  0.67784  0.07649  1.0000
  S   S19       1.0  0.33966  0.51830  0.06499  1.0000
  C   C73       1.0  0.43187  0.55946  0.25873  1.0000
  H   H92       1.0  0.40745  0.56962  0.06548  1.0000
  C   C74       1.0  0.35217  0.62863  0.22102  1.0000
  C   C75       1.0  0.36598  0.64080  0.20014  1.0000
  C   C76       1.0  0.36819  0.61647  0.18471  1.0000
  C   C77       1.0  0.35610  0.57998  0.19010  1.0000
  C   C78       1.0  0.34250  0.56789  0.21099  1.0000
  H   H93       1.0  0.34284  0.68956  0.07004  1.0000
  N   N5        1.0  0.32964  0.71661  0.04210  1.0000
  H   H94       1.0  0.37246  0.73189  0.06293  1.0000
  H   H95       1.0  0.34279  0.66947  0.03330  1.0000
  C   C79       1.0  0.34439  0.71686  0.06357  1.0000
  H   H96       1.0  0.37682  0.70999  0.02703  1.0000
  S   S20       1.0  0.36279  0.58440  0.28061  1.0000
  C   C80       1.0  0.34803  0.69786  0.02768  1.0000
  H   H97       1.0  0.33104  0.72972  0.07542  1.0000
  H   H98       1.0  0.34000  0.69869  0.01082  1.0000
  S   S21       1.0  0.38475  0.66556  0.29802  1.0000
  C   C81       1.0  0.33737  0.75417  0.03374  1.0000
  C   C82       1.0  0.29161  0.69903  0.04272  1.0000
  C   C83       1.0  0.27228  0.68056  0.06153  1.0000
  C   C84       1.0  0.27282  0.69947  0.02396  1.0000
  H   H99       1.0  0.33106  0.75667  0.01665  1.0000
  H   H100      1.0  0.32237  0.76870  0.04334  1.0000
  C   C85       1.0  0.31683  0.62016  0.98962  1.0000
  C   C86       1.0  0.23633  0.66466  0.06151  1.0000
  C   C87       1.0  0.23693  0.68299  0.02406  1.0000
  C   C88       1.0  0.27903  0.61204  0.02191  1.0000
  H   H101      1.0  0.20350  0.59832  0.19100  1.0000
  C   C89       1.0  0.33630  0.59876  0.99894  1.0000
  C   C90       1.0  0.21869  0.66569  0.04283  1.0000
  C   C91       1.0  0.35787  0.55070  0.98725  1.0000
  C   C92       1.0  0.42124  0.56002  0.22076  1.0000
  H   H102      1.0  0.13601  0.59060  0.07708  1.0000
  H   H103      1.0  0.33134  0.53831  0.98183  1.0000
  H   H104      1.0  0.26423  0.63572  0.18678  1.0000
  H   H105      1.0  0.42282  0.57236  0.20476  1.0000
  S   S22       1.0  0.46591  0.69227  0.00170  1.0000
  H   H106      1.0  0.25671  0.61649  0.03050  1.0000
  H   H107      1.0  0.34031  0.56922  0.02877  1.0000
  Fe  Fe9       1.0  0.31818  0.57224  0.30536  1.0000
  N   N6        1.0  0.36518  0.58982  0.98705  1.0000
  C   C93       1.0  0.43938  0.53449  0.02297  1.0000
  H   H108      1.0  0.27363  0.64221  0.99352  1.0000
  H   H109      1.0  0.45067  0.66628  0.24854  1.0000
  C   C94       1.0  0.45957  0.63315  0.21429  1.0000
  H   H110      1.0  0.23921  0.52444  0.17689  1.0000
  H   H111      1.0  0.41045  0.63272  0.24575  1.0000
  C   C95       1.0  0.24849  0.59104  0.24737  1.0000
  C   C96       1.0  0.49168  0.62207  0.24418  1.0000
  S   S23       1.0  0.30180  0.62067  0.29658  1.0000
  C   C97       1.0  0.41291  0.52359  0.26107  1.0000
  H   H112      1.0  0.35881  0.53866  0.00349  1.0000
  H   H113      1.0  0.25855  0.51837  0.20979  1.0000
  C   C98       1.0  0.25040  0.57136  0.21052  1.0000
  C   C99       1.0  0.24649  0.59679  0.22520  1.0000
  H   H114      1.0  0.39040  0.51059  0.20951  1.0000
  H   H115      1.0  0.28993  0.57954  0.04759  1.0000
  H   H116      1.0  0.19090  0.65258  0.04282  1.0000
  N   N7        1.0  0.24802  0.57801  0.18709  1.0000
  S   S24       1.0  0.30515  0.53838  0.11948  1.0000
  H   H117      1.0  0.24660  0.61137  0.25817  1.0000
  S   S25       1.0  0.21904  0.55542  0.99070  1.0000
  H   H118      1.0  0.47343  0.61961  0.20315  1.0000
  Fe  Fe10      1.0  0.45157  0.73353  0.98126  1.0000
  H   H119      1.0  0.28460  0.55009  0.17681  1.0000
  H   H120      1.0  0.24210  0.62150  0.21971  1.0000
  C   C100      1.0  0.29778  0.59131  0.03154  1.0000
  H   H121      1.0  0.37705  0.54245  0.97672  1.0000
  N   N8        1.0  0.45605  0.61712  0.23664  1.0000
  C   C101      1.0  0.27149  0.61339  0.17953  1.0000
  H   H122      1.0  0.42075  0.59901  0.98909  1.0000
  Fe  Fe11      1.0  0.16514  0.55181  0.00394  1.0000
  C   C102      1.0  0.25775  0.55138  0.17384  1.0000
  H   H123      1.0  0.22319  0.68333  0.00946  1.0000
  H   H124      1.0  0.27092  0.61834  0.16181  1.0000
  S   S26       1.0  0.15019  0.57249  0.03493  1.0000
  H   H125      1.0  0.46131  0.57866  0.04218  1.0000
  H   H126      1.0  0.43359  0.63193  0.20809  1.0000
  C   C103      1.0  0.43648  0.57890  0.23853  1.0000
  C   C104      1.0  0.43786  0.63715  0.25022  1.0000
  C   C105      1.0  0.28869  0.62660  0.00106  1.0000
  C   C106      1.0  0.32635  0.58518  0.02046  1.0000
  S   S27       1.0  0.47720  0.54208  0.00614  1.0000
  H   H127      1.0  0.46039  0.74815  0.02891  1.0000
  C   C107      1.0  0.25356  0.55953  0.25564  1.0000
  H   H128      1.0  0.25754  0.55806  0.15629  1.0000
  H   H129      1.0  0.49137  0.61473  0.26168  1.0000
  H   H130      1.0  0.47455  0.66177  0.21333  1.0000
  S   S28       1.0  0.42429  0.77304  0.99171  1.0000
  C   C108      1.0  0.40235  0.52413  0.22327  1.0000
  Fe  Fe12      1.0  0.39442  0.61333  0.30629  1.0000
  H   H131      1.0  0.44234  0.57203  0.27302  1.0000
  H   H132      1.0  0.19311  0.55124  0.18838  1.0000
  C   C109      1.0  0.25520  0.53928  0.21955  1.0000
  H   H133      1.0  0.43709  0.62920  0.26761  1.0000
  H   H134      1.0  0.26842  0.51522  0.04798  1.0000
  H   H135      1.0  0.39705  0.59340  0.01442  1.0000
  H   H136      1.0  0.25734  0.71247  0.97545  1.0000
  H   H137      1.0  0.40934  0.50955  0.27678  1.0000
  H   H138      1.0  0.26123  0.50943  0.24840  1.0000
  C   C110      1.0  0.39811  0.50597  0.24338  1.0000
  C   C111      1.0  0.40989  0.50653  0.01970  1.0000
  S   S29       1.0  0.27845  0.51912  0.30780  1.0000
  H   H139      1.0  0.22056  0.57978  0.30670  1.0000
  H   H140      1.0  0.36569  0.75793  0.51379  1.0000
  S   S30       1.0  0.35108  0.59599  0.33196  1.0000
  H   H141      1.0  0.44486  0.64113  0.46676  1.0000
  C   C112      1.0  0.34755  0.51988  0.37820  1.0000
  N   N9        1.0  0.34773  0.80198  0.50185  1.0000
  H   H142      1.0  0.32526  0.81879  0.46131  1.0000
  S   S31       1.0  0.31976  0.67537  0.34703  1.0000
  S   S32       1.0  0.18808  0.54937  0.47128  1.0000
  H   H143      1.0  0.22934  0.54647  0.37638  1.0000
  H   H144      1.0  0.39809  0.54226  0.31453  1.0000
  H   H145      1.0  0.44051  0.67758  0.53017  1.0000
  S   S33       1.0  0.15182  0.55995  0.42614  1.0000
  H   H146      1.0  0.40907  0.60703  0.51177  1.0000
  Fe  Fe13      1.0  0.20412  0.58138  0.43980  1.0000
  S   S34       1.0  0.23148  0.63975  0.43363  1.0000
  S   S35       1.0  0.48845  0.82433  0.43211  1.0000
  H   H147      1.0  0.12529  0.54853  0.34599  1.0000
  S   S36       1.0  0.22773  0.54272  0.42407  1.0000
  H   H148      1.0  0.37821  0.83749  0.47614  1.0000
  Fe  Fe14      1.0  0.44149  0.79063  0.41729  1.0000
  S   S37       1.0  0.40357  0.79662  0.44347  1.0000
  S   S38       1.0  0.43896  0.79850  0.38166  1.0000
  S   S39       1.0  0.48711  0.56126  0.45763  1.0000
  S   S40       1.0  0.45835  0.77729  0.47733  1.0000
  C   C113      1.0  0.15123  0.56642  0.34256  1.0000
  Fe  Fe15      1.0  0.41308  0.74781  0.45901  1.0000
  S   S41       1.0  0.37295  0.70359  0.47789  1.0000
  Fe  Fe16      1.0  0.45151  0.82564  0.45980  1.0000
  S   S42       1.0  0.44651  0.73898  0.43125  1.0000
  H   H149      1.0  0.39785  0.80038  0.51281  1.0000
  H   H150      1.0  0.30685  0.73344  0.51125  1.0000
  H   H151      1.0  0.31116  0.53127  0.42639  1.0000
  Fe  Fe17      1.0  0.33833  0.64587  0.32134  1.0000
  S   S43       1.0  0.39466  0.57309  0.46487  1.0000
  Fe  Fe18      1.0  0.43174  0.54819  0.44837  1.0000
  C   C114      1.0  0.42971  0.67542  0.51397  1.0000
  H   H152      1.0  0.25999  0.65205  0.38889  1.0000
  S   S44       1.0  0.44577  0.56527  0.41365  1.0000
  H   H153      1.0  0.16934  0.65430  0.37898  1.0000
  S   S45       1.0  0.45399  0.87563  0.47662  1.0000
  H   H154      1.0  0.21101  0.68587  0.34839  1.0000
  S   S46       1.0  0.08332  0.51152  0.47135  1.0000
  H   H155      1.0  0.26870  0.55281  0.46797  1.0000
  H   H156      1.0  0.24623  0.72140  0.45605  1.0000
  H   H157      1.0  0.47651  0.70200  0.39812  1.0000
  H   H158      1.0  0.24420  0.69781  0.36764  1.0000
  C   C115      1.0  0.37532  0.78394  0.50449  1.0000
  H   H159      1.0  0.45134  0.61513  0.37447  1.0000
  C   C116      1.0  0.27207  0.65528  0.44495  1.0000
  C   C117      1.0  0.27953  0.63871  0.46372  1.0000
  C   C118      1.0  0.31082  0.65348  0.47359  1.0000
  C   C119      1.0  0.33507  0.68437  0.46447  1.0000
  C   C120      1.0  0.32818  0.70021  0.44527  1.0000
  C   C121      1.0  0.29657  0.68586  0.43564  1.0000
  H   H160      1.0  0.26070  0.61517  0.47104  1.0000
  H   H161      1.0  0.31608  0.64106  0.48842  1.0000
  H   H162      1.0  0.34672  0.72406  0.43816  1.0000
  H   H163      1.0  0.29084  0.69890  0.42119  1.0000
  H   H164      1.0  0.33012  0.59036  0.46601  1.0000
  N   N10       1.0  0.44743  0.65566  0.49975  1.0000
  H   H165      1.0  0.23389  0.60660  0.38969  1.0000
  H   H166      1.0  0.20481  0.66844  0.39624  1.0000
  H   H167      1.0  0.18189  0.62284  0.39675  1.0000
  Fe  Fe19      1.0  0.17427  0.51884  0.41285  1.0000
  H   H168      1.0  0.25205  0.67687  0.34426  1.0000
  H   H169      1.0  0.26335  0.62495  0.36709  1.0000
  H   H170      1.0  0.45045  0.61607  0.52409  1.0000
  H   H171      1.0  0.27618  0.55528  0.34737  1.0000
  C   C122      1.0  0.28502  0.77192  0.45714  1.0000
  H   H172      1.0  0.32239  0.78012  0.53288  1.0000
  H   H173      1.0  0.33506  0.53559  0.36757  1.0000
  H   H174      1.0  0.47986  0.54663  0.37258  1.0000
  C   C123      1.0  0.26631  0.73798  0.46526  1.0000
  H   H175      1.0  0.31072  0.81801  0.52209  1.0000
  C   C124      1.0  0.32013  0.78040  0.48894  1.0000
  H   H176      1.0  0.46406  0.68009  0.34221  1.0000
  C   C125      1.0  0.35215  0.71080  0.35618  1.0000
  C   C126      1.0  0.37945  0.73106  0.34217  1.0000
  C   C127      1.0  0.40573  0.75863  0.34999  1.0000
  C   C128      1.0  0.40505  0.76537  0.37186  1.0000
  C   C129      1.0  0.37781  0.74500  0.38586  1.0000
  C   C130      1.0  0.35101  0.71819  0.37792  1.0000
  C   C131      1.0  0.31157  0.79299  0.46872  1.0000
  H   H177      1.0  0.42680  0.77447  0.33915  1.0000
  H   H178      1.0  0.37729  0.75009  0.40276  1.0000
  H   H179      1.0  0.32995  0.70249  0.38878  1.0000
  C   C132      1.0  0.44497  0.57285  0.32816  1.0000
  C   C133      1.0  0.48579  0.67104  0.49750  1.0000
  C   C134      1.0  0.46244  0.54525  0.35965  1.0000
  H   H180      1.0  0.44501  0.60002  0.49746  1.0000
  H   H181      1.0  0.37406  0.53719  0.38111  1.0000
  C   C135      1.0  0.41642  0.54292  0.32686  1.0000
  Fe  Fe20      1.0  0.13788  0.52367  0.45602  1.0000
  C   C136      1.0  0.46887  0.57333  0.34393  1.0000
  H   H182      1.0  0.38553  0.77840  0.48859  1.0000
  H   H183      1.0  0.24645  0.62469  0.33150  1.0000
  H   H184      1.0  0.14938  0.59288  0.37119  1.0000
  N   N11       1.0  0.44563  0.66761  0.37564  1.0000
  C   C137      1.0  0.24566  0.51494  0.32814  1.0000
  S   S47       1.0  0.44873  0.61097  0.31157  1.0000
  C   C138      1.0  0.43929  0.67094  0.35242  1.0000
  C   C139      1.0  0.41317  0.65496  0.38968  1.0000
  C   C140      1.0  0.37938  0.64575  0.38149  1.0000
  C   C141      1.0  0.41472  0.65135  0.41236  1.0000
  C   C142      1.0  0.34924  0.63444  0.39520  1.0000
  C   C143      1.0  0.38437  0.64016  0.42592  1.0000
  C   C144      1.0  0.35172  0.63184  0.41738  1.0000
  C   C145      1.0  0.32415  0.53848  0.41007  1.0000
  H   H185      1.0  0.30911  0.55368  0.40105  1.0000
  H   H186      1.0  0.45050  0.72216  0.38181  1.0000
  C   C146      1.0  0.41118  0.51392  0.34181  1.0000
  H   H187      1.0  0.40112  0.66217  0.51614  1.0000
  C   C147      1.0  0.46670  0.64234  0.37810  1.0000
  H   H188      1.0  0.42451  0.69051  0.34926  1.0000
  C   C148      1.0  0.46640  0.70302  0.38185  1.0000
  H   H189      1.0  0.42478  0.64495  0.34647  1.0000
  H   H190      1.0  0.37541  0.64801  0.36456  1.0000
  H   H191      1.0  0.43943  0.65749  0.41977  1.0000
  H   H192      1.0  0.32381  0.62866  0.38854  1.0000
  H   H193      1.0  0.38601  0.63805  0.44319  1.0000
  H   H194      1.0  0.32834  0.62356  0.42802  1.0000
  N   N12       1.0  0.21643  0.64192  0.36845  1.0000
  C   C149      1.0  0.19180  0.64698  0.38573  1.0000
  C   C150      1.0  0.24463  0.63098  0.37893  1.0000
  C   C151      1.0  0.23143  0.67702  0.35666  1.0000
  C   C152      1.0  0.20007  0.61491  0.35335  1.0000
  C   C153      1.0  0.16553  0.59209  0.35701  1.0000
  C   C154      1.0  0.21942  0.60968  0.33474  1.0000
  C   C155      1.0  0.25132  0.53578  0.34603  1.0000
  C   C156      1.0  0.27440  0.72468  0.48482  1.0000
  H   H195      1.0  0.35246  0.82320  0.53331  1.0000
  C   C157      1.0  0.35161  0.54603  0.46763  1.0000
  H   H196      1.0  0.47563  0.64081  0.39462  1.0000
  H   H197      1.0  0.38014  0.72578  0.32530  1.0000
  C   C158      1.0  0.30097  0.74540  0.49648  1.0000
  H   H198      1.0  0.40461  0.64436  0.47901  1.0000
  C   C159      1.0  0.22488  0.53073  0.36249  1.0000
  C   C160      1.0  0.43314  0.51586  0.35887  1.0000
  C   C161      1.0  0.43343  0.65629  0.47820  1.0000
  H   H199      1.0  0.43174  0.70245  0.50686  1.0000
  H   H200      1.0  0.35050  0.55663  0.41247  1.0000
  C   C162      1.0  0.43783  0.61827  0.50874  1.0000
  H   H201      1.0  0.34560  0.85378  0.48994  1.0000
  C   C163      1.0  0.32437  0.56178  0.46748  1.0000
  H   H202      1.0  0.38530  0.85386  0.50209  1.0000
  H   H203      1.0  0.43893  0.68390  0.47112  1.0000
  H   H204      1.0  0.26066  0.69770  0.49062  1.0000
  C   C164      1.0  0.28967  0.54057  0.46860  1.0000
  C   C165      1.0  0.36468  0.83827  0.49203  1.0000
  H   H205      1.0  0.27926  0.78173  0.44160  1.0000
  C   C166      1.0  0.33264  0.80595  0.52346  1.0000
  H   H206      1.0  0.16003  0.54171  0.31354  1.0000
  H   H207      1.0  0.49072  0.65002  0.36716  1.0000
  C   C167      1.0  0.17079  0.56244  0.32429  1.0000
  C   C168      1.0  0.20486  0.58396  0.32042  1.0000
  H   H208      1.0  0.48587  0.94446  0.49236  1.0000
  Fe  Fe21      1.0  0.44503  0.50876  0.40993  1.0000
  H   H209      1.0  0.48971  0.71454  0.37065  1.0000
  H   H210      1.0  0.48864  0.72332  0.50971  1.0000
  H   H211      1.0  0.49126  0.59625  0.34475  1.0000
  N   N13       1.0  0.32634  0.50687  0.39860  1.0000
  Fe  Fe22      1.0  0.49099  0.77310  0.44803  1.0000
  H   H212      1.0  0.48992  0.69654  0.44733  1.0000
  Fe  Fe23      1.0  0.20758  0.50881  0.45441  1.0000
  C   C169      1.0  0.34420  0.50908  0.46963  1.0000
  H   H213      1.0  0.49101  0.63893  0.43290  1.0000
  H   H214      1.0  0.05971  0.51106  0.40391  1.0000
  S   S48       1.0  0.23727  0.60642  0.93391  1.0000
  C   C170      1.0  0.26263  0.64597  0.94358  1.0000
  C   C171      1.0  0.29818  0.65807  0.93731  1.0000
  Fe  Fe24      1.0  0.20061  0.57054  0.95912  1.0000
  S   S49       1.0  0.36557  0.53302  0.92711  1.0000
  H   H215      1.0  0.35651  0.56733  0.88734  1.0000
  C   C172      1.0  0.30358  0.56556  0.88530  1.0000
  H   H216      1.0  0.30951  0.64269  0.92682  1.0000
  C   C173      1.0  0.31928  0.68907  0.94538  1.0000
  S   S50       1.0  0.45205  0.56950  0.95178  1.0000
  Fe  Fe25      1.0  0.44922  0.75184  0.93419  1.0000
  H   H217      1.0  0.47166  0.69279  0.93820  1.0000
  H   H218      1.0  0.25132  0.57024  0.88464  1.0000
  C   C174      1.0  0.27888  0.58431  0.88420  1.0000
  C   C175      1.0  0.37042  0.60367  0.96421  1.0000
  H   H219      1.0  0.27011  0.63567  0.88289  1.0000
  C   C176      1.0  0.28956  0.62126  0.88316  1.0000
  C   C177      1.0  0.33898  0.58364  0.88600  1.0000
  H   H220      1.0  0.34668  0.69812  0.94066  1.0000
  S   S51       1.0  0.14870  0.57258  0.97306  1.0000
  H   H221      1.0  0.43807  0.63409  0.89402  1.0000
  C   C178      1.0  0.48416  0.68536  0.92420  1.0000
  C   C179      1.0  0.41075  0.61828  0.89177  1.0000
  C   C180      1.0  0.26917  0.51053  0.95514  1.0000
  Fe  Fe26      1.0  0.41564  0.52390  0.93692  1.0000
  H   H222      1.0  0.34652  0.59287  0.95529  1.0000
  S   S52       1.0  0.42132  0.79299  0.93990  1.0000
  C   C181      1.0  0.38788  0.66082  0.90908  1.0000
  Fe  Fe27      1.0  0.45893  0.80950  0.96580  1.0000
  Fe  Fe28      1.0  0.12975  0.51509  0.96600  1.0000
  C   C182      1.0  0.40165  0.66706  0.87073  1.0000
  H   H223      1.0  0.38748  0.68746  0.86887  1.0000
  C   C183      1.0  0.24784  0.66559  0.95733  1.0000
  S   S53       1.0  0.46650  0.73861  0.90164  1.0000
  H   H224      1.0  0.40057  0.65339  0.85541  1.0000
  H   H225      1.0  0.33168  0.66824  0.88373  1.0000
  C   C184      1.0  0.32491  0.63961  0.88376  1.0000
  C   C185      1.0  0.35063  0.62131  0.88586  1.0000
  H   H226      1.0  0.24883  0.52341  0.95530  1.0000
  H   H227      1.0  0.32235  0.63170  0.97340  1.0000
  N   N14       1.0  0.38718  0.64123  0.88923  1.0000
  H   H228      1.0  0.39166  0.59579  0.95555  1.0000
  H   H229      1.0  0.41177  0.60283  0.87734  1.0000
  H   H230      1.0  0.37388  0.64277  0.92287  1.0000
  H   H231      1.0  0.41489  0.67320  0.91364  1.0000
  C   C186      1.0  0.30479  0.70818  0.95963  1.0000
  H   H232      1.0  0.37572  0.68287  0.90726  1.0000
  S   S54       1.0  0.33143  0.74473  0.97178  1.0000
  H   H233      1.0  0.42938  0.68203  0.87272  1.0000
  H   H234      1.0  0.22021  0.65663  0.96186  1.0000
  C   C187      1.0  0.26886  0.69704  0.96507  1.0000
  H   H235      1.0  0.37787  0.63315  0.96291  1.0000
  S   S55       1.0  0.41324  0.71077  0.95701  1.0000
  Fe  Fe29      1.0  0.38902  0.75365  0.96515  1.0000
  H   H236      1.0  0.40260  0.59949  0.90618  1.0000
  H   H237      1.0  0.02124  0.53632  0.96782  1.0000
  Fe  Fe30      1.0  0.49268  0.56278  0.92812  1.0000
  S   S56       1.0  0.48969  0.77153  0.95786  1.0000
  C   C188      1.0  0.32710  0.51067  0.94222  1.0000
  C   C189      1.0  0.29935  0.52558  0.94199  1.0000
  H   H238      1.0  0.29520  0.53677  0.88637  1.0000
  S   S57       1.0  0.45521  0.52066  0.91123  1.0000
  H   H239      1.0  0.49451  0.64097  0.94107  1.0000
  H   H240      1.0  0.30152  0.54962  0.93217  1.0000
  S   S58       1.0  0.18003  0.51488  0.94926  1.0000
  Fe  Fe31      1.0  0.46601  0.52798  0.97223  1.0000
  S   S59       1.0  0.47990  0.86808  0.97047  1.0000
  C   C190      1.0  0.48669  0.70455  0.90443  1.0000
  H   H241      1.0  0.47117  0.86236  0.92436  1.0000
  C   C191      1.0  0.49398  0.86776  0.91330  1.0000
  H   H242      1.0  0.48854  0.81262  0.90901  1.0000
  H   H243      1.0  0.89889  0.46479  0.98571  1.0000
  C   C192      1.0  0.74826  0.23182  0.98856  1.0000
  C   C193      1.0  0.96290  0.40662  0.97864  1.0000
  H   H244      1.0  0.65089  0.03780  0.03179  1.0000
  C   C194      1.0  0.92584  0.47910  0.98162  1.0000
  S   S60       1.0  0.72526  0.33201  0.98268  1.0000
  H   H245      1.0  0.77046  0.25273  0.04815  1.0000
  H   H246      1.0  0.79715  0.14904  0.97908  1.0000
  C   C195      1.0  0.76404  0.24653  0.03179  1.0000
  H   H247      1.0  0.60462  0.02484  0.03556  1.0000
  C   C196      1.0  0.78276  0.22824  0.01983  1.0000
  C   C197      1.0  0.73700  0.25683  0.02267  1.0000
  H   H248      1.0  0.96047  0.40867  0.99636  1.0000
  H   H249      1.0  0.68089  0.01373  0.00529  1.0000
  H   H250      1.0  0.53414  0.41797  0.98842  1.0000
  H   H251      1.0  0.78995  0.20621  0.99011  1.0000
  C   C198      1.0  0.77485  0.22068  0.99862  1.0000
  H   H252      1.0  0.72247  0.27126  0.03189  1.0000
  H   H253      1.0  0.80376  0.22004  0.02688  1.0000
  H   H254      1.0  0.63417  0.17686  0.98386  1.0000
  H   H255      1.0  0.89801  0.40554  0.99171  1.0000
  H   H256      1.0  0.78762  0.31066  0.98687  1.0000
  H   H257      1.0  0.64383  0.04711  0.99234  1.0000
  C   C199      1.0  0.72881  0.24925  0.00149  1.0000
  H   H258      1.0  0.70758  0.25809  0.99553  1.0000
  H   H259      1.0  0.95643  0.37791  0.97539  1.0000
  C   C200      1.0  0.62725  0.01454  0.03186  1.0000
  S   S61       1.0  0.57391  0.36966  0.97884  1.0000
  C   C201      1.0  0.62096  0.02301  0.99386  1.0000
  H   H260      1.0  0.59777  0.03274  0.99677  1.0000
  H   H261      1.0  0.70156  0.17579  0.97520  1.0000
  H   H262      1.0  0.61865  0.01091  0.97801  1.0000
  C   C202      1.0  0.56591  0.15796  0.63355  1.0000
  S   S62       1.0  0.59663  0.04363  0.49031  1.0000
  Fe  Fe32      1.0  0.69459  0.06807  0.50332  1.0000
  S   S63       1.0  0.66912  0.10915  0.49260  1.0000
  S   S64       1.0  0.75197  0.08240  0.50903  1.0000
  Fe  Fe33      1.0  0.62479  0.07865  0.51525  1.0000
  S   S65       1.0  0.59848  0.11101  0.53492  1.0000
  Fe  Fe34      1.0  0.64372  0.07056  0.46886  1.0000
  S   S66       1.0  0.63982  0.08412  0.43395  1.0000
  S   S67       1.0  0.65198  0.03987  0.52794  1.0000
  S   S68       1.0  0.67309  0.03175  0.47736  1.0000
  Fe  Fe35      1.0  0.64936  0.32835  0.46907  1.0000
  S   S69       1.0  0.65147  0.33519  0.43313  1.0000
  S   S70       1.0  0.69078  0.35482  0.49081  1.0000
  Fe  Fe36      1.0  0.57671  0.27804  0.47203  1.0000
  S   S71       1.0  0.57209  0.28009  0.43635  1.0000
  S   S72       1.0  0.53289  0.24640  0.49450  1.0000
  Fe  Fe37      1.0  0.62688  0.27618  0.43476  1.0000
  S   S73       1.0  0.64515  0.24347  0.41060  1.0000
  Fe  Fe38      1.0  0.59670  0.33860  0.43808  1.0000
  S   S74       1.0  0.57623  0.37711  0.41866  1.0000
  S   S75       1.0  0.62933  0.26889  0.47046  1.0000
  S   S76       1.0  0.59668  0.33669  0.47408  1.0000
  Fe  Fe39      1.0  0.86513  0.28239  0.47927  1.0000
  S   S77       1.0  0.83837  0.31761  0.49570  1.0000
  S   S78       1.0  0.83118  0.23180  0.46699  1.0000
  Fe  Fe40      1.0  0.93616  0.33890  0.47787  1.0000
  S   S79       1.0  0.91421  0.37852  0.49384  1.0000
  H   H263      1.0  0.81790  0.18391  0.42657  1.0000
  Fe  Fe41      1.0  0.88500  0.33173  0.51556  1.0000
  S   S80       1.0  0.88051  0.33297  0.55147  1.0000
  Fe  Fe42      1.0  0.87026  0.36034  0.47218  1.0000
  S   S81       1.0  0.84570  0.39443  0.45226  1.0000
  S   S82       1.0  0.90961  0.29282  0.50113  1.0000
  S   S83       1.0  0.89433  0.32434  0.45434  1.0000
  S   S84       1.0  0.71863  0.29036  0.62156  1.0000
  Fe  Fe43      1.0  0.62661  0.27588  0.59934  1.0000
  S   S85       1.0  0.67203  0.27088  0.57875  1.0000
  S   S86       1.0  0.57062  0.26165  0.59129  1.0000
  Fe  Fe44      1.0  0.68383  0.24205  0.60794  1.0000
  S   S87       1.0  0.69586  0.19025  0.60487  1.0000
  Fe  Fe45      1.0  0.70229  0.31980  0.59405  1.0000
  S   S88       1.0  0.73742  0.36402  0.57254  1.0000
  H   H264      1.0  0.52588  0.31390  0.56628  1.0000
  S   S89       1.0  0.65550  0.32776  0.61202  1.0000
  C   C203      1.0  0.84412  0.34700  0.55894  1.0000
  C   C204      1.0  0.82583  0.33458  0.57869  1.0000
  C   C205      1.0  0.79331  0.34036  0.58316  1.0000
  C   C206      1.0  0.77961  0.35960  0.56822  1.0000
  C   C207      1.0  0.79927  0.37433  0.54919  1.0000
  C   C208      1.0  0.83116  0.36741  0.54432  1.0000
  H   H265      1.0  0.83605  0.31915  0.59013  1.0000
  H   H266      1.0  0.77900  0.33006  0.59821  1.0000
  H   H267      1.0  0.78940  0.39034  0.53796  1.0000
  H   H268      1.0  0.84552  0.37753  0.52917  1.0000
  C   C209      1.0  0.95884  0.44811  0.41388  1.0000
  H   H269      1.0  0.52833  0.10482  0.51818  1.0000
  C   C210      1.0  0.54443  0.24832  0.52129  1.0000
  C   C211      1.0  0.57941  0.26029  0.52637  1.0000
  C   C212      1.0  0.58796  0.26247  0.54797  1.0000
  C   C213      1.0  0.56148  0.25383  0.56441  1.0000
  C   C214      1.0  0.52667  0.24094  0.55929  1.0000
  C   C215      1.0  0.52759  0.41229  0.42666  1.0000
  H   H270      1.0  0.59980  0.26826  0.51371  1.0000
  H   H271      1.0  0.61483  0.27176  0.55185  1.0000
  C   C216      1.0  0.53293  0.10520  0.50037  1.0000
  H   H272      1.0  0.49846  0.14977  0.51325  1.0000
  C   C217      1.0  0.55483  0.40082  0.43483  1.0000
  H   H273      1.0  0.56845  0.19437  0.49359  1.0000
  H   H274      1.0  0.77870  0.24980  0.38442  1.0000
  C   C218      1.0  0.56626  0.41046  0.45520  1.0000
  C   C219      1.0  0.57677  0.46734  0.38776  1.0000
  H   H275      1.0  0.58804  0.40280  0.46128  1.0000
  C   C220      1.0  0.73366  0.36966  0.47964  1.0000
  C   C221      1.0  0.76085  0.37264  0.49338  1.0000
  C   C222      1.0  0.79540  0.38137  0.48498  1.0000
  C   C223      1.0  0.80288  0.38748  0.46279  1.0000
  C   C224      1.0  0.77577  0.38569  0.44902  1.0000
  C   C225      1.0  0.74107  0.37659  0.45746  1.0000
  H   H276      1.0  0.75497  0.36712  0.51050  1.0000
  H   H277      1.0  0.81630  0.38339  0.49568  1.0000
  H   H278      1.0  0.78154  0.39050  0.43184  1.0000
  N   N15       1.0  0.63862  0.38122  0.54339  1.0000
  C   C226      1.0  0.62446  0.13137  0.55529  1.0000
  C   C227      1.0  0.65342  0.12055  0.56107  1.0000
  C   C228      1.0  0.67431  0.13743  0.57717  1.0000
  C   C229      1.0  0.66705  0.16610  0.58691  1.0000
  C   C230      1.0  0.63795  0.17677  0.58122  1.0000
  C   C231      1.0  0.61645  0.15917  0.56561  1.0000
  H   H279      1.0  0.65977  0.09912  0.55322  1.0000
  H   H280      1.0  0.69675  0.12903  0.58152  1.0000
  H   H281      1.0  0.63151  0.19820  0.58907  1.0000
  H   H282      1.0  0.59393  0.16752  0.56134  1.0000
  C   C232      1.0  0.77618  0.12659  0.50219  1.0000
  C   C233      1.0  0.81117  0.13376  0.49488  1.0000
  C   C234      1.0  0.82960  0.16771  0.48611  1.0000
  C   C235      1.0  0.81330  0.19479  0.48500  1.0000
  C   C236      1.0  0.77920  0.18837  0.49399  1.0000
  C   C237      1.0  0.76063  0.15427  0.50256  1.0000
  H   H283      1.0  0.82343  0.11252  0.49485  1.0000
  H   H284      1.0  0.85576  0.17233  0.47900  1.0000
  H   H285      1.0  0.76649  0.20914  0.49347  1.0000
  H   H286      1.0  0.73407  0.14921  0.50899  1.0000
  C   C238      1.0  0.63927  0.12807  0.42828  1.0000
  C   C239      1.0  0.64195  0.14077  0.40679  1.0000
  C   C240      1.0  0.64377  0.17627  0.40167  1.0000
  C   C241      1.0  0.64180  0.19903  0.41798  1.0000
  C   C242      1.0  0.63809  0.18617  0.43956  1.0000
  C   C243      1.0  0.63713  0.15070  0.44472  1.0000
  H   H287      1.0  0.64332  0.12335  0.39402  1.0000
  H   H288      1.0  0.64638  0.18608  0.38499  1.0000
  H   H289      1.0  0.63599  0.20347  0.45220  1.0000
  H   H290      1.0  0.63396  0.14077  0.46134  1.0000
  S   S90       1.0  0.63633  0.24349  0.62739  1.0000
  C   C244      1.0  0.57808  0.34563  0.55666  1.0000
  C   C245      1.0  0.82798  0.22996  0.53680  1.0000
  H   H291      1.0  0.51840  0.40459  0.41103  1.0000
  H   H292      1.0  0.59064  0.16081  0.49543  1.0000
  C   C246      1.0  0.55071  0.43182  0.46724  1.0000
  C   C247      1.0  0.60073  0.12048  0.62198  1.0000
  H   H293      1.0  0.68104  0.35721  0.54223  1.0000
  H   H294      1.0  0.92827  0.40180  0.54710  1.0000
  H   H295      1.0  0.51082  0.08442  0.49441  1.0000
  C   C248      1.0  0.57272  0.13431  0.61917  1.0000
  H   H296      1.0  0.56203  0.16580  0.51732  1.0000
  C   C249      1.0  0.65820  0.40748  0.52613  1.0000
  C   C250      1.0  0.65198  0.34971  0.54289  1.0000
  C   C251      1.0  0.73390  0.21728  0.54757  1.0000
  H   H297      1.0  0.60641  0.10269  0.61044  1.0000
  C   C252      1.0  0.96714  0.39110  0.42319  1.0000
  H   H298      1.0  0.53713  0.37586  0.50663  1.0000
  H   H299      1.0  0.64453  0.12022  0.63990  1.0000
  H   H300      1.0  0.50345  0.17622  0.48888  1.0000
  H   H301      1.0  0.59921  0.39893  0.51015  1.0000
  H   H302      1.0  0.71573  0.23367  0.55024  1.0000
  C   C253      1.0  0.74205  0.19969  0.39487  1.0000
  H   H303      1.0  0.72079  0.20514  0.38641  1.0000
  H   H304      1.0  0.96542  0.38550  0.56889  1.0000
  H   H305      1.0  0.58825  0.33534  0.57053  1.0000
  C   C254      1.0  0.97960  0.43156  0.53286  1.0000
  H   H306      1.0  0.91789  0.40280  0.42705  1.0000
  H   H307      1.0  0.89827  0.44474  0.53567  1.0000
  H   H308      1.0  0.54506  0.08808  0.46262  1.0000
  H   H309      1.0  0.83760  0.25756  0.53129  1.0000
  C   C255      1.0  0.64658  0.39766  0.56425  1.0000
  N   N16       1.0  0.53614  0.14078  0.48994  1.0000
  H   H310      1.0  0.55612  0.09405  0.42392  1.0000
  C   C256      1.0  0.51227  0.43392  0.43859  1.0000
  H   H311      1.0  0.54453  0.16930  0.63100  1.0000
  N   N17       1.0  0.73187  0.26039  0.46213  1.0000
  C   C257      1.0  0.71535  0.28272  0.44896  1.0000
  C   C258      1.0  0.76695  0.28248  0.46723  1.0000
  C   C259      1.0  0.73693  0.23189  0.44862  1.0000
  C   C260      1.0  0.70978  0.24692  0.48217  1.0000
  C   C261      1.0  0.69008  0.21074  0.48619  1.0000
  C   C262      1.0  0.70579  0.27072  0.49788  1.0000
  C   C263      1.0  0.66712  0.19978  0.50446  1.0000
  C   C264      1.0  0.68235  0.25968  0.51581  1.0000
  C   C265      1.0  0.66282  0.22429  0.51903  1.0000
  H   H312      1.0  0.71018  0.30451  0.45806  1.0000
  H   H313      1.0  0.73189  0.29524  0.43428  1.0000
  H   H314      1.0  0.68990  0.26677  0.44358  1.0000
  H   H315      1.0  0.76638  0.30788  0.47409  1.0000
  H   H316      1.0  0.78521  0.29036  0.45266  1.0000
  H   H317      1.0  0.77900  0.26788  0.47878  1.0000
  H   H318      1.0  0.71198  0.21602  0.44244  1.0000
  H   H319      1.0  0.75445  0.24317  0.43415  1.0000
  H   H320      1.0  0.74931  0.21406  0.45753  1.0000
  H   H321      1.0  0.69152  0.19056  0.47531  1.0000
  H   H322      1.0  0.71979  0.29851  0.49599  1.0000
  H   H323      1.0  0.65204  0.17221  0.50731  1.0000
  H   H324      1.0  0.67886  0.27894  0.52700  1.0000
  H   H325      1.0  0.64436  0.21583  0.53284  1.0000
  H   H326      1.0  0.55078  0.42061  0.37174  1.0000
  C   C266      1.0  0.55403  0.44877  0.37310  1.0000
  H   H327      1.0  0.87583  0.22075  0.52484  1.0000
  C   C267      1.0  0.80829  0.15825  0.55082  1.0000
  C   C268      1.0  0.60045  0.36986  0.54106  1.0000
  C   C269      1.0  0.58454  0.38086  0.52302  1.0000
  H   H328      1.0  0.49986  0.33321  0.53427  1.0000
  N   N18       1.0  0.75681  0.12581  0.43159  1.0000
  C   C270      1.0  0.73923  0.09520  0.41904  1.0000
  C   C271      1.0  0.78899  0.11896  0.43937  1.0000
  C   C272      1.0  0.73376  0.12685  0.45061  1.0000
  C   C273      1.0  0.76362  0.15970  0.41846  1.0000
  C   C274      1.0  0.73658  0.16767  0.40707  1.0000
  C   C275      1.0  0.79614  0.18656  0.41764  1.0000
  H   H329      1.0  0.75420  0.09530  0.40354  1.0000
  H   H330      1.0  0.73627  0.06936  0.42814  1.0000
  H   H331      1.0  0.71223  0.09492  0.41537  1.0000
  H   H332      1.0  0.80794  0.11890  0.42578  1.0000
  H   H333      1.0  0.78330  0.09296  0.44879  1.0000
  H   H334      1.0  0.80191  0.13903  0.45059  1.0000
  H   H335      1.0  0.70789  0.12904  0.44603  1.0000
  H   H336      1.0  0.72907  0.10256  0.46157  1.0000
  H   H337      1.0  0.74559  0.14999  0.46010  1.0000
  H   H338      1.0  0.71080  0.14933  0.40774  1.0000
  H   H339      1.0  0.72321  0.19353  0.55855  1.0000
  S   S91       1.0  0.50825  0.47455  0.47263  1.0000
  C   C276      1.0  0.56553  0.16656  0.49943  1.0000
  H   H340      1.0  0.68687  0.41495  0.52807  1.0000
  C   C277      1.0  0.80142  0.21850  0.40536  1.0000
  H   H341      1.0  0.56014  0.43997  0.48275  1.0000
  C   C278      1.0  0.54863  0.36779  0.52075  1.0000
  H   H342      1.0  0.55673  0.12725  0.60554  1.0000
  C   C279      1.0  0.77456  0.22491  0.39381  1.0000
  H   H343      1.0  0.75966  0.28602  0.54196  1.0000
  H   H344      1.0  0.76405  0.22008  0.58562  1.0000
  C   C280      1.0  0.85058  0.20914  0.53321  1.0000
  H   H345      1.0  0.77963  0.26640  0.52130  1.0000
  H   H346      1.0  0.85793  0.15713  0.53679  1.0000
  C   C281      1.0  0.54221  0.33299  0.55431  1.0000
  H   H347      1.0  0.63530  0.37886  0.57828  1.0000
  H   H348      1.0  0.82642  0.23864  0.40511  1.0000
  C   C282      1.0  0.77893  0.27091  0.53877  1.0000
  C   C283      1.0  0.84064  0.17333  0.54003  1.0000
  Fe  Fe46      1.0  0.66947  0.29454  0.63844  1.0000
  C   C284      1.0  0.54562  0.17488  0.45395  1.0000
  H   H349      1.0  0.80434  0.28897  0.54263  1.0000
  H   H350      1.0  0.75383  0.26082  0.57940  1.0000
  C   C285      1.0  0.94351  0.42575  0.53820  1.0000
  N   N19       1.0  0.77025  0.23678  0.55191  1.0000
  H   H351      1.0  0.95288  0.35929  0.53457  1.0000
  C   C286      1.0  0.55242  0.11637  0.43234  1.0000
  C   C287      1.0  0.92603  0.45027  0.53172  1.0000
  C   C288      1.0  0.52755  0.34379  0.53631  1.0000
  H   H352      1.0  0.59340  0.47654  0.42968  1.0000
  C   C289      1.0  0.94401  0.48144  0.51987  1.0000
  H   H353      1.0  0.59049  0.45243  0.39720  1.0000
  C   C290      1.0  0.77167  0.24475  0.57490  1.0000
  H   H354      1.0  0.67526  0.40663  0.56624  1.0000
  C   C291      1.0  0.51818  0.23786  0.53777  1.0000
  H   H355      1.0  0.55497  0.20263  0.42263  1.0000
  C   C292      1.0  0.79436  0.21520  0.54730  1.0000
  H   H356      1.0  0.79854  0.25973  0.57871  1.0000
  C   C293      1.0  0.54244  0.14268  0.46624  1.0000
  H   H357      1.0  0.54364  0.19848  0.46156  1.0000
  H   H358      1.0  0.95681  0.36384  0.42951  1.0000
  H   H359      1.0  0.50615  0.23416  0.57197  1.0000
  C   C294      1.0  0.94531  0.41301  0.42184  1.0000
  C   C295      1.0  0.55523  0.14833  0.42082  1.0000
  C   C296      1.0  0.78568  0.17889  0.55477  1.0000
  H   H360      1.0  0.76149  0.16601  0.56387  1.0000
  H   H361      1.0  0.73211  0.20865  0.53079  1.0000
  H   H362      1.0  0.97454  0.41673  0.46846  1.0000
  H   H363      1.0  0.80050  0.13027  0.55600  1.0000
  H   H364      1.0  0.64336  0.33441  0.52851  1.0000
  H   H365      1.0  0.65444  0.39645  0.51000  1.0000
  H   H366      1.0  0.65008  0.43229  0.52603  1.0000
  H   H367      1.0  0.55737  0.09745  0.49773  1.0000
  C   C297      1.0  0.52408  0.44400  0.45879  1.0000
  H   H368      1.0  0.64279  0.33146  0.55742  1.0000
  H   H369      1.0  0.72016  0.37479  0.44679  1.0000
  H   H370      1.0  0.63618  0.42094  0.56557  1.0000
  H   H371      1.0  0.56094  0.15083  0.40356  1.0000
  C   C298      1.0  0.55190  0.17753  0.43161  1.0000
  C   C299      1.0  0.54621  0.11340  0.45473  1.0000
  H   H372      1.0  0.94167  0.46500  0.41277  1.0000
  C   C300      1.0  0.50325  0.14956  0.49551  1.0000
  C   C301      1.0  0.59198  0.50435  0.42865  1.0000
  Fe  Fe47      1.0  0.62773  0.00727  0.50093  1.0000
  H   H373      1.0  0.98200  0.37523  0.51134  1.0000
  H   H374      1.0  0.51640  0.45126  0.34993  1.0000
  C   C302      1.0  0.53474  0.46597  0.36084  1.0000
  C   C303      1.0  0.98078  0.37087  0.52914  1.0000
  C   C304      1.0  0.97957  0.48831  0.51463  1.0000
  H   H375      1.0  0.93031  0.50021  0.51465  1.0000
  H   H376      1.0  0.64222  0.49361  0.40271  1.0000
  C   C305      1.0  0.62249  0.13081  0.63891  1.0000
  H   H377      1.0  0.99402  0.35010  0.53282  1.0000
  C   C306      1.0  0.99312  0.39761  0.56306  1.0000
  H   H378      1.0  0.59407  0.00702  0.43864  1.0000
  C   C307      1.0  0.99428  0.46149  0.40746  1.0000
  S   S92       1.0  0.99382  0.35072  0.46946  1.0000
  C   C308      1.0  0.53865  0.50199  0.36287  1.0000
  H   H379      1.0  0.56440  0.50343  0.43281  1.0000
  C   C309      1.0  0.58075  0.50383  0.39070  1.0000
  H   H380      1.0  0.92760  0.43418  0.93480  1.0000
  S   S93       1.0  0.68972  0.09972  0.91468  1.0000
  Fe  Fe48      1.0  0.65386  0.05249  0.90067  1.0000
  S   S94       1.0  0.62892  0.04854  0.86902  1.0000
  H   H381      1.0  0.71709  0.32054  0.74316  1.0000
  S   S95       1.0  0.94411  0.33557  0.91019  1.0000
  S   S96       1.0  0.86801  0.27466  0.91776  1.0000
  Fe  Fe49      1.0  0.91992  0.27994  0.90098  1.0000
  S   S97       1.0  0.92083  0.27006  0.86581  1.0000
  S   S98       1.0  0.94018  0.25424  0.92856  1.0000
  Fe  Fe50      1.0  0.66335  0.36760  0.92075  1.0000
  S   S99       1.0  0.68208  0.40877  0.89358  1.0000
  H   H382      1.0  0.73590  0.32017  0.76841  1.0000
  Fe  Fe51      1.0  0.73920  0.22286  0.82113  1.0000
  S   S100      1.0  0.76114  0.26638  0.79566  1.0000
  S   S101      1.0  0.76577  0.19566  0.84420  1.0000
  Fe  Fe52      1.0  0.66487  0.21856  0.81283  1.0000
  S   S102      1.0  0.67909  0.26205  0.78680  1.0000
  S   S103      1.0  0.61033  0.18733  0.82292  1.0000
  Fe  Fe53      1.0  0.71899  0.23551  0.77558  1.0000
  S   S104      1.0  0.73259  0.22832  0.74088  1.0000
  Fe  Fe54      1.0  0.71979  0.28952  0.80867  1.0000
  S   S105      1.0  0.73402  0.34866  0.81026  1.0000
  S   S106      1.0  0.70112  0.18941  0.79989  1.0000
  S   S107      1.0  0.70145  0.24862  0.83598  1.0000
  H   H383      1.0  0.83269  0.33929  0.88438  1.0000
  S   S108      1.0  0.66250  0.30565  0.67305  1.0000
  C   C310      1.0  0.71072  0.24641  0.72163  1.0000
  C   C311      1.0  0.68166  0.25752  0.72765  1.0000
  C   C312      1.0  0.66680  0.27544  0.71256  1.0000
  C   C313      1.0  0.68021  0.28124  0.69118  1.0000
  C   C314      1.0  0.70821  0.26858  0.68482  1.0000
  C   C315      1.0  0.72362  0.25140  0.70009  1.0000
  H   H384      1.0  0.67069  0.25259  0.74395  1.0000
  H   H385      1.0  0.64488  0.28488  0.71747  1.0000
  H   H386      1.0  0.71880  0.27314  0.66835  1.0000
  H   H387      1.0  0.74610  0.24276  0.69533  1.0000
  C   C316      1.0  0.69530  0.39127  0.87043  1.0000
  C   C317      1.0  0.71558  0.41443  0.85409  1.0000
  C   C318      1.0  0.72722  0.40100  0.83567  1.0000
  C   C319      1.0  0.71830  0.36439  0.83340  1.0000
  C   C320      1.0  0.69731  0.34116  0.84955  1.0000
  C   C321      1.0  0.68592  0.35460  0.86814  1.0000
  H   H388      1.0  0.72275  0.44279  0.85581  1.0000
  H   H389      1.0  0.74330  0.41907  0.82320  1.0000
  H   H390      1.0  0.68945  0.31298  0.84764  1.0000
  H   H391      1.0  0.66952  0.33668  0.88053  1.0000
  H   H392      1.0  0.62659  0.12100  0.92573  1.0000
  H   H393      1.0  0.61271  0.17095  0.90610  1.0000
  C   C322      1.0  0.50096  0.41320  0.93886  1.0000
  H   H394      1.0  0.67171  0.47945  0.90514  1.0000
  C   C323      1.0  0.87830  0.24879  0.85905  1.0000
  C   C324      1.0  0.86461  0.26080  0.84082  1.0000
  C   C325      1.0  0.82990  0.24478  0.83609  1.0000
  C   C326      1.0  0.80928  0.21619  0.84929  1.0000
  C   C327      1.0  0.82337  0.20357  0.86710  1.0000
  C   C328      1.0  0.85759  0.22026  0.87220  1.0000
  H   H395      1.0  0.88070  0.28286  0.83063  1.0000
  H   H396      1.0  0.81927  0.25430  0.82216  1.0000
  H   H397      1.0  0.80766  0.18111  0.87718  1.0000
  H   H398      1.0  0.86822  0.21070  0.88613  1.0000
  S   S109      1.0  0.68792  0.01706  0.90629  1.0000
  C   C329      1.0  0.62222  0.08780  0.85810  1.0000
  C   C330      1.0  0.64370  0.12115  0.86268  1.0000
  C   C331      1.0  0.63979  0.15193  0.85208  1.0000
  C   C332      1.0  0.61355  0.14942  0.83756  1.0000
  C   C333      1.0  0.59120  0.11620  0.83371  1.0000
  C   C334      1.0  0.59594  0.08539  0.84367  1.0000
  H   H399      1.0  0.66394  0.12332  0.87385  1.0000
  H   H400      1.0  0.65714  0.17757  0.85513  1.0000
  H   H401      1.0  0.57110  0.11419  0.82238  1.0000
  H   H402      1.0  0.57932  0.05966  0.84007  1.0000
  C   C335      1.0  0.78659  0.41255  0.72202  1.0000
  H   H403      1.0  0.80284  0.42613  0.73418  1.0000
  S   S110      1.0  0.66641  0.38455  0.95459  1.0000
  N   N20       1.0  0.64053  0.16626  0.67128  1.0000
  H   H404      1.0  0.64969  0.20020  0.69808  1.0000
  H   H405      1.0  0.54624  0.35202  0.93732  1.0000
  H   H406      1.0  0.60481  0.18146  0.69333  1.0000
  C   C336      1.0  0.63227  0.36707  0.82499  1.0000
  H   H407      1.0  0.75310  0.04403  0.85824  1.0000
  C   C337      1.0  0.73532  0.33739  0.75390  1.0000
  H   H408      1.0  0.54224  0.27905  0.87671  1.0000
  H   H409      1.0  0.76557  0.09930  0.95788  1.0000
  H   H410      1.0  0.62668  0.24515  0.84945  1.0000
  C   C338      1.0  0.63200  0.14593  0.95601  1.0000
  N   N21       1.0  0.77904  0.30836  0.88142  1.0000
  C   C339      1.0  0.78021  0.31375  0.85770  1.0000
  C   C340      1.0  0.76769  0.33729  0.89132  1.0000
  C   C341      1.0  0.75447  0.27308  0.88789  1.0000
  C   C342      1.0  0.76597  0.24251  0.89200  1.0000
  C   C343      1.0  0.71783  0.26774  0.88852  1.0000
  C   C344      1.0  0.74229  0.20892  0.89657  1.0000
  C   C345      1.0  0.69440  0.23411  0.89329  1.0000
  C   C346      1.0  0.70658  0.20474  0.89722  1.0000
  H   H411      1.0  0.75417  0.31286  0.85191  1.0000
  H   H412      1.0  0.79837  0.33992  0.85188  1.0000
  H   H413      1.0  0.78881  0.29260  0.84970  1.0000
  H   H414      1.0  0.74436  0.34183  0.88416  1.0000
  H   H415      1.0  0.76920  0.23356  0.93480  1.0000
  H   H416      1.0  0.76180  0.33143  0.90895  1.0000
  H   H417      1.0  0.79322  0.24372  0.89145  1.0000
  H   H418      1.0  0.70682  0.28920  0.88478  1.0000
  H   H419      1.0  0.75181  0.18588  0.89906  1.0000
  H   H420      1.0  0.66658  0.23059  0.89350  1.0000
  H   H421      1.0  0.68826  0.17863  0.90045  1.0000
  C   C347      1.0  0.59834  0.33315  0.85599  1.0000
  C   C348      1.0  0.63368  0.33570  0.81598  1.0000
  C   C349      1.0  0.61462  0.36580  0.84492  1.0000
  H   H422      1.0  0.63204  0.21744  0.67568  1.0000
  H   H423      1.0  0.58580  0.33425  0.87154  1.0000
  Fe  Fe55      1.0  0.68205  0.33519  0.96175  1.0000
  Fe  Fe56      1.0  0.95981  0.30986  0.93943  1.0000
  H   H424      1.0  0.71239  0.03864  0.84633  1.0000
  C   C350      1.0  0.56413  0.26742  0.87937  1.0000
  C   C351      1.0  0.60786  0.46253  0.94498  1.0000
  H   H425      1.0  0.71836  0.17872  0.94776  1.0000
  C   C352      1.0  0.61194  0.24944  0.86406  1.0000
  S   S111      1.0  0.62750  0.30064  0.96956  1.0000
  S   S112      1.0  0.62049  0.03363  0.93107  1.0000
  H   H426      1.0  0.60147  0.22294  0.87284  1.0000
  C   C353      1.0  0.83338  0.15401  0.82088  1.0000
  H   H427      1.0  0.65021  0.11523  0.67662  1.0000
  C   C354      1.0  0.85567  0.14885  0.83647  1.0000
  H   H428      1.0  0.55276  0.24061  0.88764  1.0000
  C   C355      1.0  0.76294  0.41785  0.68724  1.0000
  H   H429      1.0  0.75023  0.38085  0.94575  1.0000
  N   N22       1.0  0.62136  0.46876  0.92217  1.0000
  H   H430      1.0  0.73204  0.09484  0.81108  1.0000
  N   N23       1.0  0.77074  0.35284  0.74353  1.0000
  C   C356      1.0  0.78484  0.32355  0.73695  1.0000
  C   C357      1.0  0.79320  0.37192  0.76012  1.0000
  C   C358      1.0  0.76875  0.37565  0.72434  1.0000
  C   C359      1.0  0.74808  0.36100  0.70723  1.0000
  C   C360      1.0  0.74515  0.38181  0.68905  1.0000
  H   H431      1.0  0.72874  0.36981  0.67636  1.0000
  H   H432      1.0  0.78690  0.30582  0.75098  1.0000
  H   H433      1.0  0.81118  0.33402  0.72863  1.0000
  H   H434      1.0  0.78311  0.39332  0.76658  1.0000
  H   H435      1.0  0.79375  0.35381  0.77434  1.0000
  H   H436      1.0  0.82067  0.38340  0.75373  1.0000
  H   H437      1.0  0.73374  0.33323  0.70785  1.0000
  H   H438      1.0  0.76796  0.30602  0.72584  1.0000
  H   H439      1.0  0.69526  0.19164  0.67481  1.0000
  H   H440      1.0  0.63096  0.26666  0.87433  1.0000
  C   C361      1.0  0.81511  0.31187  0.88785  1.0000
  H   H441      1.0  0.82785  0.29457  0.87887  1.0000
  H   H442      1.0  0.81526  0.30590  0.90546  1.0000
  H   H443      1.0  0.72370  0.35850  0.75912  1.0000
  H   H444      1.0  0.79186  0.21965  0.95535  1.0000
  S   S113      1.0  0.60738  0.33596  0.92457  1.0000
  C   C362      1.0  0.98443  0.48460  0.96724  1.0000
  H   H445      1.0  0.57207  0.23646  0.83007  1.0000
  H   H446      1.0  0.83809  0.14094  0.90373  1.0000
  H   H447      1.0  0.58143  0.28317  0.89107  1.0000
  Fe  Fe57      1.0  0.72128  0.06264  0.92288  1.0000
  Fe  Fe58      1.0  0.65974  0.07741  0.94579  1.0000
  C   C363      1.0  0.61760  0.30293  0.82692  1.0000
  S   S114      1.0  0.68422  0.32129  0.92733  1.0000
  Fe  Fe59      1.0  0.62818  0.29067  0.93440  1.0000
  H   H448      1.0  0.53788  0.25324  0.84062  1.0000
  C   C364      1.0  0.55914  0.24173  0.84517  1.0000
  H   H449      1.0  0.71237  0.23743  0.93956  1.0000
  Fe  Fe60      1.0  0.89012  0.25425  0.94626  1.0000
  Fe  Fe61      1.0  0.61164  0.34899  0.95923  1.0000
  C   C365      1.0  0.59936  0.30060  0.84727  1.0000
  H   H450      1.0  0.61553  0.41326  0.91817  1.0000
  C   C366      1.0  0.61758  0.17240  0.92304  1.0000
  C   C367      1.0  0.62565  0.14419  0.93412  1.0000
  H   H451      1.0  0.67224  0.49933  0.93097  1.0000
  S   S115      1.0  0.60850  0.23856  0.91929  1.0000
  C   C368      1.0  0.61643  0.20263  0.93374  1.0000
  C   C369      1.0  0.84602  0.17169  0.93183  1.0000
  C   C370      1.0  0.82887  0.14289  0.92008  1.0000
  H   H452      1.0  0.86845  0.19181  0.92455  1.0000
  H   H453      1.0  0.54708  0.21513  0.85353  1.0000
  N   N24       1.0  0.58377  0.26559  0.85887  1.0000
  Fe  Fe62      1.0  0.89347  0.32847  0.92895  1.0000
  H   H454      1.0  0.61673  0.43932  0.89362  1.0000
  H   H455      1.0  0.89724  0.37668  0.97030  1.0000
  H   H456      1.0  0.64833  0.33682  0.80078  1.0000
  C   C371      1.0  0.62966  0.17560  0.96688  1.0000
  H   H457      1.0  0.62031  0.27938  0.81956  1.0000
  H   H458      1.0  0.78798  0.36341  0.88901  1.0000
  C   C372      1.0  0.78364  0.43318  0.70367  1.0000
  S   S116      1.0  0.91104  0.30791  0.95923  1.0000
  H   H459      1.0  0.61329  0.12079  0.69199  1.0000
  C   C373      1.0  0.74061  0.05361  0.84450  1.0000
  H   H460      1.0  0.73625  0.13017  0.86586  1.0000
  C   C374      1.0  0.52854  0.40913  0.97242  1.0000
  H   H461      1.0  0.78192  0.14189  0.81068  1.0000
  H   H462      1.0  0.61446  0.39033  0.85214  1.0000
  H   H463      1.0  0.69600  0.08766  0.83050  1.0000
  C   C375      1.0  0.62217  0.20407  0.95570  1.0000
  C   C376      1.0  0.54360  0.38403  0.96406  1.0000
  C   C377      1.0  0.77399  0.23596  0.95208  1.0000
  C   C378      1.0  0.78784  0.11953  0.95055  1.0000
  C   C379      1.0  0.67663  0.18275  0.66206  1.0000
  H   H464      1.0  0.67803  0.20636  0.65117  1.0000
  H   H465      1.0  0.88288  0.16426  0.83528  1.0000
  C   C380      1.0  0.79786  0.13547  0.82287  1.0000
  C   C381      1.0  0.80211  0.37771  0.93743  1.0000
  H   H466      1.0  0.74470  0.09242  0.87887  1.0000
  C   C382      1.0  0.60731  0.43575  0.91088  1.0000
  C   C383      1.0  0.79973  0.11685  0.92942  1.0000
  H   H467      1.0  0.84230  0.32411  0.96383  1.0000
  S   S117      1.0  0.77874  0.08077  0.91469  1.0000
  S   S118      1.0  0.86621  0.37092  0.92575  1.0000
  C   C384      1.0  0.63117  0.19240  0.68512  1.0000
  H   H468      1.0  0.88467  0.41592  0.96528  1.0000
  H   H469      1.0  0.65698  0.14220  0.69922  1.0000
  C   C385      1.0  0.65984  0.47576  0.92191  1.0000
  C   C386      1.0  0.72426  0.10183  0.82727  1.0000
  H   H470      1.0  0.80634  0.39685  0.92383  1.0000
  N   N25       1.0  0.94017  0.42471  0.96737  1.0000
  H   H471      1.0  0.68686  0.16437  0.65244  1.0000
  C   C387      1.0  0.94492  0.42170  0.94385  1.0000
  H   H472      1.0  0.75187  0.04607  0.82941  1.0000
  N   N26       1.0  0.74583  0.09249  0.84414  1.0000
  C   C388      1.0  0.73207  0.10111  0.86504  1.0000
  H   H473      1.0  0.72619  0.13068  0.82672  1.0000
  H   H474      1.0  0.57838  0.42693  0.91161  1.0000
  H   H475      1.0  0.49683  0.44422  0.96598  1.0000
  C   C389      1.0  0.82781  0.36121  0.94223  1.0000
  H   H476      1.0  0.70366  0.08786  0.86780  1.0000
  C   C390      1.0  0.51444  0.38674  0.93098  1.0000
  H   H477      1.0  0.79848  0.08792  0.87007  1.0000
  H   H478      1.0  0.64571  0.39246  0.81679  1.0000
  S   S119      1.0  0.64446  0.11192  0.96965  1.0000
  C   C391      1.0  0.64022  0.13473  0.68536  1.0000
  C   C392      1.0  0.78355  0.11135  0.84086  1.0000
  C   C393      1.0  0.80726  0.10601  0.85607  1.0000
  H   H479      1.0  0.58058  0.18688  0.66103  1.0000
  H   H480      1.0  0.84342  0.17356  0.80762  1.0000
  H   H481      1.0  0.79736  0.46129  0.70219  1.0000
  H   H482      1.0  0.85993  0.12100  0.86622  1.0000
  H   H483      1.0  0.76055  0.43390  0.67310  1.0000
  C   C394      1.0  0.84268  0.12466  0.85394  1.0000
  C   C395      1.0  0.53591  0.37234  0.94351  1.0000
  H   H484      1.0  0.66727  0.45300  0.92956  1.0000
  C   C396      1.0  0.77044  0.36873  0.94982  1.0000
  H   H485      1.0  0.57900  0.45543  0.94654  1.0000
  H   H486      1.0  0.93860  0.39348  0.93963  1.0000
  C   C397      1.0  0.50756  0.42408  0.95972  1.0000
  C   C398      1.0  0.57394  0.49485  0.91059  1.0000
  H   H487      1.0  0.61519  0.44014  0.95326  1.0000
  H   H488      1.0  0.72685  0.27205  0.95766  1.0000
  C   C399      1.0  0.58713  0.16801  0.65078  1.0000
  C   C400      1.0  0.61001  0.49803  0.91191  1.0000
  C   C401      1.0  0.61660  0.15520  0.65375  1.0000
  C   C402      1.0  0.83467  0.17389  0.95313  1.0000
  S   S120      1.0  0.85559  0.20996  0.96791  1.0000
  C   C403      1.0  0.76520  0.34454  0.96765  1.0000
  C   C404      1.0  0.82253  0.33691  0.96000  1.0000
  H   H489      1.0  0.78836  0.26404  0.95441  1.0000
  H   H490      1.0  0.50888  0.37793  0.91497  1.0000
  H   H491      1.0  0.97206  0.43457  0.93748  1.0000
  S   S121      1.0  0.69450  0.04417  0.95536  1.0000
  H   H492      1.0  0.55416  0.47120  0.91686  1.0000
  C   C405      1.0  0.71671  0.24277  0.95675  1.0000
  H   H493      1.0  0.61783  0.48658  0.95416  1.0000
  C   C406      1.0  0.80572  0.14767  0.96253  1.0000
  H   H494      1.0  0.62060  0.22698  0.96414  1.0000
  N   N27       1.0  0.74110  0.22438  0.96585  1.0000
  H   H495      1.0  0.74376  0.17033  0.96923  1.0000
  C   C407      1.0  0.72560  0.18568  0.96440  1.0000
  H   H496      1.0  0.69053  0.23370  0.96526  1.0000
  C   C408      1.0  0.90344  0.40511  0.97407  1.0000
  C   C409      1.0  0.79154  0.32921  0.97300  1.0000
  C   C410      1.0  0.94987  0.46269  0.97217  1.0000
  H   H497      1.0  0.99084  0.41802  0.97346  1.0000
  C   C411      1.0  0.54459  0.61192  0.02211  1.0000
  N   N28       1.0  0.62474  0.99729  0.01106  1.0000
  C   C412      1.0  0.53060  0.93931  0.01801  1.0000
  H   H498      1.0  0.51113  0.88290  0.01522  1.0000
  H   H499      1.0  0.50776  0.65028  0.24190  1.0000
  H   H500      1.0  0.53617  0.69527  0.01196  1.0000
  C   C413      1.0  0.56702  0.90134  0.01058  1.0000
  H   H501      1.0  0.51880  0.68775  0.04990  1.0000
  C   C414      1.0  0.59664  0.93072  0.00913  1.0000
  H   H502      1.0  0.53332  0.58382  0.05326  1.0000
  H   H503      1.0  0.55078  0.58964  0.01510  1.0000
  H   H504      1.0  0.62107  0.92548  0.00486  1.0000
  C   C415      1.0  0.59090  0.64550  0.98220  1.0000
  H   H505      1.0  0.59557  0.62075  0.98905  1.0000
  C   C416      1.0  0.59403  0.96551  0.01229  1.0000
  C   C417      1.0  0.54495  0.64285  0.00932  1.0000
  H   H506      1.0  0.56941  0.87520  0.00744  1.0000
  C   C418      1.0  0.53480  0.60837  0.04410  1.0000
  H   H507      1.0  0.50479  0.94253  0.02089  1.0000
  N   N29       1.0  0.55403  0.64531  0.98585  1.0000
  C   C419      1.0  0.52662  0.66678  0.04218  1.0000
  H   H508      1.0  0.65872  0.97743  0.99035  1.0000
  H   H509      1.0  0.60865  0.66824  0.98984  1.0000
  C   C420      1.0  0.52550  0.63562  0.05408  1.0000
  H   H510      1.0  0.51691  0.63239  0.07099  1.0000
  H   H511      1.0  0.50349  0.61154  0.97974  1.0000
  H   H512      1.0  0.66354  0.97082  0.01886  1.0000
  C   C421      1.0  0.56004  0.96886  0.01678  1.0000
  C   C422      1.0  0.53649  0.67064  0.02018  1.0000
  H   H513      1.0  0.50544  0.60552  0.23532  1.0000
  H   H514      1.0  0.91748  0.52710  0.99322  1.0000
  C   C423      1.0  0.53411  0.90562  0.01496  1.0000
  H   H515      1.0  0.55590  0.99447  0.01908  1.0000
  H   H516      1.0  0.53633  0.58880  0.98116  1.0000
  C   C424      1.0  0.65834  0.98930  0.00625  1.0000
  H   H517      1.0  0.56722  0.70235  0.98015  1.0000
  C   C425      1.0  0.93618  0.51507  0.98600  1.0000
  H   H518      1.0  0.97840  0.56347  0.98455  1.0000
  H   H519      1.0  0.62851  0.99553  0.04539  1.0000
  H   H520      1.0  0.52216  0.67880  0.97653  1.0000
  C   C426      1.0  0.97045  0.53565  0.98112  1.0000
  C   C427      1.0  0.53154  0.61421  0.97574  1.0000
  H   H521      1.0  0.53764  0.97166  0.43174  1.0000
  C   C428      1.0  0.60462  0.56017  0.40850  1.0000
  H   H522      1.0  0.57390  0.87766  0.49058  1.0000
  H   H523      1.0  0.52911  0.92729  0.42351  1.0000
  C   C429      1.0  0.52100  0.87640  0.48466  1.0000
  C   C430      1.0  0.56436  0.92763  0.49684  1.0000
  C   C431      1.0  0.53939  0.94637  0.49742  1.0000
  H   H524      1.0  0.49608  0.62604  0.48193  1.0000
  S   S122      1.0  0.54337  0.76323  0.44843  1.0000
  H   H525      1.0  0.61422  0.57587  0.39303  1.0000
  C   C432      1.0  0.55485  0.89244  0.49083  1.0000
  C   C433      1.0  0.57433  0.68744  0.41848  1.0000
  H   H526      1.0  0.99356  0.51249  0.50529  1.0000
  H   H527      1.0  0.55640  0.88748  0.41289  1.0000
  H   H528      1.0  0.56903  0.83161  0.42201  1.0000
  C   C434      1.0  0.50271  0.70616  0.50310  1.0000
  H   H529      1.0  0.59731  0.74172  0.42610  1.0000
  C   C435      1.0  0.51396  0.66154  0.43098  1.0000
  C   C436      1.0  0.54318  0.66678  0.48433  1.0000
  S   S123      1.0  0.60788  0.94759  0.50282  1.0000
  C   C437      1.0  0.57397  0.71948  0.42734  1.0000
  H   H530      1.0  0.53719  0.93614  0.45092  1.0000
  C   C438      1.0  0.50715  0.65198  0.48780  1.0000
  C   C439      1.0  0.59236  0.96360  0.40668  1.0000
  H   H531      1.0  0.59533  0.97594  0.46014  1.0000
  C   C440      1.0  0.59221  0.91905  0.43483  1.0000
  H   H532      1.0  0.58665  0.71309  0.48661  1.0000
  H   H533      1.0  0.54632  0.97328  0.50246  1.0000
  C   C441      1.0  0.54440  0.65842  0.42038  1.0000
  H   H534      1.0  0.63109  0.93863  0.45867  1.0000
  C   C442      1.0  0.54334  0.72295  0.43746  1.0000
  H   H535      1.0  0.56254  0.54853  0.37849  1.0000
  N   N30       1.0  0.58323  0.95247  0.42975  1.0000
  C   C443      1.0  0.53877  0.72076  0.49948  1.0000
  H   H536      1.0  0.51433  0.84954  0.47951  1.0000
  C   C444      1.0  0.61722  0.91642  0.44988  1.0000
  H   H537      1.0  0.63042  0.98941  0.43947  1.0000
  H   H538      1.0  0.55869  0.65206  0.47625  1.0000
  H   H539      1.0  0.55101  0.74803  0.50312  1.0000
  H   H540      1.0  0.59794  0.68505  0.41037  1.0000
  H   H541      1.0  0.62196  0.57333  0.42102  1.0000
  S   S124      1.0  0.54544  0.61853  0.40931  1.0000
  N   N31       1.0  0.60388  0.52235  0.40708  1.0000
  H   H542      1.0  0.61121  0.82833  0.44907  1.0000
  C   C445      1.0  0.54522  0.94668  0.43407  1.0000
  C   C446      1.0  0.55895  0.70114  0.49011  1.0000
  C   C447      1.0  0.56149  0.52090  0.37742  1.0000
  C   C448      1.0  0.51325  0.69408  0.43910  1.0000
  H   H543      1.0  0.64937  0.53308  0.38541  1.0000
  H   H544      1.0  0.57716  0.94389  0.39591  1.0000
  C   C449      1.0  0.62407  0.88407  0.45480  1.0000
  H   H545      1.0  0.62053  0.96689  0.40268  1.0000
  H   H546      1.0  0.58711  0.98935  0.40241  1.0000
  C   C450      1.0  0.50513  0.92994  0.49186  1.0000
  H   H547      1.0  0.64227  0.88246  0.46693  1.0000
  C   C451      1.0  0.58272  0.85552  0.42960  1.0000
  C   C452      1.0  0.60663  0.85363  0.44482  1.0000
  C   C453      1.0  0.57558  0.88766  0.42459  1.0000
  H   H548      1.0  0.65849  0.53599  0.41347  1.0000
  C   C454      1.0  0.64005  0.52124  0.40193  1.0000
  C   C455      1.0  0.60163  0.98238  0.44257  1.0000
  C   C456      1.0  0.49604  0.89507  0.48519  1.0000
  Fe  Fe63      1.0  0.50075  0.57301  0.42243  1.0000
  H   H549      1.0  0.60787  0.51808  0.44161  1.0000
  H   H550      1.0  0.57825  0.56267  0.41310  1.0000
  H   H551      1.0  0.52323  0.51513  0.35346  1.0000
  S   S125      1.0  0.50134  0.51780  0.41596  1.0000
  C   C457      1.0  0.59548  0.92349  0.95435  1.0000
  C   C458      1.0  0.60204  0.95197  0.89353  1.0000
  H   H552      1.0  0.53098  0.65909  0.87452  1.0000
  H   H553      1.0  0.50579  0.70990  0.87123  1.0000
  H   H554      1.0  0.53470  0.51907  0.90058  1.0000
  S   S126      1.0  0.50987  0.52458  0.94959  1.0000
  C   C459      1.0  0.50378  0.83971  0.90473  1.0000
  C   C460      1.0  0.58341  0.88633  0.95575  1.0000
  H   H555      1.0  0.55364  0.97161  0.91663  1.0000
  H   H556      1.0  0.55556  0.67813  0.95675  1.0000
  H   H557      1.0  0.56989  0.00232  0.89405  1.0000
  C   C461      1.0  0.53614  0.92595  0.96135  1.0000
  H   H558      1.0  0.66175  0.53524  0.90343  1.0000
  C   C462      1.0  0.52413  0.88879  0.96311  1.0000
  H   H559      1.0  0.57580  0.88544  0.87441  1.0000
  C   C463      1.0  0.50364  0.69507  0.88653  1.0000
  Fe  Fe64      1.0  0.65751  0.00183  0.93802  1.0000
  C   C464      1.0  0.63386  0.53036  0.90328  1.0000
  N   N32       1.0  0.56550  0.94755  0.88790  1.0000
  C   C465      1.0  0.58641  0.55364  0.89320  1.0000
  H   H560      1.0  0.54072  0.82442  0.88422  1.0000
  C   C466      1.0  0.51403  0.64629  0.90795  1.0000
  C   C467      1.0  0.54410  0.91076  0.89397  1.0000
  H   H561      1.0  0.57697  0.93751  0.85490  1.0000
  C   C468      1.0  0.54777  0.86899  0.95996  1.0000
  H   H562      1.0  0.53780  0.95050  0.85940  1.0000
  C   C469      1.0  0.55317  0.88150  0.88534  1.0000
  H   H563      1.0  0.52625  0.97434  0.89457  1.0000
  C   C470      1.0  0.49717  0.65588  0.92584  1.0000
  C   C471      1.0  0.51781  0.66632  0.88838  1.0000
  H   H564      1.0  0.61853  0.97976  0.89008  1.0000
  H   H565      1.0  0.60329  0.94515  0.91092  1.0000
  C   C472      1.0  0.56245  0.52221  0.90131  1.0000
  H   H566      1.0  0.57985  0.98270  0.85927  1.0000
  S   S127      1.0  0.53038  0.60936  0.90979  1.0000
  H   H567      1.0  0.53597  0.61618  0.95789  1.0000
  H   H568      1.0  0.57725  0.57495  0.88627  1.0000
  C   C473      1.0  0.62202  0.55769  0.89413  1.0000
  C   C474      1.0  0.54958  0.67762  0.97443  1.0000
  H   H569      1.0  0.59877  0.64762  0.96469  1.0000
  C   C475      1.0  0.56499  0.95478  0.86435  1.0000
  H   H570      1.0  0.60170  0.87088  0.95376  1.0000
  H   H571      1.0  0.61483  0.93504  0.88440  1.0000
  H   H572      1.0  0.64052  0.58225  0.88775  1.0000
  C   C476      1.0  0.53329  0.84651  0.89077  1.0000
  C   C477      1.0  0.55312  0.97497  0.89882  1.0000
  C   C478      1.0  0.57167  0.94326  0.95684  1.0000
  H   H573      1.0  0.58059  0.97181  0.95599  1.0000
  H   H574      1.0  0.51795  0.94136  0.96394  1.0000
  H   H575      1.0  0.53881  0.84037  0.96137  1.0000
  C   C479      1.0  0.51378  0.90279  0.90818  1.0000
  S   S128      1.0  0.64052  0.94442  0.95014  1.0000
  H   H576      1.0  0.50490  0.92297  0.91589  1.0000
  C   C480      1.0  0.99451  0.52041  0.97172  1.0000
