data_image0
_chemical_formula_structural       HSHSFeSCHCFeS2FeS2FeHCNH2C2HC6H4CHC3H3CH4C2SCHC3HNSH3CHFeH2SFeHSCSHCH5CHNCHCHCH2CSC3HC2H3C3HCH3CSHFe2CFeCH3CHC3HCH2CS4HSHS2CH2CH2FeHC6H6CSCH3CHN2CHCHCH2FeCH3C4HSH2CH6CH2FeHCHCHCHCHCH2CHCHC3Fe2HCS2H4C3HS4FeS2HCH2SH2SCFe2S2CH2C2HFeS2HFeHCH2C6H4NC3H4C2HFe2HC2HCH4FeC7H2CFeCSHSCH5CHCH4C2HCNCHCSCHCHSCHCHCFeC2SHCH3SHSHCH4CHCFeS2CS2HC2HCH2C7H4NH2SHC2H2CHC2H2CHC2H2CHCH2CSH3CHSHSC4HNCH2FeH2NCHCH2CHCSHFeC2HCFeC2H3CFeCHCH2C2HSNH3NCFeH3FeS2FeS2FeSFeS3HSCSFeS2FeS2FeSFeS3HC7H4FeC3HC6H4C6H4C6HCH2C6H7CHNC8H12CH2CFeHCNH3NCH2CH3CHC3H5SHCHCHNCH2SCFeCH4NHC3HCH2C2SCH4CNC2HC2HCH2SH4CNC8H12CH4C2H3CSHCHCHCH4CHSC2HCHCHCHNH5CHCH2CSH2FeS2FeS2FeSFeS3CSFeS2FeS2FeSFeS5C6H4C6H4C2H3C6H4C6H4C6H4C3H2CSHCHC2HNHCHC2FeCNCH2C4H2CHCH7CH6CH4CHSCH3CH3C2HC2HNC3NC9H11C2H5CH2CH3CH3C3HCH5NHC2H5CFeCH2SHC2HCH2CHSFe2S2FeS2FeSFeS5FeS2FeS2FeSFeS3CSC6H4C3H2C6H4C6H5C3HC6H4C6H6CH8C2HCNC9H13NC5H2C2H2CHCH2CH3CHCNC8H12CHCH4CH2CHSFeNHNC2HCH2C4HCHCH2CH4CH2C2NH6SHC5HSHFeS2FeS2FeSFeS3FeS2FeS2FeSFeS4HC6H4C6H4CHCH2C6H4C3H2C6H4C6H9SH3FeCH5C2HC5NC6H2CH4CH9CH2C2HCH4CHCNHC2H6CNCH2C2FeSCHCHFeCHCHCH4NC9H12SHNCHCHCH4SNHC3HC3H7CSHSHNH3NS2FeS2C2SCHSH3C6H5CH8C2H5SCHNC3SCH2CH2C2HSHFe2CH5C3HCNCFeC2H2FeCHCHCHC3SCH2FeCH2C2H2C2HC2HSCFeHSFeSH4S2CHCH5C6H4CH2NHCSCNC2HC6HC2SHCH2FeCH3SH3CH2CH3CHCHC2HCHCH4C4H3CHCFeCHCHFeCHC3SCSCH5CFeCHFeS2FeSHSH2CSCSHFeSCH2C2HFeS2H2C10H4C3H3CH2C3S2CFeCSHN2C9FeHCH3CH2CH8FeH2C2H2CHCH3CH3FeCH5C2HCSCSC2H3C2FeHSCFeS2FeCSC2H3C2HC6H4CH5CHCHCN2HCFeSH3CHC3SHC4H2SH4CHCH2CH2C4H2CH2CHCH6CHNHSCHSH2CH2CH2C2H2S2
_chemical_formula_sum              "H864 S192 Fe96 C720 N48"
_cell_length_a       52.1686
_cell_length_b       52.0739
_cell_length_c       52.1065
_cell_angle_alpha    90.0368
_cell_angle_beta     90.17
_cell_angle_gamma    90.1797

_space_group_name_H-M_alt    "P 1"
_space_group_IT_number       1

loop_
  _space_group_symop_operation_xyz
  'x, y, z'

loop_
  _atom_site_type_symbol
  _atom_site_label
  _atom_site_symmetry_multiplicity
  _atom_site_fract_x
  _atom_site_fract_y
  _atom_site_fract_z
  _atom_site_occupancy
  H   H1        1.0  0.23996  0.42360  0.18424  1.0000
  S   S1        1.0  0.28832  0.44930  0.09816  1.0000
  H   H2        1.0  0.20292  0.39408  0.18118  1.0000
  S   S2        1.0  0.27308  0.10543  0.44714  1.0000
  Fe  Fe1       1.0  0.26629  0.14322  0.46819  1.0000
  S   S3        1.0  0.23019  0.16717  0.45734  1.0000
  C   C1        1.0  0.20622  0.40473  0.19877  1.0000
  H   H3        1.0  0.13369  0.42208  0.26982  1.0000
  C   C2        1.0  0.31847  0.99830  0.41884  1.0000
  Fe  Fe2       1.0  0.10327  0.44985  0.30570  1.0000
  S   S4        1.0  0.10280  0.40736  0.31578  1.0000
  S   S5        1.0  0.09697  0.46355  0.26493  1.0000
  Fe  Fe3       1.0  0.11444  0.33873  0.45311  1.0000
  S   S6        1.0  0.10868  0.29641  0.44621  1.0000
  S   S7        1.0  0.13480  0.36685  0.42669  1.0000
  Fe  Fe4       1.0  0.28802  0.08983  0.48449  1.0000
  H   H4        1.0  0.02339  0.33653  0.43757  1.0000
  C   C3        1.0  0.13924  0.15106  0.48044  1.0000
  N   N1        1.0  0.08394  0.21269  0.48047  1.0000
  H   H5        1.0  0.11078  0.12878  0.46055  1.0000
  H   H6        1.0  0.18068  0.45123  0.28173  1.0000
  C   C4        1.0  0.09471  0.23344  0.46431  1.0000
  C   C5        1.0  0.17980  0.23600  0.48404  1.0000
  H   H7        1.0  0.18107  0.45785  0.16237  1.0000
  C   C6        1.0  0.10950  0.39740  0.34768  1.0000
  C   C7        1.0  0.10051  0.37344  0.35639  1.0000
  C   C8        1.0  0.10697  0.36434  0.38108  1.0000
  C   C9        1.0  0.12312  0.37885  0.39701  1.0000
  C   C10       1.0  0.13199  0.40282  0.38831  1.0000
  C   C11       1.0  0.12492  0.41225  0.36397  1.0000
  H   H8        1.0  0.08866  0.36178  0.34387  1.0000
  H   H9        1.0  0.10022  0.34574  0.38740  1.0000
  H   H10       1.0  0.14455  0.41416  0.40043  1.0000
  H   H11       1.0  0.13200  0.43070  0.35755  1.0000
  C   C12       1.0  0.20941  0.32573  0.41817  1.0000
  H   H12       1.0  0.19948  0.42484  0.29433  1.0000
  C   C13       1.0  0.99765  0.47517  0.29062  1.0000
  C   C14       1.0  0.19218  0.20402  0.45201  1.0000
  C   C15       1.0  0.17671  0.22500  0.45966  1.0000
  H   H13       1.0  0.21130  0.27416  0.39792  1.0000
  H   H14       1.0  0.18944  0.19566  0.43319  1.0000
  H   H15       1.0  0.16228  0.23241  0.44676  1.0000
  C   C16       1.0  0.24402  0.25371  0.46137  1.0000
  H   H16       1.0  0.24311  0.02999  0.47543  1.0000
  H   H17       1.0  0.08113  0.24980  0.46254  1.0000
  H   H18       1.0  0.16624  0.42771  0.30205  1.0000
  H   H19       1.0  0.15554  0.46686  0.20161  1.0000
  C   C17       1.0  0.02370  0.35992  0.40363  1.0000
  C   C18       1.0  0.21124  0.19378  0.46834  1.0000
  S   S8        1.0  0.30586  0.15821  0.45844  1.0000
  C   C19       1.0  0.18914  0.40248  0.21931  1.0000
  H   H20       1.0  0.29776  0.06120  0.41487  1.0000
  C   C20       1.0  0.25610  0.01397  0.47753  1.0000
  C   C21       1.0  0.29540  0.03995  0.41645  1.0000
  C   C22       1.0  0.19783  0.32092  0.46233  1.0000
  H   H21       1.0  0.17250  0.29075  0.41042  1.0000
  N   N2        1.0  0.19967  0.30714  0.43742  1.0000
  S   S9        1.0  0.03491  0.28129  0.45732  1.0000
  H   H22       1.0  0.14912  0.44355  0.24748  1.0000
  H   H23       1.0  0.14080  0.41146  0.23816  1.0000
  H   H24       1.0  0.19059  0.37997  0.27804  1.0000
  C   C23       1.0  0.17160  0.38753  0.27192  1.0000
  H   H25       1.0  0.17291  0.38977  0.21686  1.0000
  Fe  Fe5       1.0  0.07197  0.30170  0.46881  1.0000
  H   H26       1.0  0.09891  0.22644  0.44458  1.0000
  H   H27       1.0  0.25271  0.24716  0.47913  1.0000
  S   S10       1.0  0.07518  0.47745  0.32261  1.0000
  Fe  Fe6       1.0  0.31330  0.11970  0.44047  1.0000
  H   H28       1.0  0.28464  0.03643  0.43456  1.0000
  S   S11       1.0  0.07626  0.34450  0.47231  1.0000
  C   C24       1.0  0.23117  0.43557  0.22272  1.0000
  S   S12       1.0  0.23174  0.47230  0.14536  1.0000
  H   H29       1.0  0.21780  0.44620  0.25941  1.0000
  C   C25       1.0  0.24721  0.23929  0.43911  1.0000
  H   H30       1.0  0.22950  0.33152  0.42263  1.0000
  H   H31       1.0  0.18531  0.33820  0.46086  1.0000
  H   H32       1.0  0.16398  0.37473  0.25663  1.0000
  H   H33       1.0  0.15812  0.38552  0.28843  1.0000
  H   H34       1.0  0.22638  0.28534  0.47940  1.0000
  C   C26       1.0  0.01188  0.34525  0.42256  1.0000
  H   H35       1.0  0.28335  0.03397  0.39984  1.0000
  N   N3        1.0  0.17374  0.41465  0.26340  1.0000
  C   C27       1.0  0.23540  0.24702  0.41642  1.0000
  H   H36       1.0  0.25826  0.22166  0.43966  1.0000
  C   C28       1.0  0.14827  0.42328  0.25427  1.0000
  H   H37       1.0  0.05960  0.19992  0.44931  1.0000
  C   C29       1.0  0.22719  0.42124  0.20049  1.0000
  H   H38       1.0  0.24709  0.44899  0.22361  1.0000
  H   H39       1.0  0.20906  0.31783  0.39837  1.0000
  C   C30       1.0  0.22031  0.26918  0.41592  1.0000
  S   S13       1.0  0.28970  0.46433  0.02472  1.0000
  C   C31       1.0  0.21408  0.43370  0.24328  1.0000
  C   C32       1.0  0.18932  0.46951  0.17749  1.0000
  C   C33       1.0  0.19253  0.41690  0.24223  1.0000
  H   H40       1.0  0.01392  0.46326  0.29546  1.0000
  C   C34       1.0  0.18048  0.43030  0.28632  1.0000
  C   C35       1.0  0.22875  0.27575  0.46119  1.0000
  H   H41       1.0  0.04433  0.36273  0.40398  1.0000
  H   H42       1.0  0.16002  0.31593  0.42979  1.0000
  H   H43       1.0  0.18923  0.30849  0.47747  1.0000
  C   C36       1.0  0.17337  0.29925  0.42995  1.0000
  C   C37       1.0  0.00898  0.37094  0.38423  1.0000
  C   C38       1.0  0.28667  0.47983  0.99427  1.0000
  H   H44       1.0  0.11291  0.24128  0.47233  1.0000
  C   C39       1.0  0.21643  0.28422  0.43833  1.0000
  H   H45       1.0  0.19747  0.34350  0.41761  1.0000
  H   H46       1.0  0.21692  0.32779  0.46903  1.0000
  H   H47       1.0  0.23762  0.23542  0.39928  1.0000
  C   C40       1.0  0.00446  0.29161  0.46857  1.0000
  S   S14       1.0  0.13727  0.47526  0.31265  1.0000
  H   H48       1.0  0.16570  0.28468  0.44359  1.0000
  Fe  Fe7       1.0  0.12805  0.29061  0.48451  1.0000
  Fe  Fe8       1.0  0.26938  0.48013  0.12257  1.0000
  C   C41       1.0  0.17472  0.47456  0.19986  1.0000
  Fe  Fe9       1.0  0.29126  0.47890  0.06642  1.0000
  C   C42       1.0  0.21438  0.47935  0.17442  1.0000
  H   H49       1.0  0.27640  0.99498  0.41894  1.0000
  H   H50       1.0  0.15360  0.13605  0.47986  1.0000
  H   H51       1.0  0.01832  0.38239  0.36954  1.0000
  C   C43       1.0  0.24759  0.98877  0.47207  1.0000
  H   H52       1.0  0.07866  0.16237  0.46067  1.0000
  C   C44       1.0  0.11514  0.14710  0.46950  1.0000
  C   C45       1.0  0.09680  0.16668  0.46972  1.0000
  C   C46       1.0  0.05835  0.20584  0.46980  1.0000
  H   H53       1.0  0.04499  0.22258  0.47010  1.0000
  C   C47       1.0  0.10223  0.19098  0.48107  1.0000
  H   H54       1.0  0.04909  0.19024  0.48109  1.0000
  H   H55       1.0  0.99090  0.48523  0.19987  1.0000
  C   C48       1.0  0.20233  0.43580  0.69026  1.0000
  S   S15       1.0  0.27286  0.46759  0.85104  1.0000
  S   S16       1.0  0.03198  0.46643  0.65395  1.0000
  S   S17       1.0  0.14079  0.45584  0.59052  1.0000
  S   S18       1.0  0.10712  0.46069  0.65951  1.0000
  H   H56       1.0  0.22875  0.19733  0.50557  1.0000
  S   S19       1.0  0.27851  0.12630  0.50651  1.0000
  H   H57       1.0  0.22566  0.42844  0.64746  1.0000
  S   S20       1.0  0.09085  0.29291  0.50658  1.0000
  S   S21       1.0  0.08499  0.35653  0.54561  1.0000
  C   C49       1.0  0.02240  0.40258  0.56098  1.0000
  H   H58       1.0  0.31614  0.99979  0.49831  1.0000
  H   H59       1.0  0.11976  0.47315  0.53585  1.0000
  C   C50       1.0  0.00865  0.36141  0.54569  1.0000
  H   H60       1.0  0.25043  0.01032  0.53822  1.0000
  H   H61       1.0  0.20132  0.23382  0.51936  1.0000
  Fe  Fe10      1.0  0.09716  0.33571  0.50909  1.0000
  H   H62       1.0  0.00834  0.34975  0.59661  1.0000
  C   C51       1.0  0.12494  0.42862  0.57775  1.0000
  C   C52       1.0  0.13474  0.41644  0.55581  1.0000
  C   C53       1.0  0.12262  0.39445  0.54556  1.0000
  C   C54       1.0  0.10082  0.38430  0.55745  1.0000
  C   C55       1.0  0.09115  0.39650  0.57946  1.0000
  C   C56       1.0  0.10292  0.41874  0.58936  1.0000
  H   H63       1.0  0.15178  0.42398  0.54671  1.0000
  H   H64       1.0  0.13027  0.38524  0.52863  1.0000
  H   H65       1.0  0.07458  0.38868  0.58907  1.0000
  H   H66       1.0  0.09522  0.42794  0.60629  1.0000
  H   H67       1.0  0.15921  0.41044  0.62689  1.0000
  H   H68       1.0  0.29261  0.46516  0.93029  1.0000
  C   C57       1.0  0.20620  0.41960  0.64740  1.0000
  S   S22       1.0  0.13572  0.33289  0.49039  1.0000
  C   C58       1.0  0.19871  0.22567  0.50043  1.0000
  H   H69       1.0  0.16877  0.46125  0.76255  1.0000
  H   H70       1.0  0.02228  0.37970  0.60667  1.0000
  H   H71       1.0  0.07358  0.20731  0.52007  1.0000
  C   C59       1.0  0.18295  0.45873  0.65527  1.0000
  H   H72       1.0  0.02564  0.41557  0.57764  1.0000
  N   N4        1.0  0.18852  0.43282  0.66540  1.0000
  N   N5        1.0  0.00735  0.37933  0.56785  1.0000
  C   C60       1.0  0.15161  0.40793  0.64599  1.0000
  H   H73       1.0  0.15776  0.42545  0.70905  1.0000
  C   C61       1.0  0.12842  0.39457  0.64808  1.0000
  H   H74       1.0  0.09810  0.38241  0.67322  1.0000
  C   C62       1.0  0.20536  0.47898  0.77120  1.0000
  H   H75       1.0  0.99997  0.37001  0.52816  1.0000
  H   H76       1.0  0.09949  0.48454  0.56057  1.0000
  Fe  Fe11      1.0  0.12135  0.47763  0.62275  1.0000
  C   C63       1.0  0.11640  0.39221  0.67179  1.0000
  H   H77       1.0  0.29796  0.44586  0.97354  1.0000
  H   H78       1.0  0.01256  0.41382  0.54572  1.0000
  H   H79       1.0  0.28163  0.03846  0.56017  1.0000
  C   C64       1.0  0.15083  0.41644  0.69169  1.0000
  C   C65       1.0  0.12748  0.40330  0.69349  1.0000
  C   C66       1.0  0.16401  0.41857  0.66791  1.0000
  C   C67       1.0  0.29713  0.99689  0.49045  1.0000
  H   H80       1.0  0.04182  0.39752  0.55367  1.0000
  S   S23       1.0  0.29056  0.04855  0.49961  1.0000
  H   H81       1.0  0.06502  0.23819  0.50709  1.0000
  H   H82       1.0  0.22155  0.44481  0.68784  1.0000
  C   C68       1.0  0.01983  0.36654  0.59001  1.0000
  H   H83       1.0  0.19206  0.44884  0.70361  1.0000
  H   H84       1.0  0.09747  0.23175  0.51504  1.0000
  H   H85       1.0  0.20830  0.39896  0.65255  1.0000
  H   H86       1.0  0.11939  0.38659  0.63107  1.0000
  H   H87       1.0  0.11759  0.40233  0.71175  1.0000
  H   H88       1.0  0.03931  0.35935  0.58498  1.0000
  C   C69       1.0  0.29189  0.46563  0.97187  1.0000
  H   H89       1.0  0.99230  0.41324  0.60543  1.0000
  H   H90       1.0  0.01934  0.32075  0.49387  1.0000
  Fe  Fe12      1.0  0.07189  0.48526  0.65378  1.0000
  H   H91       1.0  0.17005  0.46936  0.66847  1.0000
  C   C70       1.0  0.18277  0.47531  0.75641  1.0000
  H   H92       1.0  0.20068  0.47044  0.65297  1.0000
  C   C71       1.0  0.00131  0.48091  0.65840  1.0000
  H   H93       1.0  0.11654  0.48270  0.49317  1.0000
  C   C72       1.0  0.26690  0.00191  0.54776  1.0000
  H   H94       1.0  0.20503  0.41694  0.69991  1.0000
  C   C73       1.0  0.28452  0.01783  0.56011  1.0000
  H   H95       1.0  0.02884  0.35653  0.54066  1.0000
  C   C74       1.0  0.28880  0.47653  0.94724  1.0000
  H   H96       1.0  0.20848  0.46768  0.78831  1.0000
  H   H97       1.0  0.19964  0.42080  0.62711  1.0000
  C   C75       1.0  0.21436  0.20488  0.49266  1.0000
  H   H98       1.0  0.13262  0.21222  0.50086  1.0000
  C   C76       1.0  0.07987  0.22283  0.50679  1.0000
  H   H99       1.0  0.99903  0.34278  0.54997  1.0000
  C   C77       1.0  0.12688  0.19420  0.49225  1.0000
  C   C78       1.0  0.28078  0.01814  0.48729  1.0000
  C   C79       1.0  0.30617  0.00731  0.57165  1.0000
  Fe  Fe13      1.0  0.31450  0.45639  0.84589  1.0000
  Fe  Fe14      1.0  0.31819  0.13949  0.49554  1.0000
  H   H100      1.0  0.17315  0.45783  0.63627  1.0000
  C   C80       1.0  0.14503  0.17451  0.49191  1.0000
  S   S24       1.0  0.14853  0.48441  0.71650  1.0000
  S   S25       1.0  0.16029  0.26206  0.49539  1.0000
  H   H101      1.0  0.16392  0.17765  0.50014  1.0000
  H   H102      1.0  0.19636  0.48448  0.84970  1.0000
  H   H103      1.0  0.08809  0.48537  0.52815  1.0000
  H   H104      1.0  0.31428  0.36298  0.84047  1.0000
  C   C81       1.0  0.00226  0.31147  0.48650  1.0000
  C   C82       1.0  0.26372  0.96748  0.47584  1.0000
  C   C83       1.0  0.04751  0.61932  0.37466  1.0000
  H   H105      1.0  0.27495  0.94856  0.42071  1.0000
  S   S26       1.0  0.31111  0.83368  0.47641  1.0000
  S   S27       1.0  0.16723  0.49734  0.24844  1.0000
  S   S28       1.0  0.25136  0.93596  0.47053  1.0000
  S   S29       1.0  0.26945  0.50833  0.08941  1.0000
  Fe  Fe15      1.0  0.10772  0.65460  0.43885  1.0000
  S   S30       1.0  0.08764  0.69203  0.44722  1.0000
  S   S31       1.0  0.10952  0.64095  0.39750  1.0000
  H   H106      1.0  0.14456  0.53845  0.44032  1.0000
  C   C84       1.0  0.04260  0.60353  0.35346  1.0000
  H   H107      1.0  0.05455  0.52805  0.35107  1.0000
  H   H108      1.0  0.99178  0.55957  0.33993  1.0000
  S   S32       1.0  0.14275  0.66521  0.46192  1.0000
  H   H109      1.0  0.04325  0.57524  0.42227  1.0000
  H   H110      1.0  0.05266  0.63935  0.37192  1.0000
  S   S33       1.0  0.08862  0.63284  0.47073  1.0000
  C   C85       1.0  0.99903  0.67686  0.48441  1.0000
  Fe  Fe16      1.0  0.30817  0.52060  0.10469  1.0000
  Fe  Fe17      1.0  0.26872  0.83839  0.46710  1.0000
  S   S34       1.0  0.30720  0.49404  0.13878  1.0000
  S   S35       1.0  0.27667  0.87086  0.43883  1.0000
  C   C86       1.0  0.19499  0.79716  0.47670  1.0000
  H   H111      1.0  0.14671  0.57119  0.47479  1.0000
  H   H112      1.0  0.04380  0.61256  0.33488  1.0000
  C   C87       1.0  0.03751  0.56720  0.38203  1.0000
  C   C88       1.0  0.03733  0.57688  0.35655  1.0000
  H   H113      1.0  0.27431  0.51648  0.00862  1.0000
  Fe  Fe18      1.0  0.10874  0.50437  0.32665  1.0000
  S   S36       1.0  0.11137  0.52263  0.36633  1.0000
  S   S37       1.0  0.10401  0.52197  0.28755  1.0000
  H   H114      1.0  0.05073  0.58167  0.30470  1.0000
  Fe  Fe19      1.0  0.31820  0.86779  0.45064  1.0000
  H   H115      1.0  0.04772  0.71991  0.47410  1.0000
  C   C89       1.0  0.29340  0.95826  0.42022  1.0000
  H   H116      1.0  0.25196  0.60620  0.15205  1.0000
  H   H117      1.0  0.26765  0.54002  0.17394  1.0000
  C   C90       1.0  0.11065  0.60799  0.38914  1.0000
  C   C91       1.0  0.11296  0.60101  0.36317  1.0000
  C   C92       1.0  0.11328  0.57498  0.35576  1.0000
  C   C93       1.0  0.11099  0.55570  0.37431  1.0000
  C   C94       1.0  0.10847  0.56271  0.40022  1.0000
  C   C95       1.0  0.10850  0.58869  0.40767  1.0000
  H   H118      1.0  0.11467  0.61584  0.34874  1.0000
  H   H119      1.0  0.11560  0.56986  0.33579  1.0000
  H   H120      1.0  0.10629  0.54792  0.41460  1.0000
  H   H121      1.0  0.10655  0.59380  0.42768  1.0000
  N   N6        1.0  0.03268  0.55938  0.33459  1.0000
  C   C96       1.0  0.18876  0.74593  0.46073  1.0000
  C   C97       1.0  0.21214  0.75927  0.45655  1.0000
  C   C98       1.0  0.17160  0.78381  0.48089  1.0000
  H   H122      1.0  0.18665  0.72632  0.45427  1.0000
  H   H123      1.0  0.22777  0.74955  0.44707  1.0000
  H   H124      1.0  0.24384  0.50185  0.19273  1.0000
  H   H125      1.0  0.07578  0.74016  0.47660  1.0000
  C   C99       1.0  0.99561  0.68950  0.46097  1.0000
  C   C100      1.0  0.13882  0.53351  0.45971  1.0000
  H   H126      1.0  0.01212  0.69490  0.44968  1.0000
  Fe  Fe20      1.0  0.07050  0.67078  0.48072  1.0000
  Fe  Fe21      1.0  0.13022  0.49052  0.27257  1.0000
  H   H127      1.0  0.04812  0.75119  0.45985  1.0000
  C   C101      1.0  0.16821  0.75807  0.47301  1.0000
  C   C102      1.0  0.00154  0.49845  0.27781  1.0000
  H   H128      1.0  0.22897  0.58279  0.11567  1.0000
  C   C103      1.0  0.22462  0.49429  0.19440  1.0000
  H   H129      1.0  0.19708  0.81687  0.48292  1.0000
  H   H130      1.0  0.23343  0.54874  0.11244  1.0000
  H   H131      1.0  0.00342  0.53321  0.32099  1.0000
  H   H132      1.0  0.03472  0.54698  0.38580  1.0000
  Fe  Fe22      1.0  0.12171  0.70121  0.47282  1.0000
  C   C104      1.0  0.24218  0.56665  0.12009  1.0000
  C   C105      1.0  0.22346  0.56272  0.16271  1.0000
  C   C106      1.0  0.20565  0.54290  0.15669  1.0000
  C   C107      1.0  0.21757  0.57859  0.18414  1.0000
  C   C108      1.0  0.18338  0.53927  0.17111  1.0000
  C   C109      1.0  0.19534  0.57456  0.19860  1.0000
  C   C110      1.0  0.17836  0.55487  0.19217  1.0000
  H   H133      1.0  0.05219  0.62140  0.41559  1.0000
  H   H134      1.0  0.07246  0.54945  0.33119  1.0000
  C   C111      1.0  0.05343  0.54009  0.33349  1.0000
  Fe  Fe23      1.0  0.27292  0.89772  0.47274  1.0000
  C   C112      1.0  0.03193  0.57262  0.30933  1.0000
  S   S38       1.0  0.24605  0.80056  0.45910  1.0000
  H   H135      1.0  0.27003  0.58736  0.17515  1.0000
  S   S39       1.0  0.03270  0.50909  0.26854  1.0000
  C   C113      1.0  0.04732  0.60921  0.39938  1.0000
  H   H136      1.0  0.20930  0.52928  0.14146  1.0000
  H   H137      1.0  0.23004  0.59392  0.19045  1.0000
  H   H138      1.0  0.17048  0.52351  0.16657  1.0000
  H   H139      1.0  0.19142  0.58646  0.21522  1.0000
  H   H140      1.0  0.16157  0.55127  0.20390  1.0000
  C   C114      1.0  0.04235  0.58320  0.40307  1.0000
  H   H141      1.0  0.25425  0.52427  0.14642  1.0000
  C   C115      1.0  0.27854  0.50530  0.99166  1.0000
  H   H142      1.0  0.26008  0.56955  0.10874  1.0000
  H   H143      1.0  0.28242  0.54369  0.14308  1.0000
  H   H144      1.0  0.00779  0.53280  0.35473  1.0000
  H   H145      1.0  0.05074  0.52676  0.31704  1.0000
  C   C116      1.0  0.26365  0.54230  0.15307  1.0000
  C   C117      1.0  0.26307  0.58823  0.15496  1.0000
  H   H146      1.0  0.28068  0.58981  0.14290  1.0000
  C   C118      1.0  0.21559  0.78500  0.46452  1.0000
  N   N7        1.0  0.24763  0.56517  0.14806  1.0000
  C   C119      1.0  0.00785  0.54575  0.33781  1.0000
  H   H147      1.0  0.02790  0.55892  0.29334  1.0000
  C   C120      1.0  0.13020  0.50878  0.46525  1.0000
  S   S40       1.0  0.31782  0.56321  0.10564  1.0000
  C   C121      1.0  0.14011  0.55187  0.47910  1.0000
  H   H148      1.0  0.31472  0.92301  0.42259  1.0000
  C   C122      1.0  0.20996  0.49948  0.21670  1.0000
  H   H149      1.0  0.21816  0.51124  0.23177  1.0000
  S   S41       1.0  0.13817  0.74209  0.47946  1.0000
  C   C123      1.0  0.31577  0.94381  0.42143  1.0000
  H   H150      1.0  0.01663  0.58744  0.30870  1.0000
  C   C124      1.0  0.00125  0.76108  0.48197  1.0000
  H   H151      1.0  0.12922  0.49460  0.44998  1.0000
  C   C125      1.0  0.18485  0.48975  0.21970  1.0000
  Fe  Fe24      1.0  0.07132  0.49351  0.28292  1.0000
  C   C126      1.0  0.05439  0.74006  0.47690  1.0000
  C   C127      1.0  0.28883  0.97180  0.48434  1.0000
  S   S42       1.0  0.31446  0.89635  0.48292  1.0000
  H   H152      1.0  0.01039  0.77227  0.46712  1.0000
  C   C128      1.0  0.29456  0.98510  0.41914  1.0000
  H   H153      1.0  0.19266  0.68660  0.48220  1.0000
  H   H154      1.0  0.22815  0.98570  0.46541  1.0000
  H   H155      1.0  0.07344  0.77995  0.50418  1.0000
  S   S43       1.0  0.29211  0.52717  0.84237  1.0000
  H   H156      1.0  0.16631  0.70228  0.54699  1.0000
  S   S44       1.0  0.02991  0.67050  0.49756  1.0000
  H   H157      1.0  0.20912  0.77743  0.52696  1.0000
  C   C129      1.0  0.22453  0.54260  0.84093  1.0000
  H   H158      1.0  0.31635  0.57775  0.89586  1.0000
  H   H159      1.0  0.01534  0.51766  0.67116  1.0000
  H   H160      1.0  0.04416  0.78676  0.52116  1.0000
  H   H161      1.0  0.18212  0.73974  0.52999  1.0000
  C   C130      1.0  0.20221  0.73657  0.52624  1.0000
  H   H162      1.0  0.28423  0.90090  0.53964  1.0000
  C   C131      1.0  0.27986  0.50170  0.94459  1.0000
  Fe  Fe25      1.0  0.10450  0.53123  0.63758  1.0000
  S   S45       1.0  0.09652  0.57120  0.62199  1.0000
  S   S46       1.0  0.08925  0.51814  0.67614  1.0000
  C   C132      1.0  0.27493  0.51605  0.96697  1.0000
  S   S47       1.0  0.10284  0.68261  0.50716  1.0000
  S   S48       1.0  0.14521  0.62049  0.52132  1.0000
  H   H163      1.0  0.13393  0.51270  0.57470  1.0000
  C   C133      1.0  0.29325  0.96410  0.55752  1.0000
  C   C134      1.0  0.20654  0.67093  0.54394  1.0000
  H   H164      1.0  0.10378  0.55307  0.54674  1.0000
  C   C135      1.0  0.23924  0.71035  0.51661  1.0000
  H   H165      1.0  0.30391  0.90377  0.58068  1.0000
  H   H166      1.0  0.25703  0.96449  0.53565  1.0000
  C   C136      1.0  0.01591  0.74855  0.50125  1.0000
  C   C137      1.0  0.11013  0.58405  0.59367  1.0000
  C   C138      1.0  0.13502  0.57785  0.58596  1.0000
  C   C139      1.0  0.14565  0.58944  0.56396  1.0000
  C   C140      1.0  0.13131  0.60686  0.54917  1.0000
  C   C141      1.0  0.10634  0.61284  0.55672  1.0000
  C   C142      1.0  0.09595  0.60172  0.57905  1.0000
  H   H167      1.0  0.14629  0.56466  0.59735  1.0000
  H   H168      1.0  0.16506  0.58487  0.55836  1.0000
  H   H169      1.0  0.09512  0.62627  0.54556  1.0000
  H   H170      1.0  0.07678  0.60682  0.58503  1.0000
  N   N8        1.0  0.19695  0.68791  0.52320  1.0000
  H   H171      1.0  0.26795  0.53551  0.96525  1.0000
  H   H172      1.0  0.20135  0.53301  0.88402  1.0000
  S   S49       1.0  0.25214  0.50397  0.78262  1.0000
  H   H173      1.0  0.27812  0.92854  0.52048  1.0000
  C   C143      1.0  0.19642  0.50784  0.72651  1.0000
  C   C144      1.0  0.21893  0.51166  0.74142  1.0000
  H   H174      1.0  0.19323  0.51920  0.70943  1.0000
  H   H175      1.0  0.23278  0.52596  0.73548  1.0000
  C   C145      1.0  0.31048  0.98084  0.57054  1.0000
  H   H176      1.0  0.21858  0.56299  0.83885  1.0000
  C   C146      1.0  0.24339  0.75662  0.51830  1.0000
  C   C147      1.0  0.21754  0.75858  0.52451  1.0000
  H   H177      1.0  0.13716  0.52697  0.76212  1.0000
  H   H178      1.0  0.15392  0.50226  0.54876  1.0000
  C   C148      1.0  0.00209  0.73388  0.51966  1.0000
  H   H179      1.0  0.26016  0.92282  0.54958  1.0000
  C   C149      1.0  0.30027  0.92487  0.58157  1.0000
  C   C150      1.0  0.19874  0.67402  0.49840  1.0000
  H   H180      1.0  0.22653  0.66452  0.54052  1.0000
  H   H181      1.0  0.16068  0.70469  0.51276  1.0000
  C   C151      1.0  0.17222  0.54193  0.77812  1.0000
  H   H182      1.0  0.30165  0.95574  0.48666  1.0000
  C   C152      1.0  0.21262  0.71167  0.52215  1.0000
  H   H183      1.0  0.28197  0.92777  0.59211  1.0000
  H   H184      1.0  0.12735  0.50021  0.79994  1.0000
  C   C153      1.0  0.18823  0.53251  0.86707  1.0000
  S   S50       1.0  0.14209  0.51050  0.64200  1.0000
  H   H185      1.0  0.20614  0.68094  0.56282  1.0000
  H   H186      1.0  0.22223  0.49247  0.82864  1.0000
  H   H187      1.0  0.15809  0.67449  0.52872  1.0000
  C   C154      1.0  0.13292  0.54553  0.50413  1.0000
  H   H188      1.0  0.09004  0.52878  0.56601  1.0000
  S   S51       1.0  0.08534  0.49960  0.61552  1.0000
  H   H189      1.0  0.19462  0.65316  0.54566  1.0000
  S   S52       1.0  0.26202  0.86571  0.49998  1.0000
  C   C155      1.0  0.14451  0.51203  0.79993  1.0000
  C   C156      1.0  0.12384  0.52058  0.51051  1.0000
  C   C157      1.0  0.05677  0.73634  0.52260  1.0000
  C   C158      1.0  0.16934  0.69270  0.52816  1.0000
  H   H190      1.0  0.07806  0.73821  0.52197  1.0000
  N   N9        1.0  0.11625  0.51450  0.53723  1.0000
  C   C159      1.0  0.22363  0.49741  0.76400  1.0000
  H   H191      1.0  0.14798  0.53579  0.55361  1.0000
  H   H192      1.0  0.17273  0.51873  0.87200  1.0000
  Fe  Fe26      1.0  0.30451  0.86262  0.50756  1.0000
  H   H193      1.0  0.07946  0.53277  0.53331  1.0000
  H   H194      1.0  0.24856  0.69215  0.51339  1.0000
  N   N10       1.0  0.20202  0.52521  0.84328  1.0000
  C   C160      1.0  0.99848  0.50616  0.66719  1.0000
  H   H195      1.0  0.20670  0.55258  0.79660  1.0000
  C   C161      1.0  0.25426  0.73255  0.51450  1.0000
  H   H196      1.0  0.17671  0.55306  0.76112  1.0000
  H   H197      1.0  0.17943  0.55187  0.86510  1.0000
  C   C162      1.0  0.10538  0.48827  0.54036  1.0000
  H   H198      1.0  0.22544  0.49718  0.86274  1.0000
  C   C163      1.0  0.18435  0.52631  0.82098  1.0000
  S   S53       1.0  0.27385  0.51568  0.91385  1.0000
  H   H199      1.0  0.21846  0.66734  0.49419  1.0000
  Fe  Fe27      1.0  0.27907  0.49406  0.81703  1.0000
  C   C164      1.0  0.13899  0.51647  0.55426  1.0000
  C   C165      1.0  0.14990  0.52722  0.77864  1.0000
  H   H200      1.0  0.23667  0.53730  0.82419  1.0000
  C   C166      1.0  0.16140  0.51153  0.82083  1.0000
  Fe  Fe28      1.0  0.12597  0.49475  0.67913  1.0000
  C   C167      1.0  0.09656  0.53301  0.54611  1.0000
  C   C168      1.0  0.18935  0.54147  0.79883  1.0000
  H   H201      1.0  0.05050  0.74358  0.54166  1.0000
  H   H202      1.0  0.23726  0.54154  0.85813  1.0000
  H   H203      1.0  0.15654  0.49913  0.83670  1.0000
  C   C169      1.0  0.17791  0.48981  0.73404  1.0000
  Fe  Fe29      1.0  0.28857  0.49968  0.87572  1.0000
  C   C170      1.0  0.27107  0.97544  0.54637  1.0000
  H   H204      1.0  0.01147  0.72297  0.53456  1.0000
  C   C171      1.0  0.21187  0.49870  0.84625  1.0000
  H   H205      1.0  0.13462  0.56045  0.51845  1.0000
  H   H206      1.0  0.31600  0.93317  0.59337  1.0000
  C   C172      1.0  0.12285  0.50224  0.49025  1.0000
  C   C173      1.0  0.27947  0.92168  0.54066  1.0000
  H   H207      1.0  0.25485  0.77388  0.51583  1.0000
  S   S54       1.0  0.31850  0.85977  0.54885  1.0000
  N   N11       1.0  0.29897  0.93633  0.55554  1.0000
  H   H208      1.0  0.15600  0.79359  0.49034  1.0000
  H   H209      1.0  0.18637  0.65651  0.49817  1.0000
  H   H210      1.0  0.05258  0.71536  0.52144  1.0000
  N   N12       1.0  0.04426  0.75058  0.50127  1.0000
  C   C174      1.0  0.05215  0.77789  0.50346  1.0000
  Fe  Fe30      1.0  0.12194  0.64618  0.49476  1.0000
  H   H211      1.0  0.27436  0.73121  0.50943  1.0000
  H   H212      1.0  0.31793  0.54352  0.89421  1.0000
  H   H213      1.0  0.04564  0.78956  0.48684  1.0000
  Fe  Fe31      1.0  0.48015  0.29853  0.06483  1.0000
  S   S55       1.0  0.46499  0.33830  0.07152  1.0000
  S   S56       1.0  0.49234  0.28458  0.02491  1.0000
  Fe  Fe32      1.0  0.48128  0.28497  0.12341  1.0000
  S   S57       1.0  0.46639  0.32439  0.13325  1.0000
  S   S58       1.0  0.49347  0.26039  0.15876  1.0000
  Fe  Fe33      1.0  0.43916  0.31949  0.10036  1.0000
  S   S59       1.0  0.39692  0.32887  0.10479  1.0000
  Fe  Fe34      1.0  0.49368  0.34019  0.10381  1.0000
  S   S60       1.0  0.51321  0.37826  0.11307  1.0000
  S   S61       1.0  0.45215  0.27900  0.09168  1.0000
  S   S62       1.0  0.51065  0.30148  0.09582  1.0000
  H   H214      1.0  0.52355  0.07017  0.39904  1.0000
  S   S63       1.0  0.63078  0.40928  0.10119  1.0000
  C   C175      1.0  0.61002  0.19289  0.33550  1.0000
  S   S64       1.0  0.59036  0.13483  0.43574  1.0000
  Fe  Fe35      1.0  0.47407  0.14188  0.26619  1.0000
  S   S65       1.0  0.48799  0.16076  0.30269  1.0000
  S   S66       1.0  0.46300  0.16088  0.22715  1.0000
  Fe  Fe36      1.0  0.46947  0.08825  0.29351  1.0000
  S   S67       1.0  0.48307  0.10400  0.33141  1.0000
  S   S68       1.0  0.45237  0.04747  0.29279  1.0000
  Fe  Fe37      1.0  0.45753  0.13767  0.32327  1.0000
  S   S69       1.0  0.43426  0.15647  0.35512  1.0000
  Fe  Fe38      1.0  0.51235  0.12548  0.30833  1.0000
  S   S70       1.0  0.55466  0.12588  0.31911  1.0000
  S   S71       1.0  0.44188  0.12099  0.28673  1.0000
  S   S72       1.0  0.50061  0.10762  0.27052  1.0000
  H   H215      1.0  0.43260  0.01429  0.14868  1.0000
  C   C176      1.0  0.58479  0.19066  0.34387  1.0000
  C   C177      1.0  0.40663  0.14218  0.36887  1.0000
  C   C178      1.0  0.39739  0.11832  0.36060  1.0000
  C   C179      1.0  0.37518  0.10772  0.37177  1.0000
  C   C180      1.0  0.36211  0.12072  0.39142  1.0000
  C   C181      1.0  0.37148  0.14446  0.39989  1.0000
  C   C182      1.0  0.39360  0.15516  0.38858  1.0000
  H   H216      1.0  0.40722  0.10816  0.34544  1.0000
  H   H217      1.0  0.36802  0.08942  0.36498  1.0000
  H   H218      1.0  0.36136  0.15485  0.41470  1.0000
  H   H219      1.0  0.40051  0.17373  0.39492  1.0000
  Fe  Fe39      1.0  0.64230  0.45140  0.10425  1.0000
  C   C183      1.0  0.46381  0.01568  0.28702  1.0000
  C   C184      1.0  0.48627  0.01079  0.27325  1.0000
  C   C185      1.0  0.62542  0.19427  0.38013  1.0000
  H   H220      1.0  0.49798  0.02667  0.26673  1.0000
  C   C186      1.0  0.58108  0.13118  0.40321  1.0000
  C   C187      1.0  0.59889  0.12743  0.38354  1.0000
  C   C188      1.0  0.59054  0.12567  0.35786  1.0000
  C   C189      1.0  0.56437  0.12765  0.35163  1.0000
  C   C190      1.0  0.54659  0.13127  0.37130  1.0000
  C   C191      1.0  0.55494  0.13306  0.39695  1.0000
  H   H221      1.0  0.61907  0.12642  0.38799  1.0000
  H   H222      1.0  0.60440  0.12305  0.34269  1.0000
  H   H223      1.0  0.52642  0.13292  0.36674  1.0000
  H   H224      1.0  0.54104  0.13612  0.41201  1.0000
  C   C192      1.0  0.48474  0.23232  0.17716  1.0000
  C   C193      1.0  0.46429  0.21609  0.17045  1.0000
  C   C194      1.0  0.45805  0.19453  0.18591  1.0000
  C   C195      1.0  0.47197  0.18867  0.20845  1.0000
  C   C196      1.0  0.49240  0.20493  0.21516  1.0000
  C   C197      1.0  0.49870  0.22645  0.19966  1.0000
  H   H225      1.0  0.45333  0.22002  0.15327  1.0000
  H   H226      1.0  0.44223  0.18225  0.18033  1.0000
  H   H227      1.0  0.50345  0.20087  0.23228  1.0000
  H   H228      1.0  0.51458  0.23865  0.20524  1.0000
  C   C198      1.0  0.38767  0.36112  0.11013  1.0000
  C   C199      1.0  0.36151  0.36760  0.11016  1.0000
  C   C200      1.0  0.35368  0.39324  0.11385  1.0000
  C   C201      1.0  0.37199  0.41257  0.11768  1.0000
  C   C202      1.0  0.39809  0.40597  0.11801  1.0000
  C   C203      1.0  0.40593  0.38043  0.11410  1.0000
  H   H229      1.0  0.34725  0.35277  0.10711  1.0000
  C   C204      1.0  0.43603  0.24551  0.22554  1.0000
  H   H230      1.0  0.41239  0.42076  0.12111  1.0000
  H   H231      1.0  0.42613  0.37572  0.11416  1.0000
  C   C205      1.0  0.54572  0.38658  0.10761  1.0000
  C   C206      1.0  0.55362  0.41196  0.11240  1.0000
  C   C207      1.0  0.57946  0.41928  0.10969  1.0000
  C   C208      1.0  0.59781  0.40111  0.10264  1.0000
  C   C209      1.0  0.58993  0.37572  0.09761  1.0000
  C   C210      1.0  0.56393  0.36851  0.09986  1.0000
  H   H232      1.0  0.53972  0.42601  0.11853  1.0000
  H   H233      1.0  0.58528  0.43885  0.11367  1.0000
  H   H234      1.0  0.60402  0.36154  0.09220  1.0000
  H   H235      1.0  0.55809  0.34895  0.09602  1.0000
  H   H236      1.0  0.49713  0.36396  0.02003  1.0000
  H   H237      1.0  0.35392  0.02617  0.39198  1.0000
  H   H238      1.0  0.55605  0.31358  0.20717  1.0000
  C   C211      1.0  0.46869  0.47619  0.10689  1.0000
  H   H239      1.0  0.44671  0.31295  0.00797  1.0000
  N   N13       1.0  0.40309  0.28267  0.17196  1.0000
  C   C212      1.0  0.37582  0.28560  0.16418  1.0000
  C   C213      1.0  0.41328  0.30878  0.17742  1.0000
  C   C214      1.0  0.41711  0.27179  0.14979  1.0000
  C   C215      1.0  0.40685  0.26578  0.19452  1.0000
  C   C216      1.0  0.38649  0.25172  0.20609  1.0000
  C   C217      1.0  0.43176  0.26215  0.20494  1.0000
  C   C218      1.0  0.56301  0.06029  0.40659  1.0000
  C   C219      1.0  0.54203  0.06572  0.39071  1.0000
  H   H240      1.0  0.41938  0.21842  0.25180  1.0000
  H   H241      1.0  0.36412  0.29379  0.18000  1.0000
  H   H242      1.0  0.37375  0.29891  0.14751  1.0000
  H   H243      1.0  0.36732  0.26699  0.15789  1.0000
  H   H244      1.0  0.40406  0.31717  0.19473  1.0000
  H   H245      1.0  0.40984  0.32218  0.16105  1.0000
  H   H246      1.0  0.43433  0.30888  0.18066  1.0000
  H   H247      1.0  0.41092  0.25170  0.14577  1.0000
  H   H248      1.0  0.41378  0.28323  0.13206  1.0000
  H   H249      1.0  0.43818  0.27139  0.15304  1.0000
  H   H250      1.0  0.36692  0.25305  0.19947  1.0000
  H   H251      1.0  0.44832  0.27157  0.19675  1.0000
  C   C220      1.0  0.40825  0.16649  0.47617  1.0000
  H   H252      1.0  0.39672  0.17270  0.45924  1.0000
  H   H253      1.0  0.41156  0.34467  0.00362  1.0000
  C   C221      1.0  0.37621  0.40735  0.02550  1.0000
  Fe  Fe40      1.0  0.62888  0.12832  0.45527  1.0000
  H   H254      1.0  0.32606  0.41301  0.03667  1.0000
  C   C222      1.0  0.58869  0.38253  0.16457  1.0000
  N   N14       1.0  0.36328  0.43093  0.03459  1.0000
  H   H255      1.0  0.56932  0.18820  0.33009  1.0000
  H   H256      1.0  0.59639  0.06523  0.44838  1.0000
  H   H257      1.0  0.64931  0.19650  0.34585  1.0000
  N   N15       1.0  0.61059  0.05062  0.41230  1.0000
  C   C223      1.0  0.38032  0.40188  0.99907  1.0000
  H   H258      1.0  0.45243  0.46314  0.10646  1.0000
  H   H259      1.0  0.38070  0.12990  0.45290  1.0000
  C   C224      1.0  0.51864  0.34252  0.99229  1.0000
  H   H260      1.0  0.52443  0.32802  0.00610  1.0000
  H   H261      1.0  0.57789  0.28869  0.14453  1.0000
  H   H262      1.0  0.54307  0.28595  0.19074  1.0000
  C   C225      1.0  0.43899  0.99904  0.18643  1.0000
  H   H263      1.0  0.63243  0.02896  0.38434  1.0000
  C   C226      1.0  0.51392  0.48339  0.11337  1.0000
  C   C227      1.0  0.62111  0.34969  0.16492  1.0000
  C   C228      1.0  0.41578  0.23179  0.23623  1.0000
  H   H264      1.0  0.57119  0.06402  0.33273  1.0000
  H   H265      1.0  0.37208  0.46371  0.05855  1.0000
  H   H266      1.0  0.63301  0.48645  0.01051  1.0000
  H   H267      1.0  0.51486  0.31075  0.16479  1.0000
  H   H268      1.0  0.32649  0.03207  0.45715  1.0000
  S   S73       1.0  0.33398  0.10668  0.40438  1.0000
  H   H269      1.0  0.40450  0.35296  0.04983  1.0000
  C   C229      1.0  0.54494  0.06658  0.36417  1.0000
  H   H270      1.0  0.61401  0.19257  0.31509  1.0000
  C   C230      1.0  0.38077  0.44541  0.05189  1.0000
  H   H271      1.0  0.60825  0.31095  0.16660  1.0000
  N   N16       1.0  0.32056  0.02662  0.41663  1.0000
  C   C231      1.0  0.43460  0.01879  0.16891  1.0000
  H   H272      1.0  0.52598  0.33762  0.14674  1.0000
  H   H273      1.0  0.59120  0.03114  0.44325  1.0000
  S   S74       1.0  0.64401  0.15725  0.48362  1.0000
  C   C232      1.0  0.58994  0.05657  0.36898  1.0000
  Fe  Fe41      1.0  0.32585  0.46533  0.11220  1.0000
  C   C233      1.0  0.56948  0.36375  0.16534  1.0000
  H   H274      1.0  0.35558  0.03013  0.43891  1.0000
  H   H275      1.0  0.44826  0.14732  0.45111  1.0000
  H   H276      1.0  0.42041  0.13857  0.43349  1.0000
  H   H277      1.0  0.34591  0.46615  0.02130  1.0000
  N   N17       1.0  0.41501  0.13890  0.47465  1.0000
  H   H278      1.0  0.64118  0.34439  0.16440  1.0000
  C   C234      1.0  0.45633  0.30567  0.99114  1.0000
  C   C235      1.0  0.60208  0.33073  0.16603  1.0000
  C   C236      1.0  0.57948  0.19076  0.37003  1.0000
  H   H279      1.0  0.33351  0.39804  0.11377  1.0000
  C   C237      1.0  0.39305  0.37952  0.99138  1.0000
  H   H280      1.0  0.38544  0.43461  0.06966  1.0000
  H   H281      1.0  0.55983  0.18846  0.37644  1.0000
  C   C238      1.0  0.63908  0.19273  0.42574  1.0000
  C   C239      1.0  0.61440  0.37553  0.16402  1.0000
  S   S75       1.0  0.36355  0.44529  0.12153  1.0000
  C   C240      1.0  0.59938  0.19243  0.38801  1.0000
  H   H282      1.0  0.58359  0.40268  0.16343  1.0000
  H   H283      1.0  0.37538  0.22418  0.23502  1.0000
  H   H284      1.0  0.52468  0.33906  0.18141  1.0000
  H   H285      1.0  0.61086  0.01017  0.40375  1.0000
  C   C241      1.0  0.52925  0.32657  0.16472  1.0000
  N   N18       1.0  0.55588  0.31663  0.16603  1.0000
  C   C242      1.0  0.56885  0.06209  0.35333  1.0000
  C   C243      1.0  0.55956  0.29942  0.14363  1.0000
  H   H286      1.0  0.35978  0.99153  0.41950  1.0000
  C   C244      1.0  0.57563  0.33715  0.16589  1.0000
  C   C245      1.0  0.40179  0.36199  0.00960  1.0000
  H   H287      1.0  0.48306  0.39671  0.98864  1.0000
  C   C246      1.0  0.39105  0.23499  0.22663  1.0000
  H   H288      1.0  0.43789  0.11438  0.45067  1.0000
  H   H289      1.0  0.55950  0.31058  0.12540  1.0000
  S   S76       1.0  0.32835  0.10245  0.47664  1.0000
  H   H290      1.0  0.62232  0.04338  0.45149  1.0000
  H   H291      1.0  0.39915  0.45007  0.04217  1.0000
  H   H292      1.0  0.57688  0.29127  0.19133  1.0000
  H   H293      1.0  0.54999  0.37069  0.16467  1.0000
  C   C247      1.0  0.58768  0.05534  0.39613  1.0000
  N   N19       1.0  0.43501  0.07744  0.21337  1.0000
  C   C248      1.0  0.41495  0.07998  0.23337  1.0000
  C   C249      1.0  0.46019  0.08396  0.22491  1.0000
  C   C250      1.0  0.42962  0.09688  0.19319  1.0000
  C   C251      1.0  0.43571  0.05069  0.20371  1.0000
  C   C252      1.0  0.43996  0.03004  0.22094  1.0000
  C   C253      1.0  0.43301  0.04431  0.17728  1.0000
  C   C254      1.0  0.44166  0.00467  0.21241  1.0000
  C   C255      1.0  0.33982  0.42384  0.04899  1.0000
  H   H294      1.0  0.63390  0.07650  0.38966  1.0000
  H   H295      1.0  0.41938  0.06865  0.25093  1.0000
  H   H296      1.0  0.41295  0.10023  0.23999  1.0000
  H   H297      1.0  0.39596  0.07343  0.22607  1.0000
  H   H298      1.0  0.46462  0.07191  0.24198  1.0000
  H   H299      1.0  0.46082  0.10433  0.23142  1.0000
  H   H300      1.0  0.47603  0.08131  0.21091  1.0000
  H   H301      1.0  0.41065  0.09349  0.18396  1.0000
  H   H302      1.0  0.42926  0.11675  0.20129  1.0000
  H   H303      1.0  0.44484  0.09712  0.17825  1.0000
  H   H304      1.0  0.44227  0.03342  0.24123  1.0000
  H   H305      1.0  0.42980  0.05865  0.16268  1.0000
  C   C256      1.0  0.38529  0.38898  0.04345  1.0000
  H   H306      1.0  0.53290  0.47604  0.11776  1.0000
  H   H307      1.0  0.61943  0.09049  0.41755  1.0000
  H   H308      1.0  0.52888  0.07174  0.35198  1.0000
  H   H309      1.0  0.45530  0.24268  0.23285  1.0000
  C   C257      1.0  0.50312  0.36270  0.00015  1.0000
  C   C258      1.0  0.43113  0.13461  0.45160  1.0000
  H   H310      1.0  0.60825  0.05420  0.35966  1.0000
  H   H311      1.0  0.54411  0.28461  0.14228  1.0000
  H   H312      1.0  0.43113  0.99818  0.30532  1.0000
  C   C259      1.0  0.47882  0.29137  0.99413  1.0000
  S   S77       1.0  0.63116  0.09530  0.48283  1.0000
  H   H313      1.0  0.59379  0.19131  0.40793  1.0000
  C   C260      1.0  0.60468  0.04741  0.44001  1.0000
  H   H314      1.0  0.42546  0.17909  0.47701  1.0000
  C   C261      1.0  0.55813  0.30122  0.18986  1.0000
  H   H315      1.0  0.64052  0.02234  0.41667  1.0000
  C   C262      1.0  0.63007  0.19490  0.35329  1.0000
  H   H316      1.0  0.32959  0.44109  0.05618  1.0000
  H   H317      1.0  0.62633  0.20874  0.43168  1.0000
  H   H318      1.0  0.44526  0.98935  0.22610  1.0000
  H   H319      1.0  0.34100  0.43948  0.00066  1.0000
  C   C263      1.0  0.62833  0.07272  0.40986  1.0000
  H   H320      1.0  0.62899  0.17420  0.42921  1.0000
  S   S78       1.0  0.63921  0.47722  0.13852  1.0000
  C   C264      1.0  0.33555  0.03716  0.43849  1.0000
  C   C265      1.0  0.62405  0.02701  0.40379  1.0000
  H   H321      1.0  0.55952  0.06079  0.42698  1.0000
  C   C266      1.0  0.39785  0.36668  0.03559  1.0000
  H   H322      1.0  0.64636  0.06958  0.42075  1.0000
  C   C267      1.0  0.35542  0.44860  0.01362  1.0000
  H   H323      1.0  0.49580  0.44623  0.11530  1.0000
  C   C268      1.0  0.39082  0.12424  0.47087  1.0000
  H   H324      1.0  0.62912  0.39022  0.16239  1.0000
  N   N20       1.0  0.64713  0.19514  0.39853  1.0000
  H   H325      1.0  0.38271  0.39173  0.06380  1.0000
  H   H326      1.0  0.34400  0.41196  0.06611  1.0000
  H   H327      1.0  0.63403  0.41856  0.03564  1.0000
  H   H328      1.0  0.37212  0.45524  0.00219  1.0000
  H   H329      1.0  0.39438  0.10323  0.46958  1.0000
  C   C269      1.0  0.49309  0.46664  0.11205  1.0000
  H   H330      1.0  0.32364  0.02484  0.37551  1.0000
  C   C270      1.0  0.44869  0.99467  0.29490  1.0000
  H   H331      1.0  0.33490  0.05438  0.38938  1.0000
  H   H332      1.0  0.33675  0.05853  0.43764  1.0000
  C   C271      1.0  0.33385  0.03321  0.39236  1.0000
  S   S79       1.0  0.62527  0.47990  0.07683  1.0000
  H   H333      1.0  0.64815  0.23638  0.39944  1.0000
  H   H334      1.0  0.65136  0.44653  0.02527  1.0000
  Fe  Fe42      1.0  0.46122  0.30511  0.87309  1.0000
  S   S80       1.0  0.47184  0.34413  0.85788  1.0000
  S   S81       1.0  0.44379  0.30580  0.91361  1.0000
  Fe  Fe43      1.0  0.47293  0.27846  0.82020  1.0000
  S   S82       1.0  0.48424  0.31615  0.80225  1.0000
  S   S83       1.0  0.47608  0.23824  0.80125  1.0000
  Fe  Fe44      1.0  0.50515  0.32449  0.83917  1.0000
  S   S84       1.0  0.54664  0.33737  0.84426  1.0000
  Fe  Fe45      1.0  0.44983  0.33267  0.82266  1.0000
  S   S85       1.0  0.42305  0.35981  0.80170  1.0000
  S   S86       1.0  0.49598  0.28586  0.85651  1.0000
  S   S87       1.0  0.43712  0.29458  0.83841  1.0000
  C   C272      1.0  0.52985  0.05967  0.57477  1.0000
  S   S88       1.0  0.59194  0.44507  0.80750  1.0000
  Fe  Fe46      1.0  0.48673  0.08602  0.65702  1.0000
  S   S89       1.0  0.47484  0.08919  0.61590  1.0000
  S   S90       1.0  0.50455  0.04709  0.66720  1.0000
  Fe  Fe47      1.0  0.47697  0.14405  0.66754  1.0000
  S   S91       1.0  0.46491  0.15005  0.62612  1.0000
  S   S92       1.0  0.47416  0.18254  0.69018  1.0000
  Fe  Fe48      1.0  0.44264  0.11354  0.62993  1.0000
  S   S93       1.0  0.40275  0.10511  0.61441  1.0000
  Fe  Fe49      1.0  0.49826  0.12531  0.61506  1.0000
  S   S94       1.0  0.51832  0.13208  0.57699  1.0000
  S   S95       1.0  0.45250  0.10818  0.67182  1.0000
  S   S96       1.0  0.51229  0.12148  0.65568  1.0000
  S   S97       1.0  0.63734  0.12459  0.55159  1.0000
  S   S98       1.0  0.34795  0.16010  0.52015  1.0000
  C   C273      1.0  0.38922  0.11985  0.58695  1.0000
  C   C274      1.0  0.36795  0.10820  0.57504  1.0000
  C   C275      1.0  0.35559  0.12001  0.55413  1.0000
  C   C276      1.0  0.36410  0.14387  0.54525  1.0000
  C   C277      1.0  0.38556  0.15543  0.55694  1.0000
  C   C278      1.0  0.39823  0.14337  0.57758  1.0000
  H   H335      1.0  0.36083  0.09005  0.58222  1.0000
  H   H336      1.0  0.33907  0.11094  0.54530  1.0000
  H   H337      1.0  0.39229  0.17387  0.55015  1.0000
  H   H338      1.0  0.41459  0.15251  0.58656  1.0000
  C   C279      1.0  0.55163  0.13122  0.57070  1.0000
  C   C280      1.0  0.55977  0.12982  0.54507  1.0000
  C   C281      1.0  0.58597  0.12814  0.53903  1.0000
  C   C282      1.0  0.60435  0.12794  0.55861  1.0000
  C   C283      1.0  0.59626  0.12964  0.58428  1.0000
  C   C284      1.0  0.56999  0.13134  0.59033  1.0000
  H   H339      1.0  0.54572  0.12988  0.52975  1.0000
  H   H340      1.0  0.59194  0.12694  0.51920  1.0000
  H   H341      1.0  0.61039  0.12955  0.59953  1.0000
  H   H342      1.0  0.56397  0.13275  0.61014  1.0000
  C   C285      1.0  0.46322  0.01278  0.66864  1.0000
  C   C286      1.0  0.48979  0.01610  0.66672  1.0000
  H   H343      1.0  0.37386  0.41453  0.98399  1.0000
  H   H344      1.0  0.45093  0.02944  0.66973  1.0000
  H   H345      1.0  0.38540  0.22353  0.66816  1.0000
  C   C287      1.0  0.47478  0.22325  0.77009  1.0000
  C   C288      1.0  0.47735  0.19633  0.76827  1.0000
  C   C289      1.0  0.47705  0.18354  0.74423  1.0000
  C   C290      1.0  0.47429  0.19746  0.72139  1.0000
  C   C291      1.0  0.47174  0.22440  0.72319  1.0000
  C   C292      1.0  0.47197  0.23719  0.74724  1.0000
  H   H346      1.0  0.47960  0.18521  0.78566  1.0000
  H   H347      1.0  0.47908  0.16289  0.74342  1.0000
  H   H348      1.0  0.46973  0.23554  0.70579  1.0000
  H   H349      1.0  0.47011  0.25785  0.74806  1.0000
  C   C293      1.0  0.39918  0.37784  0.81774  1.0000
  C   C294      1.0  0.38365  0.39470  0.80354  1.0000
  C   C295      1.0  0.36340  0.40807  0.81534  1.0000
  C   C296      1.0  0.35833  0.40446  0.84143  1.0000
  C   C297      1.0  0.37437  0.38820  0.85580  1.0000
  C   C298      1.0  0.39479  0.37503  0.84405  1.0000
  H   H350      1.0  0.38698  0.39704  0.78319  1.0000
  H   H351      1.0  0.35110  0.42036  0.80402  1.0000
  H   H352      1.0  0.37056  0.38534  0.87596  1.0000
  H   H353      1.0  0.40675  0.36225  0.85512  1.0000
  C   C299      1.0  0.55820  0.36810  0.83514  1.0000
  C   C300      1.0  0.58223  0.37642  0.84425  1.0000
  C   C301      1.0  0.59249  0.40032  0.83665  1.0000
  C   C302      1.0  0.57899  0.41588  0.81942  1.0000
  C   C303      1.0  0.55490  0.40755  0.81045  1.0000
  C   C304      1.0  0.54439  0.38392  0.81846  1.0000
  H   H354      1.0  0.59314  0.36427  0.85705  1.0000
  H   H355      1.0  0.61110  0.40644  0.84358  1.0000
  H   H356      1.0  0.54436  0.41943  0.79707  1.0000
  H   H357      1.0  0.52589  0.37776  0.81126  1.0000
  C   C305      1.0  0.48095  0.28657  0.94723  1.0000
  C   C306      1.0  0.45829  0.30060  0.94427  1.0000
  C   C307      1.0  0.44607  0.31008  0.96639  1.0000
  H   H358      1.0  0.49030  0.27863  0.93053  1.0000
  H   H359      1.0  0.42848  0.32079  0.96437  1.0000
  C   C308      1.0  0.55435  0.35542  0.91877  1.0000
  S   S99       1.0  0.33018  0.41685  0.85581  1.0000
  H   H360      1.0  0.33443  0.34868  0.80013  1.0000
  C   C309      1.0  0.46706  0.13627  0.52604  1.0000
  H   H361      1.0  0.34230  0.22142  0.59093  1.0000
  C   C310      1.0  0.41937  0.11362  0.51641  1.0000
  C   C311      1.0  0.34325  0.30119  0.90729  1.0000
  H   H362      1.0  0.49463  0.32994  0.91268  1.0000
  N   N21       1.0  0.52598  0.35555  0.92078  1.0000
  H   H363      1.0  0.36739  0.14358  0.63939  1.0000
  C   C312      1.0  0.51634  0.37619  0.90360  1.0000
  H   H364      1.0  0.48549  0.14516  0.53014  1.0000
  C   C313      1.0  0.35589  0.31851  0.86572  1.0000
  C   C314      1.0  0.35888  0.32114  0.81871  1.0000
  Fe  Fe50      1.0  0.62506  0.46769  0.82525  1.0000
  C   C315      1.0  0.34295  0.15969  0.61141  1.0000
  N   N22       1.0  0.54578  0.04754  0.59504  1.0000
  C   C316      1.0  0.54960  0.06618  0.61624  1.0000
  H   H365      1.0  0.53784  0.07835  0.56822  1.0000
  H   H366      1.0  0.51202  0.03168  0.61318  1.0000
  C   C317      1.0  0.57099  0.04030  0.58423  1.0000
  C   C318      1.0  0.58671  0.05917  0.57241  1.0000
  C   C319      1.0  0.58068  0.01479  0.58495  1.0000
  C   C320      1.0  0.33595  0.18122  0.59725  1.0000
  H   H367      1.0  0.46729  0.11416  0.56087  1.0000
  H   H368      1.0  0.55941  0.08396  0.60984  1.0000
  C   C321      1.0  0.32840  0.34771  0.84090  1.0000
  H   H369      1.0  0.51021  0.06405  0.58169  1.0000
  C   C322      1.0  0.37942  0.33004  0.90398  1.0000
  H   H370      1.0  0.34982  0.29220  0.92555  1.0000
  H   H371      1.0  0.62213  0.06794  0.55307  1.0000
  H   H372      1.0  0.37345  0.27044  0.87839  1.0000
  H   H373      1.0  0.54106  0.01644  0.62205  1.0000
  H   H374      1.0  0.57610  0.25869  0.69655  1.0000
  H   H375      1.0  0.40085  0.29183  0.87929  1.0000
  H   H376      1.0  0.53103  0.07229  0.62472  1.0000
  C   C323      1.0  0.33979  0.33975  0.81814  1.0000
  H   H377      1.0  0.56311  0.33890  0.92897  1.0000
  H   H378      1.0  0.38175  0.29634  0.84099  1.0000
  H   H379      1.0  0.33390  0.14133  0.60739  1.0000
  H   H380      1.0  0.52805  0.04698  0.55768  1.0000
  H   H381      1.0  0.33108  0.31766  0.91306  1.0000
  H   H382      1.0  0.38861  0.27940  0.90816  1.0000
  C   C324      1.0  0.36672  0.31042  0.84205  1.0000
  H   H383      1.0  0.32155  0.17954  0.58226  1.0000
  H   H384      1.0  0.52598  0.99635  0.66452  1.0000
  H   H385      1.0  0.49501  0.37669  0.90319  1.0000
  H   H386      1.0  0.37592  0.22525  0.62352  1.0000
  C   C325      1.0  0.50257  0.37919  0.95664  1.0000
  H   H387      1.0  0.57031  0.99919  0.59382  1.0000
  S   S100      1.0  0.64451  0.47400  0.91762  1.0000
  C   C326      1.0  0.61929  0.02779  0.56255  1.0000
  H   H388      1.0  0.39035  0.15279  0.67527  1.0000
  H   H389      1.0  0.52066  0.32795  0.89035  1.0000
  H   H390      1.0  0.40077  0.10467  0.51442  1.0000
  C   C327      1.0  0.38260  0.28665  0.88894  1.0000
  H   H391      1.0  0.32822  0.34577  0.88150  1.0000
  H   H392      1.0  0.39614  0.37572  0.97116  1.0000
  H   H393      1.0  0.42420  0.18785  0.62144  1.0000
  C   C328      1.0  0.41993  0.19842  0.63950  1.0000
  C   C329      1.0  0.34785  0.20472  0.60202  1.0000
  H   H394      1.0  0.52385  0.39538  0.90940  1.0000
  C   C330      1.0  0.39029  0.20378  0.67452  1.0000
  C   C331      1.0  0.61047  0.05298  0.56180  1.0000
  H   H395      1.0  0.61870  0.47618  0.96611  1.0000
  N   N23       1.0  0.36517  0.30908  0.89093  1.0000
  C   C332      1.0  0.40567  0.16190  0.66356  1.0000
  C   C333      1.0  0.51587  0.33080  0.91090  1.0000
  C   C334      1.0  0.53098  0.02550  0.60552  1.0000
  N   N24       1.0  0.55527  0.28256  0.78044  1.0000
  C   C335      1.0  0.54035  0.27372  0.80301  1.0000
  C   C336      1.0  0.58216  0.28631  0.78902  1.0000
  C   C337      1.0  0.54473  0.30776  0.77239  1.0000
  C   C338      1.0  0.55433  0.26440  0.75854  1.0000
  C   C339      1.0  0.54029  0.24092  0.75921  1.0000
  C   C340      1.0  0.56739  0.27022  0.73537  1.0000
  C   C341      1.0  0.53931  0.22460  0.73790  1.0000
  C   C342      1.0  0.56621  0.25375  0.71415  1.0000
  C   C343      1.0  0.55210  0.23103  0.71540  1.0000
  H   H396      1.0  0.54758  0.25512  0.81060  1.0000
  H   H397      1.0  0.54140  0.28769  0.81916  1.0000
  H   H398      1.0  0.51969  0.27139  0.79818  1.0000
  H   H399      1.0  0.59099  0.26769  0.79463  1.0000
  H   H400      1.0  0.58330  0.29947  0.80593  1.0000
  H   H401      1.0  0.59435  0.29505  0.77391  1.0000
  H   H402      1.0  0.54356  0.32150  0.78879  1.0000
  H   H403      1.0  0.55668  0.31735  0.75760  1.0000
  H   H404      1.0  0.52509  0.30550  0.76424  1.0000
  H   H405      1.0  0.52950  0.23478  0.77579  1.0000
  H   H406      1.0  0.57839  0.28772  0.73340  1.0000
  C   C344      1.0  0.45690  0.11870  0.54341  1.0000
  C   C345      1.0  0.36721  0.20663  0.62057  1.0000
  H   H407      1.0  0.58077  0.07897  0.57134  1.0000
  H   H408      1.0  0.39616  0.33633  0.89227  1.0000
  H   H409      1.0  0.36728  0.34724  0.90723  1.0000
  H   H410      1.0  0.41126  0.14831  0.64809  1.0000
  H   H411      1.0  0.50837  0.27073  0.97404  1.0000
  C   C346      1.0  0.43320  0.10733  0.53856  1.0000
  H   H412      1.0  0.38720  0.32378  0.92290  1.0000
  H   H413      1.0  0.56275  0.37336  0.92689  1.0000
  C   C347      1.0  0.45259  0.98783  0.67038  1.0000
  H   H414      1.0  0.49559  0.39395  0.94392  1.0000
  H   H415      1.0  0.42263  0.16397  0.67648  1.0000
  H   H416      1.0  0.36832  0.31564  0.80102  1.0000
  C   C348      1.0  0.52611  0.34042  0.96664  1.0000
  H   H417      1.0  0.55087  0.21839  0.69887  1.0000
  H   H418      1.0  0.53766  0.32403  0.96150  1.0000
  H   H419      1.0  0.37337  0.19590  0.68489  1.0000
  C   C349      1.0  0.51827  0.35866  0.94796  1.0000
  C   C350      1.0  0.60446  0.00875  0.57412  1.0000
  C   C351      1.0  0.49107  0.28196  0.97199  1.0000
  H   H420      1.0  0.43751  0.19794  0.65170  1.0000
  C   C352      1.0  0.63820  0.48250  0.96944  1.0000
  H   H421      1.0  0.52705  0.01072  0.59060  1.0000
  H   H422      1.0  0.52382  0.31397  0.92125  1.0000
  H   H423      1.0  0.40634  0.20561  0.68864  1.0000
  H   H424      1.0  0.56125  0.05774  0.63205  1.0000
  H   H425      1.0  0.56070  0.35395  0.89838  1.0000
  N   N25       1.0  0.39745  0.18697  0.65274  1.0000
  H   H426      1.0  0.41707  0.21891  0.63445  1.0000
  C   C353      1.0  0.36245  0.16131  0.62984  1.0000
  C   C354      1.0  0.37563  0.18480  0.63456  1.0000
  H   H427      1.0  0.52818  0.20697  0.73872  1.0000
  H   H428      1.0  0.52254  0.37319  0.88333  1.0000
  H   H429      1.0  0.42516  0.09410  0.55250  1.0000
  H   H430      1.0  0.63775  0.02309  0.55427  1.0000
  H   H431      1.0  0.46200  0.15666  0.49110  1.0000
  C   C355      1.0  0.50540  0.99410  0.66558  1.0000
  Fe  Fe51      1.0  0.64933  0.12354  0.50979  1.0000
  C   C356      1.0  0.33651  0.33757  0.86440  1.0000
  H   H432      1.0  0.61152  0.98918  0.57477  1.0000
  H   H433      1.0  0.33084  0.28702  0.89708  1.0000
  S   S101      1.0  0.31993  0.48047  0.81046  1.0000
  H   H434      1.0  0.37710  0.12796  0.48674  1.0000
  C   C357      1.0  0.42921  0.13143  0.49817  1.0000
  C   C358      1.0  0.45347  0.14263  0.50375  1.0000
  H   H435      1.0  0.39662  0.17049  0.49365  1.0000
  C   C359      1.0  0.49516  0.38104  0.98239  1.0000
  H   H436      1.0  0.65050  0.98821  0.51829  1.0000
  H   H437      1.0  0.31991  0.01985  0.58110  1.0000
  C   C360      1.0  0.51049  0.50970  0.10927  1.0000
  H   H438      1.0  0.36904  0.70847  0.07219  1.0000
  S   S102      1.0  0.58964  0.52745  0.12543  1.0000
  Fe  Fe52      1.0  0.62521  0.50700  0.11053  1.0000
  Fe  Fe53      1.0  0.45222  0.63719  0.11330  1.0000
  S   S103      1.0  0.43682  0.67467  0.09860  1.0000
  S   S104      1.0  0.43174  0.60179  0.12900  1.0000
  Fe  Fe54      1.0  0.50719  0.65153  0.10062  1.0000
  S   S105      1.0  0.49584  0.69027  0.08490  1.0000
  S   S106      1.0  0.54870  0.63883  0.09663  1.0000
  Fe  Fe55      1.0  0.47006  0.69358  0.11970  1.0000
  S   S107      1.0  0.46384  0.73385  0.13825  1.0000
  Fe  Fe56      1.0  0.46372  0.66906  0.06505  1.0000
  S   S108      1.0  0.44754  0.67360  0.02416  1.0000
  S   S109      1.0  0.48381  0.65603  0.13663  1.0000
  S   S110      1.0  0.47676  0.63040  0.07865  1.0000
  S   S111      1.0  0.61528  0.88402  0.46556  1.0000
  S   S112      1.0  0.62657  0.86391  0.39409  1.0000
  Fe  Fe57      1.0  0.47510  0.83401  0.26808  1.0000
  S   S113      1.0  0.46329  0.82537  0.30883  1.0000
  S   S114      1.0  0.48046  0.79647  0.24450  1.0000
  Fe  Fe58      1.0  0.47430  0.89273  0.28008  1.0000
  S   S115      1.0  0.46122  0.88699  0.32072  1.0000
  S   S116      1.0  0.48718  0.93256  0.26578  1.0000
  Fe  Fe59      1.0  0.49080  0.85573  0.32207  1.0000
  S   S117      1.0  0.50955  0.85154  0.36133  1.0000
  Fe  Fe60      1.0  0.43474  0.85699  0.30458  1.0000
  S   S118      1.0  0.39483  0.84542  0.31778  1.0000
  S   S119      1.0  0.50537  0.86229  0.28205  1.0000
  S   S120      1.0  0.44510  0.86488  0.26323  1.0000
  C   C361      1.0  0.65172  0.55257  0.15772  1.0000
  S   S121      1.0  0.35475  0.87770  0.42852  1.0000
  C   C362      1.0  0.38267  0.85562  0.34783  1.0000
  C   C363      1.0  0.36078  0.84364  0.35809  1.0000
  C   C364      1.0  0.35139  0.85059  0.38250  1.0000
  C   C365      1.0  0.36382  0.86970  0.39678  1.0000
  C   C366      1.0  0.38534  0.88206  0.38623  1.0000
  C   C367      1.0  0.39476  0.87506  0.36193  1.0000
  H   H439      1.0  0.35116  0.82870  0.34726  1.0000
  H   H440      1.0  0.33480  0.84093  0.39040  1.0000
  H   H441      1.0  0.39489  0.89705  0.39704  1.0000
  H   H442      1.0  0.41133  0.88474  0.35409  1.0000
  C   C368      1.0  0.47795  0.96428  0.27490  1.0000
  C   C369      1.0  0.45583  0.96915  0.28918  1.0000
  C   C370      1.0  0.42437  0.74239  0.08003  1.0000
  H   H443      1.0  0.44381  0.95331  0.29523  1.0000
  H   H444      1.0  0.38439  0.70818  0.02729  1.0000
  C   C371      1.0  0.59432  0.85856  0.38483  1.0000
  C   C372      1.0  0.57534  0.85345  0.40302  1.0000
  C   C373      1.0  0.54964  0.85062  0.39527  1.0000
  C   C374      1.0  0.54256  0.85318  0.36937  1.0000
  C   C375      1.0  0.56162  0.85748  0.35103  1.0000
  C   C376      1.0  0.58739  0.86024  0.35877  1.0000
  H   H445      1.0  0.58055  0.85167  0.42306  1.0000
  H   H446      1.0  0.53523  0.84622  0.40940  1.0000
  H   H447      1.0  0.55664  0.85850  0.33091  1.0000
  H   H448      1.0  0.60206  0.86382  0.34457  1.0000
  C   C377      1.0  0.46951  0.75092  0.16787  1.0000
  C   C378      1.0  0.46294  0.77718  0.16942  1.0000
  C   C379      1.0  0.46623  0.79140  0.19244  1.0000
  C   C380      1.0  0.47615  0.77964  0.21452  1.0000
  C   C381      1.0  0.48268  0.75339  0.21297  1.0000
  C   C382      1.0  0.47941  0.73916  0.18995  1.0000
  H   H449      1.0  0.45521  0.78664  0.15265  1.0000
  H   H450      1.0  0.46116  0.81151  0.19305  1.0000
  H   H451      1.0  0.49038  0.74392  0.22977  1.0000
  H   H452      1.0  0.48450  0.71905  0.18935  1.0000
  H   H453      1.0  0.61287  0.54958  0.20974  1.0000
  C   C383      1.0  0.48290  0.88679  0.45941  1.0000
  C   C384      1.0  0.53991  0.92721  0.38321  1.0000
  C   C385      1.0  0.48541  0.56155  0.12356  1.0000
  H   H454      1.0  0.50151  0.67817  0.00839  1.0000
  C   C386      1.0  0.57850  0.55822  0.11650  1.0000
  C   C387      1.0  0.59068  0.57308  0.09781  1.0000
  C   C388      1.0  0.58129  0.59772  0.09183  1.0000
  C   C389      1.0  0.55944  0.60751  0.10414  1.0000
  C   C390      1.0  0.54744  0.59272  0.12301  1.0000
  C   C391      1.0  0.55712  0.56830  0.12932  1.0000
  H   H455      1.0  0.60740  0.56569  0.08805  1.0000
  H   H456      1.0  0.59093  0.60923  0.07749  1.0000
  H   H457      1.0  0.53112  0.60043  0.13317  1.0000
  H   H458      1.0  0.54819  0.55724  0.14443  1.0000
  C   C392      1.0  0.35000  0.57328  0.11068  1.0000
  C   C393      1.0  0.35741  0.59840  0.10401  1.0000
  C   C394      1.0  0.38259  0.60725  0.10877  1.0000
  C   C395      1.0  0.40038  0.59121  0.12087  1.0000
  C   C396      1.0  0.39294  0.56609  0.12750  1.0000
  C   C397      1.0  0.36801  0.55705  0.12214  1.0000
  H   H459      1.0  0.34362  0.61111  0.09515  1.0000
  H   H460      1.0  0.38803  0.62664  0.10365  1.0000
  H   H461      1.0  0.40644  0.55362  0.13711  1.0000
  H   H462      1.0  0.36252  0.53774  0.12755  1.0000
  H   H463      1.0  0.44215  0.79111  0.04291  1.0000
  H   H464      1.0  0.45615  0.57573  0.08330  1.0000
  C   C398      1.0  0.55587  0.92229  0.40428  1.0000
  H   H465      1.0  0.44349  0.77248  0.01397  1.0000
  H   H466      1.0  0.41679  0.79803  0.39942  1.0000
  H   H467      1.0  0.46761  0.89352  0.44700  1.0000
  H   H468      1.0  0.56210  0.95478  0.31254  1.0000
  H   H469      1.0  0.40777  0.84954  0.43217  1.0000
  H   H470      1.0  0.51964  0.92814  0.38707  1.0000
  H   H471      1.0  0.48041  0.80910  0.44016  1.0000
  H   H472      1.0  0.52449  0.91425  0.30003  1.0000
  C   C399      1.0  0.60754  0.62146  0.16529  1.0000
  C   C400      1.0  0.46506  0.50247  0.10255  1.0000
  H   H473      1.0  0.58623  0.92870  0.33693  1.0000
  C   C401      1.0  0.34093  0.98292  0.41989  1.0000
  N   N26       1.0  0.40040  0.78231  0.26168  1.0000
  C   C402      1.0  0.40625  0.80766  0.24997  1.0000
  C   C403      1.0  0.37403  0.78365  0.27220  1.0000
  C   C404      1.0  0.41865  0.77853  0.28322  1.0000
  C   C405      1.0  0.40239  0.76054  0.24345  1.0000
  C   C406      1.0  0.39738  0.73505  0.25180  1.0000
  C   C407      1.0  0.40941  0.76374  0.21728  1.0000
  C   C408      1.0  0.39965  0.71410  0.23514  1.0000
  C   C409      1.0  0.41141  0.74265  0.20075  1.0000
  C   C410      1.0  0.40676  0.71791  0.20968  1.0000
  H   H474      1.0  0.39282  0.81223  0.23401  1.0000
  H   H475      1.0  0.40449  0.82354  0.26422  1.0000
  H   H476      1.0  0.42628  0.80846  0.24263  1.0000
  H   H477      1.0  0.35963  0.78556  0.25651  1.0000
  H   H478      1.0  0.37171  0.80047  0.28530  1.0000
  H   H479      1.0  0.36893  0.76640  0.28364  1.0000
  H   H480      1.0  0.43874  0.77723  0.27604  1.0000
  H   H481      1.0  0.41779  0.79473  0.29716  1.0000
  H   H482      1.0  0.41468  0.76080  0.29431  1.0000
  H   H483      1.0  0.39198  0.73109  0.27140  1.0000
  H   H484      1.0  0.41397  0.78224  0.20914  1.0000
  H   H485      1.0  0.41719  0.74544  0.18095  1.0000
  H   H486      1.0  0.40893  0.70165  0.19684  1.0000
  N   N27       1.0  0.53382  0.93425  0.33509  1.0000
  C   C411      1.0  0.50627  0.93807  0.34115  1.0000
  C   C412      1.0  0.54263  0.95725  0.32073  1.0000
  C   C413      1.0  0.53564  0.91156  0.31805  1.0000
  C   C414      1.0  0.55012  0.93010  0.35806  1.0000
  C   C415      1.0  0.57711  0.92774  0.35549  1.0000
  H   H487      1.0  0.39453  0.73043  0.10589  1.0000
  H   H488      1.0  0.62610  0.52321  0.19166  1.0000
  C   C416      1.0  0.49312  0.98528  0.26704  1.0000
  C   C417      1.0  0.40108  0.73058  0.08616  1.0000
  H   H489      1.0  0.43454  0.75132  0.09574  1.0000
  H   H490      1.0  0.52985  0.96145  0.30404  1.0000
  C   C418      1.0  0.64690  0.60675  0.19869  1.0000
  H   H491      1.0  0.52801  0.89412  0.32772  1.0000
  C   C419      1.0  0.63510  0.58759  0.18314  1.0000
  H   H492      1.0  0.44560  0.50858  0.09906  1.0000
  H   H493      1.0  0.46621  0.73181  0.01270  1.0000
  C   C420      1.0  0.47478  0.76143  0.07011  1.0000
  H   H494      1.0  0.59453  0.91532  0.41715  1.0000
  H   H495      1.0  0.47810  0.74479  0.08315  1.0000
  H   H496      1.0  0.40487  0.82994  0.39504  1.0000
  C   C421      1.0  0.43417  0.74189  0.05458  1.0000
  H   H497      1.0  0.49401  0.76880  0.06447  1.0000
  C   C422      1.0  0.63906  0.63243  0.19744  1.0000
  N   N28       1.0  0.44575  0.82745  0.40270  1.0000
  C   C423      1.0  0.45012  0.85378  0.39291  1.0000
  C   C424      1.0  0.46690  0.81098  0.39315  1.0000
  C   C425      1.0  0.42155  0.81728  0.39145  1.0000
  C   C426      1.0  0.44399  0.82833  0.43108  1.0000
  C   C427      1.0  0.46328  0.81807  0.44747  1.0000
  C   C428      1.0  0.42285  0.84047  0.44319  1.0000
  C   C429      1.0  0.41849  0.73008  0.03560  1.0000
  C   C430      1.0  0.45753  0.55479  0.08749  1.0000
  H   H498      1.0  0.35679  0.94460  0.42215  1.0000
  H   H499      1.0  0.43483  0.86721  0.39901  1.0000
  H   H500      1.0  0.46870  0.86166  0.39994  1.0000
  H   H501      1.0  0.45073  0.85416  0.37152  1.0000
  H   H502      1.0  0.46735  0.81030  0.37175  1.0000
  H   H503      1.0  0.46496  0.79087  0.40012  1.0000
  H   H504      1.0  0.48607  0.81854  0.39888  1.0000
  H   H505      1.0  0.42269  0.81555  0.37014  1.0000
  H   H506      1.0  0.39614  0.69476  0.24202  1.0000
  H   H507      1.0  0.54192  0.85956  0.45633  1.0000
  H   H508      1.0  0.54288  0.97456  0.33327  1.0000
  H   H509      1.0  0.52242  0.55694  0.08906  1.0000
  C   C431      1.0  0.46304  0.67502  0.99372  1.0000
  H   H510      1.0  0.44154  0.55099  0.10107  1.0000
  C   C432      1.0  0.39533  0.71815  0.04197  1.0000
  H   H511      1.0  0.50283  0.54661  0.06259  1.0000
  H   H512      1.0  0.49431  0.74310  0.02836  1.0000
  H   H513      1.0  0.49466  0.94129  0.32344  1.0000
  H   H514      1.0  0.50379  0.55713  0.13329  1.0000
  C   C433      1.0  0.52461  0.86763  0.46458  1.0000
  H   H515      1.0  0.50339  0.95511  0.35369  1.0000
  H   H516      1.0  0.44042  0.97933  0.17989  1.0000
  C   C434      1.0  0.38672  0.71824  0.06723  1.0000
  H   H517      1.0  0.47642  0.71692  0.04173  1.0000
  S   S122      1.0  0.64114  0.82595  0.45961  1.0000
  Fe  Fe61      1.0  0.63782  0.86218  0.43623  1.0000
  N   N29       1.0  0.48286  0.54796  0.09871  1.0000
  H   H518      1.0  0.45388  0.54432  0.06924  1.0000
  N   N30       1.0  0.45901  0.75382  0.04749  1.0000
  C   C435      1.0  0.59285  0.92287  0.37669  1.0000
  C   C436      1.0  0.48604  0.52002  0.10308  1.0000
  H   H519      1.0  0.59237  0.62716  0.15212  1.0000
  C   C437      1.0  0.61946  0.63975  0.18077  1.0000
  H   H520      1.0  0.48446  0.58279  0.12109  1.0000
  H   H521      1.0  0.46564  0.77700  0.08146  1.0000
  C   C438      1.0  0.50281  0.55772  0.08083  1.0000
  C   C439      1.0  0.50523  0.87692  0.44868  1.0000
  C   C440      1.0  0.61515  0.59579  0.16649  1.0000
  C   C441      1.0  0.45401  0.77712  0.03202  1.0000
  H   H522      1.0  0.63640  0.55418  0.14294  1.0000
  C   C442      1.0  0.47459  0.73575  0.03193  1.0000
  H   H523      1.0  0.42437  0.72917  0.01576  1.0000
  C   C443      1.0  0.62072  0.54389  0.19075  1.0000
  H   H524      1.0  0.46972  0.55608  0.13698  1.0000
  H   H525      1.0  0.50745  0.87633  0.42802  1.0000
  C   C444      1.0  0.58226  0.92010  0.40100  1.0000
  H   H526      1.0  0.54777  0.91950  0.42321  1.0000
  H   H527      1.0  0.49988  0.57833  0.07598  1.0000
  H   H528      1.0  0.47217  0.78690  0.02643  1.0000
  H   H529      1.0  0.52726  0.52183  0.11125  1.0000
  C   C445      1.0  0.42050  0.84103  0.46991  1.0000
  H   H530      1.0  0.64833  0.64680  0.20939  1.0000
  H   H531      1.0  0.49784  0.92080  0.35050  1.0000
  C   C446      1.0  0.64634  0.48811  0.99474  1.0000
  C   C447      1.0  0.48963  0.67764  0.99134  1.0000
  N   N31       1.0  0.64291  0.56027  0.18358  1.0000
  H   H532      1.0  0.61329  0.91994  0.37416  1.0000
  H   H533      1.0  0.55566  0.90734  0.31221  1.0000
  H   H534      1.0  0.51019  0.98182  0.25583  1.0000
  H   H535      1.0  0.61351  0.65967  0.17973  1.0000
  H   H536      1.0  0.60540  0.58237  0.15405  1.0000
  H   H537      1.0  0.60483  0.54502  0.17651  1.0000
  S   S123      1.0  0.32961  0.49335  0.07964  1.0000
  H   H538      1.0  0.40373  0.84977  0.47859  1.0000
  C   C448      1.0  0.33949  0.95610  0.42127  1.0000
  C   C449      1.0  0.46084  0.81896  0.47419  1.0000
  C   C450      1.0  0.43934  0.83008  0.48538  1.0000
  C   C451      1.0  0.48007  0.88798  0.48609  1.0000
  C   C452      1.0  0.52808  0.61695  0.89024  1.0000
  H   H539      1.0  0.35050  0.60356  0.88089  1.0000
  S   S124      1.0  0.63066  0.56676  0.83090  1.0000
  H   H540      1.0  0.45494  0.78925  0.80799  1.0000
  Fe  Fe62      1.0  0.44308  0.66202  0.83545  1.0000
  S   S125      1.0  0.45577  0.70078  0.85067  1.0000
  S   S126      1.0  0.40119  0.65024  0.83149  1.0000
  Fe  Fe63      1.0  0.49769  0.64384  0.82674  1.0000
  S   S127      1.0  0.51442  0.68097  0.84092  1.0000
  S   S128      1.0  0.51630  0.60627  0.81449  1.0000
  Fe  Fe64      1.0  0.48533  0.67820  0.87295  1.0000
  S   S129      1.0  0.50118  0.68285  0.91394  1.0000
  Fe  Fe65      1.0  0.48362  0.70097  0.81731  1.0000
  S   S130      1.0  0.49505  0.73765  0.79440  1.0000
  S   S131      1.0  0.47054  0.63984  0.85988  1.0000
  S   S132      1.0  0.46898  0.66350  0.80098  1.0000
  Fe  Fe66      1.0  0.46888  0.89688  0.65821  1.0000
  S   S133      1.0  0.48327  0.89260  0.61799  1.0000
  S   S134      1.0  0.45417  0.93489  0.67426  1.0000
  Fe  Fe67      1.0  0.47105  0.83826  0.66881  1.0000
  S   S135      1.0  0.48520  0.83016  0.62866  1.0000
  S   S136      1.0  0.46086  0.80406  0.69535  1.0000
  Fe  Fe68      1.0  0.51091  0.86418  0.63449  1.0000
  S   S137      1.0  0.55280  0.86495  0.62335  1.0000
  Fe  Fe69      1.0  0.45617  0.85907  0.61493  1.0000
  S   S138      1.0  0.43754  0.85459  0.57560  1.0000
  S   S139      1.0  0.49885  0.87093  0.67554  1.0000
  S   S140      1.0  0.43980  0.86477  0.65431  1.0000
  S   S141      1.0  0.58643  0.83222  0.51083  1.0000
  H   H541      1.0  0.40908  0.64625  0.91873  1.0000
  C   C453      1.0  0.40436  0.85756  0.56891  1.0000
  C   C454      1.0  0.38590  0.85741  0.58832  1.0000
  C   C455      1.0  0.35964  0.85828  0.58192  1.0000
  C   C456      1.0  0.35166  0.85941  0.55615  1.0000
  C   C457      1.0  0.37015  0.86025  0.53680  1.0000
  C   C458      1.0  0.39636  0.85932  0.54319  1.0000
  H   H542      1.0  0.39181  0.85604  0.60819  1.0000
  H   H543      1.0  0.34544  0.85764  0.59700  1.0000
  H   H544      1.0  0.36421  0.86126  0.51690  1.0000
  H   H545      1.0  0.41048  0.85985  0.52812  1.0000
  C   C459      1.0  0.56202  0.85581  0.59205  1.0000
  C   C460      1.0  0.58382  0.86704  0.58087  1.0000
  C   C461      1.0  0.59172  0.85990  0.55604  1.0000
  C   C462      1.0  0.57824  0.84096  0.54253  1.0000
  C   C463      1.0  0.55690  0.82923  0.55404  1.0000
  C   C464      1.0  0.54852  0.83691  0.57850  1.0000
  H   H546      1.0  0.59451  0.88150  0.59134  1.0000
  H   H547      1.0  0.60825  0.86900  0.54740  1.0000
  H   H548      1.0  0.54674  0.81420  0.54385  1.0000
  H   H549      1.0  0.53193  0.82787  0.58703  1.0000
  C   C465      1.0  0.46822  0.96584  0.66938  1.0000
  H   H550      1.0  0.47562  0.84523  0.53387  1.0000
  C   C466      1.0  0.49470  0.96916  0.66649  1.0000
  H   H551      1.0  0.42737  0.67259  0.97281  1.0000
  H   H552      1.0  0.50705  0.95252  0.66606  1.0000
  C   C467      1.0  0.48529  0.75559  0.76654  1.0000
  C   C468      1.0  0.46438  0.74843  0.75116  1.0000
  C   C469      1.0  0.45734  0.76345  0.72958  1.0000
  C   C470      1.0  0.47100  0.78589  0.72290  1.0000
  C   C471      1.0  0.49195  0.79305  0.73823  1.0000
  C   C472      1.0  0.49900  0.77801  0.75979  1.0000
  H   H553      1.0  0.45355  0.73135  0.75592  1.0000
  H   H554      1.0  0.44111  0.75759  0.71799  1.0000
  H   H555      1.0  0.50270  0.81019  0.73361  1.0000
  H   H556      1.0  0.51520  0.78384  0.77144  1.0000
  C   C473      1.0  0.48582  0.67937  0.94431  1.0000
  C   C474      1.0  0.45926  0.67644  0.94669  1.0000
  C   C475      1.0  0.50089  0.67994  0.96681  1.0000
  H   H557      1.0  0.44741  0.67616  0.92963  1.0000
  H   H558      1.0  0.52143  0.68232  0.96528  1.0000
  C   C476      1.0  0.59869  0.57751  0.82708  1.0000
  C   C477      1.0  0.59295  0.60366  0.83063  1.0000
  C   C478      1.0  0.56777  0.61283  0.82713  1.0000
  C   C479      1.0  0.54819  0.59590  0.81979  1.0000
  C   C480      1.0  0.55395  0.56979  0.81629  1.0000
  C   C481      1.0  0.57902  0.56059  0.82005  1.0000
  H   H559      1.0  0.60808  0.61687  0.83598  1.0000
  H   H560      1.0  0.56362  0.63302  0.82959  1.0000
  H   H561      1.0  0.53899  0.55656  0.81056  1.0000
  H   H562      1.0  0.58322  0.54046  0.81715  1.0000
  C   C482      1.0  0.37765  0.56524  0.83659  1.0000
  C   C483      1.0  0.40238  0.57307  0.84378  1.0000
  C   C484      1.0  0.40975  0.59899  0.84237  1.0000
  C   C485      1.0  0.39228  0.61749  0.83401  1.0000
  C   C486      1.0  0.36716  0.60982  0.82762  1.0000
  C   C487      1.0  0.35986  0.58374  0.82880  1.0000
  H   H563      1.0  0.41598  0.55891  0.85030  1.0000
  H   H564      1.0  0.42901  0.60460  0.84754  1.0000
  H   H565      1.0  0.35351  0.62405  0.82120  1.0000
  H   H566      1.0  0.49324  0.57099  0.77883  1.0000
  H   H567      1.0  0.51919  0.89331  0.56425  1.0000
  H   H568      1.0  0.47562  0.81070  0.48631  1.0000
  H   H569      1.0  0.38474  0.60935  0.76837  1.0000
  H   H570      1.0  0.53816  0.87917  0.54015  1.0000
  H   H571      1.0  0.47660  0.91594  0.53289  1.0000
  S   S142      1.0  0.37072  0.53198  0.83650  1.0000
  H   H572      1.0  0.47477  0.89698  0.56154  1.0000
  H   H573      1.0  0.46302  0.59934  0.78973  1.0000
  H   H574      1.0  0.34076  0.57790  0.82308  1.0000
  Fe  Fe70      1.0  0.62096  0.84908  0.49016  1.0000
  C   C488      1.0  0.39636  0.57020  0.77438  1.0000
  H   H575      1.0  0.62290  0.57138  0.93256  1.0000
  H   H576      1.0  0.51619  0.59988  0.89509  1.0000
  H   H577      1.0  0.47376  0.50669  0.79783  1.0000
  H   H578      1.0  0.42255  0.78196  0.77420  1.0000
  H   H579      1.0  0.57333  0.63963  0.87894  1.0000
  C   C489      1.0  0.56807  0.59592  0.90519  1.0000
  C   C490      1.0  0.36341  0.60467  0.89706  1.0000
  H   H580      1.0  0.54785  0.57541  0.87420  1.0000
  C   C491      1.0  0.46237  0.82836  0.79671  1.0000
  C   C492      1.0  0.43169  0.80064  0.77583  1.0000
  C   C493      1.0  0.44481  0.59043  0.78511  1.0000
  C   C494      1.0  0.32980  0.56132  0.89402  1.0000
  C   C495      1.0  0.42464  0.60668  0.77827  1.0000
  N   N32       1.0  0.43337  0.86517  0.74057  1.0000
  C   C496      1.0  0.41441  0.85807  0.72041  1.0000
  C   C497      1.0  0.42342  0.88810  0.75413  1.0000
  C   C498      1.0  0.45752  0.87229  0.72739  1.0000
  C   C499      1.0  0.43845  0.84432  0.75925  1.0000
  C   C500      1.0  0.42604  0.81997  0.75808  1.0000
  C   C501      1.0  0.45666  0.84797  0.77928  1.0000
  H   H581      1.0  0.50144  0.73228  0.71174  1.0000
  H   H582      1.0  0.38057  0.53666  0.92637  1.0000
  C   C502      1.0  0.49982  0.87935  0.50288  1.0000
  H   H583      1.0  0.41116  0.87408  0.70659  1.0000
  H   H584      1.0  0.42117  0.84143  0.70880  1.0000
  H   H585      1.0  0.39542  0.85323  0.72880  1.0000
  H   H586      1.0  0.40556  0.88340  0.76482  1.0000
  C   C503      1.0  0.52188  0.86852  0.49124  1.0000
  H   H587      1.0  0.43746  0.89605  0.76814  1.0000
  H   H588      1.0  0.46637  0.85507  0.71842  1.0000
  H   H589      1.0  0.45426  0.88689  0.71205  1.0000
  H   H590      1.0  0.47197  0.88080  0.74061  1.0000
  H   H591      1.0  0.41246  0.81501  0.74320  1.0000
  H   H592      1.0  0.46694  0.86589  0.78134  1.0000
  H   H593      1.0  0.38583  0.57445  0.95080  1.0000
  H   H594      1.0  0.32205  0.54077  0.93863  1.0000
  H   H595      1.0  0.47681  0.83128  0.81144  1.0000
  C   C504      1.0  0.44796  0.67446  0.97123  1.0000
  H   H596      1.0  0.59508  0.60903  0.93457  1.0000
  H   H597      1.0  0.58237  0.64591  0.91160  1.0000
  C   C505      1.0  0.56578  0.64191  0.89879  1.0000
  C   C506      1.0  0.37912  0.62647  0.89826  1.0000
  H   H598      1.0  0.55348  0.65942  0.89902  1.0000
  C   C507      1.0  0.36497  0.58504  0.91597  1.0000
  H   H599      1.0  0.53310  0.61624  0.86953  1.0000
  H   H600      1.0  0.57637  0.53884  0.87307  1.0000
  H   H601      1.0  0.42748  0.62733  0.77802  1.0000
  H   H602      1.0  0.49323  0.85327  0.56232  1.0000
  C   C508      1.0  0.44996  0.80472  0.79494  1.0000
  H   H603      1.0  0.37699  0.54091  0.89238  1.0000
  C   C509      1.0  0.57989  0.55412  0.88680  1.0000
  N   N33       1.0  0.55125  0.61875  0.90679  1.0000
  H   H604      1.0  0.51559  0.63408  0.89254  1.0000
  C   C510      1.0  0.54230  0.62239  0.93359  1.0000
  C   C511      1.0  0.56358  0.57539  0.88771  1.0000
  H   H605      1.0  0.52845  0.63858  0.93513  1.0000
  H   H606      1.0  0.53252  0.60481  0.94082  1.0000
  H   H607      1.0  0.55815  0.62714  0.94706  1.0000
  H   H608      1.0  0.47943  0.54893  0.75618  1.0000
  H   H609      1.0  0.52535  0.91065  0.53495  1.0000
  H   H610      1.0  0.41899  0.90400  0.74048  1.0000
  C   C512      1.0  0.47105  0.55247  0.82071  1.0000
  N   N34       1.0  0.34923  0.56131  0.91493  1.0000
  C   C513      1.0  0.49390  0.85376  0.54094  1.0000
  H   H611      1.0  0.44145  0.51345  0.80649  1.0000
  H   H612      1.0  0.45076  0.51302  0.77304  1.0000
  C   C514      1.0  0.38323  0.58868  0.93596  1.0000
  C   C515      1.0  0.52099  0.89135  0.54301  1.0000
  Fe  Fe71      1.0  0.63914  0.52407  0.83451  1.0000
  S   S143      1.0  0.64575  0.49737  0.80126  1.0000
  C   C516      1.0  0.48514  0.55133  0.77664  1.0000
  H   H613      1.0  0.50959  0.84084  0.53479  1.0000
  C   C517      1.0  0.60110  0.55267  0.90300  1.0000
  H   H614      1.0  0.50136  0.53803  0.78060  1.0000
  Fe  Fe72      1.0  0.33198  0.51185  0.83783  1.0000
  C   C518      1.0  0.45690  0.51876  0.79271  1.0000
  H   H615      1.0  0.37729  0.56250  0.77112  1.0000
  C   C519      1.0  0.59007  0.59395  0.92121  1.0000
  H   H616      1.0  0.47548  0.57315  0.82352  1.0000
  C   C520      1.0  0.40050  0.59658  0.77285  1.0000
  H   H617      1.0  0.32836  0.91207  0.53944  1.0000
  H   H618      1.0  0.45672  0.88730  0.53455  1.0000
  H   H619      1.0  0.41146  0.53365  0.78286  1.0000
  H   H620      1.0  0.35516  0.52067  0.90970  1.0000
  N   N35       1.0  0.55071  0.79312  0.66810  1.0000
  C   C521      1.0  0.54034  0.78602  0.64248  1.0000
  C   C522      1.0  0.53603  0.81524  0.67813  1.0000
  C   C523      1.0  0.57762  0.80179  0.66431  1.0000
  C   C524      1.0  0.54805  0.77135  0.68619  1.0000
  C   C525      1.0  0.56888  0.76185  0.70108  1.0000
  C   C526      1.0  0.52367  0.75993  0.69046  1.0000
  C   C527      1.0  0.56524  0.74237  0.71924  1.0000
  C   C528      1.0  0.52035  0.74032  0.70845  1.0000
  C   C529      1.0  0.54100  0.73175  0.72303  1.0000
  H   H621      1.0  0.54315  0.80177  0.62823  1.0000
  H   H622      1.0  0.54994  0.76854  0.63488  1.0000
  H   H623      1.0  0.51937  0.78221  0.64282  1.0000
  H   H624      1.0  0.51514  0.81104  0.67932  1.0000
  H   H625      1.0  0.53832  0.83242  0.66566  1.0000
  H   H626      1.0  0.54256  0.82061  0.69778  1.0000
  H   H627      1.0  0.58984  0.78595  0.65690  1.0000
  H   H628      1.0  0.57887  0.81777  0.65005  1.0000
  H   H629      1.0  0.58614  0.80949  0.68236  1.0000
  H   H630      1.0  0.58809  0.76938  0.69938  1.0000
  H   H631      1.0  0.50671  0.76664  0.68055  1.0000
  H   H632      1.0  0.58122  0.73566  0.73075  1.0000
  S   S144      1.0  0.32910  0.48677  0.87263  1.0000
  H   H633      1.0  0.53807  0.71712  0.73756  1.0000
  N   N36       1.0  0.49745  0.88023  0.53120  1.0000
  C   C530      1.0  0.36624  0.53895  0.91076  1.0000
  H   H634      1.0  0.48856  0.54165  0.82634  1.0000
  C   C531      1.0  0.47547  0.89591  0.54020  1.0000
  H   H635      1.0  0.33890  0.56189  0.87476  1.0000
  C   C532      1.0  0.60620  0.57255  0.92016  1.0000
  H   H636      1.0  0.61379  0.53619  0.90206  1.0000
  H   H637      1.0  0.46219  0.89563  0.49307  1.0000
  H   H638      1.0  0.53727  0.86043  0.50261  1.0000
  H   H639      1.0  0.37790  0.64104  0.88340  1.0000
  S   S145      1.0  0.61561  0.49575  0.85646  1.0000
  N   N37       1.0  0.46308  0.54662  0.79400  1.0000
  H   H640      1.0  0.45562  0.54758  0.83453  1.0000
  C   C533      1.0  0.44137  0.56339  0.78665  1.0000
  C   C534      1.0  0.41637  0.55374  0.78126  1.0000
  C   C535      1.0  0.33521  0.55770  0.93945  1.0000
  H   H641      1.0  0.34035  0.94033  0.55427  1.0000
  C   C536      1.0  0.39880  0.61061  0.93700  1.0000
  C   C537      1.0  0.32409  0.93273  0.54273  1.0000
  C   C538      1.0  0.39679  0.62941  0.91812  1.0000
  H   H642      1.0  0.43723  0.83010  0.50608  1.0000
  H   H643      1.0  0.32446  0.94244  0.52374  1.0000
  H   H644      1.0  0.32767  0.97362  0.57957  1.0000
  H   H645      1.0  0.43212  0.98559  0.67280  1.0000
  H   H646      1.0  0.34818  0.55423  0.95599  1.0000
  H   H647      1.0  0.41264  0.61302  0.95242  1.0000
  H   H648      1.0  0.32328  0.57481  0.94397  1.0000
  C   C539      1.0  0.67634  0.39178  0.04950  1.0000
  S   S146      1.0  0.68350  0.46279  0.09731  1.0000
  H   H649      1.0  0.65499  0.15500  0.39334  1.0000
  S   S147      1.0  0.91984  0.46897  0.29605  1.0000
  H   H650      1.0  0.66957  0.22227  0.37653  1.0000
  N   N38       1.0  0.88814  0.47611  0.20983  1.0000
  H   H651      1.0  0.96981  0.44842  0.30569  1.0000
  H   H652      1.0  0.93539  0.35271  0.36166  1.0000
  H   H653      1.0  0.87600  0.43974  0.44552  1.0000
  N   N39       1.0  0.67447  0.41254  0.03003  1.0000
  S   S148      1.0  0.81283  0.45326  0.36208  1.0000
  S   S149      1.0  0.84591  0.45903  0.29214  1.0000
  Fe  Fe73      1.0  0.85016  0.32994  0.43889  1.0000
  S   S150      1.0  0.86700  0.29172  0.45046  1.0000
  S   S151      1.0  0.85812  0.34613  0.39935  1.0000
  C   C540      1.0  0.92821  0.35976  0.38047  1.0000
  C   C541      1.0  0.74267  0.22342  0.44893  1.0000
  S   S152      1.0  0.68245  0.04949  0.45304  1.0000
  C   C542      1.0  0.78090  0.23127  0.47522  1.0000
  H   H654      1.0  0.70261  0.43443  0.05146  1.0000
  S   S153      1.0  0.81332  0.32410  0.46059  1.0000
  H   H655      1.0  0.67735  0.22114  0.40991  1.0000
  H   H656      1.0  0.65580  0.19321  0.43910  1.0000
  H   H657      1.0  0.67471  0.17575  0.37422  1.0000
  C   C543      1.0  0.82543  0.42330  0.37181  1.0000
  C   C544      1.0  0.81339  0.40977  0.39176  1.0000
  C   C545      1.0  0.82349  0.38637  0.40078  1.0000
  C   C546      1.0  0.84534  0.37596  0.38933  1.0000
  C   C547      1.0  0.85708  0.38925  0.36903  1.0000
  C   C548      1.0  0.84737  0.41297  0.36050  1.0000
  H   H658      1.0  0.79602  0.41736  0.40006  1.0000
  H   H659      1.0  0.81397  0.37604  0.41604  1.0000
  H   H660      1.0  0.87369  0.38119  0.35970  1.0000
  H   H661      1.0  0.85670  0.42314  0.34499  1.0000
  H   H662      1.0  0.65430  0.43580  0.05743  1.0000
  C   C549      1.0  0.97256  0.46681  0.29643  1.0000
  H   H663      1.0  0.86285  0.40764  0.44542  1.0000
  H   H664      1.0  0.81898  0.40034  0.46250  1.0000
  H   H665      1.0  0.92999  0.38106  0.38124  1.0000
  H   H666      1.0  0.94573  0.31092  0.38312  1.0000
  H   H667      1.0  0.76958  0.25482  0.44327  1.0000
  H   H668      1.0  0.69749  0.44585  0.01995  1.0000
  H   H669      1.0  0.88642  0.44216  0.23366  1.0000
  H   H670      1.0  0.82280  0.46387  0.42382  1.0000
  C   C550      1.0  0.95102  0.48179  0.29012  1.0000
  C   C551      1.0  0.91636  0.47738  0.20687  1.0000
  H   H671      1.0  0.80594  0.42617  0.44398  1.0000
  H   H672      1.0  0.91567  0.31504  0.39959  1.0000
  H   H673      1.0  0.68744  0.99889  0.43160  1.0000
  H   H674      1.0  0.93689  0.34644  0.44366  1.0000
  H   H675      1.0  0.85857  0.46188  0.23518  1.0000
  S   S154      1.0  0.66759  0.12121  0.43824  1.0000
  C   C552      1.0  0.93010  0.35703  0.42638  1.0000
  H   H676      1.0  0.85520  0.46090  0.18977  1.0000
  N   N40       1.0  0.94170  0.34730  0.40230  1.0000
  C   C553      1.0  0.95750  0.28781  0.46766  1.0000
  C   C554      1.0  0.67054  0.40310  0.00348  1.0000
  C   C555      1.0  0.93369  0.46668  0.22507  1.0000
  S   S155      1.0  0.86926  0.35178  0.47047  1.0000
  C   C556      1.0  0.76480  0.23822  0.45480  1.0000
  H   H677      1.0  0.94409  0.30862  0.41744  1.0000
  H   H678      1.0  0.69250  0.37856  0.04533  1.0000
  C   C557      1.0  0.81576  0.42150  0.46231  1.0000
  H   H679      1.0  0.97225  0.37630  0.36792  1.0000
  H   H680      1.0  0.88427  0.44274  0.18582  1.0000
  C   C558      1.0  0.66113  0.21982  0.39592  1.0000
  C   C559      1.0  0.67413  0.01864  0.46540  1.0000
  H   H681      1.0  0.90882  0.35484  0.42618  1.0000
  S   S156      1.0  0.70782  0.18334  0.45454  1.0000
  H   H682      1.0  0.68087  0.17284  0.40761  1.0000
  Fe  Fe74      1.0  0.83108  0.28716  0.47481  1.0000
  Fe  Fe75      1.0  0.83035  0.47541  0.32873  1.0000
  C   C560      1.0  0.83708  0.48035  0.48591  1.0000
  H   H683      1.0  0.92733  0.45650  0.24196  1.0000
  H   H684      1.0  0.94037  0.27841  0.46054  1.0000
  H   H685      1.0  0.93455  0.37774  0.42927  1.0000
  H   H686      1.0  0.90731  0.35543  0.38063  1.0000
  H   H687      1.0  0.71520  0.41672  0.02463  1.0000
  C   C561      1.0  0.98238  0.36721  0.38354  1.0000
  C   C562      1.0  0.93666  0.31928  0.40052  1.0000
  C   C563      1.0  0.87986  0.46247  0.23343  1.0000
  H   H688      1.0  0.78961  0.46473  0.18216  1.0000
  C   C564      1.0  0.82594  0.47520  0.44100  1.0000
  N   N41       1.0  0.84009  0.43593  0.46543  1.0000
  C   C565      1.0  0.96972  0.35216  0.40252  1.0000
  Fe  Fe76      1.0  0.68359  0.14836  0.46847  1.0000
  C   C566      1.0  0.67898  0.99667  0.45040  1.0000
  C   C567      1.0  0.87646  0.46252  0.18765  1.0000
  H   H689      1.0  0.73072  0.22893  0.43288  1.0000
  H   H690      1.0  0.67966  0.39971  0.06915  1.0000
  Fe  Fe77      1.0  0.67086  0.08942  0.46774  1.0000
  C   C568      1.0  0.73601  0.20145  0.46338  1.0000
  H   H691      1.0  0.98341  0.26446  0.44530  1.0000
  C   C569      1.0  0.69846  0.42793  0.03152  1.0000
  H   H692      1.0  0.84959  0.43135  0.42512  1.0000
  C   C570      1.0  0.85790  0.42843  0.44454  1.0000
  H   H693      1.0  0.97301  0.46174  0.23687  1.0000
  C   C571      1.0  0.66514  0.17380  0.39311  1.0000
  C   C572      1.0  0.97031  0.48275  0.20152  1.0000
  C   C573      1.0  0.83470  0.46385  0.46422  1.0000
  S   S157      1.0  0.80747  0.48301  0.23150  1.0000
  C   C574      1.0  0.66678  0.37670  0.99746  1.0000
  H   H694      1.0  0.65812  0.38065  0.05090  1.0000
  H   H695      1.0  0.66681  0.36193  0.01197  1.0000
  Fe  Fe78      1.0  0.88434  0.31364  0.48351  1.0000
  C   C575      1.0  0.77457  0.47676  0.18974  1.0000
  H   H696      1.0  0.88720  0.47220  0.25099  1.0000
  H   H697      1.0  0.87986  0.47265  0.16922  1.0000
  C   C576      1.0  0.98194  0.27984  0.45917  1.0000
  C   C577      1.0  0.96021  0.46946  0.22235  1.0000
  H   H698      1.0  0.80217  0.42592  0.47815  1.0000
  H   H699      1.0  0.74989  0.47145  0.15646  1.0000
  C   C578      1.0  0.75193  0.19471  0.48400  1.0000
  C   C579      1.0  0.75192  0.48052  0.17503  1.0000
  H   H700      1.0  0.97704  0.33007  0.43726  1.0000
  C   C580      1.0  0.65259  0.42905  0.03730  1.0000
  C   C581      1.0  0.95540  0.30752  0.48581  1.0000
  H   H701      1.0  0.74160  0.29759  0.48388  1.0000
  S   S158      1.0  0.80919  0.24927  0.48389  1.0000
  C   C582      1.0  0.98532  0.34152  0.42214  1.0000
  Fe  Fe79      1.0  0.87935  0.48616  0.29815  1.0000
  H   H702      1.0  0.78628  0.20372  0.50563  1.0000
  S   S159      1.0  0.92552  0.31806  0.49824  1.0000
  Fe  Fe80      1.0  0.85131  0.45664  0.63597  1.0000
  S   S160      1.0  0.85574  0.41504  0.62348  1.0000
  H   H703      1.0  0.73198  0.27834  0.54102  1.0000
  H   H704      1.0  0.83803  0.27777  0.58049  1.0000
  H   H705      1.0  0.91739  0.37510  0.56044  1.0000
  H   H706      1.0  0.75366  0.34551  0.53221  1.0000
  S   S161      1.0  0.85015  0.30639  0.50911  1.0000
  S   S162      1.0  0.81496  0.37553  0.51517  1.0000
  C   C583      1.0  0.74910  0.42077  0.73259  1.0000
  H   H707      1.0  0.80236  0.42728  0.64438  1.0000
  C   C584      1.0  0.74272  0.37639  0.72103  1.0000
  H   H708      1.0  0.73275  0.35832  0.72392  1.0000
  H   H709      1.0  0.72163  0.39596  0.75069  1.0000
  H   H710      1.0  0.76571  0.36132  0.69127  1.0000
  H   H711      1.0  0.82538  0.39832  0.70634  1.0000
  H   H712      1.0  0.81589  0.38443  0.64903  1.0000
  C   C585      1.0  0.84549  0.40518  0.59259  1.0000
  C   C586      1.0  0.82701  0.41899  0.57891  1.0000
  C   C587      1.0  0.81788  0.40971  0.55519  1.0000
  C   C588      1.0  0.82761  0.38692  0.54462  1.0000
  C   C589      1.0  0.84664  0.37348  0.55793  1.0000
  C   C590      1.0  0.85523  0.38238  0.58201  1.0000
  H   H713      1.0  0.81932  0.43656  0.58685  1.0000
  H   H714      1.0  0.80316  0.42023  0.54504  1.0000
  H   H715      1.0  0.85438  0.35598  0.54990  1.0000
  H   H716      1.0  0.86952  0.37156  0.59249  1.0000
  C   C591      1.0  0.77511  0.40195  0.69815  1.0000
  H   H717      1.0  0.80718  0.36537  0.67606  1.0000
  H   H718      1.0  0.83591  0.41389  0.67740  1.0000
  N   N42       1.0  0.79546  0.40500  0.67861  1.0000
  H   H719      1.0  0.81852  0.43161  0.70087  1.0000
  C   C592      1.0  0.81982  0.41251  0.69138  1.0000
  S   S163      1.0  0.85740  0.46780  0.67744  1.0000
  C   C593      1.0  0.75642  0.33301  0.51513  1.0000
  N   N43       1.0  0.75688  0.30529  0.52195  1.0000
  C   C594      1.0  0.65820  0.99050  0.49917  1.0000
  C   C595      1.0  0.73324  0.29920  0.53641  1.0000
  H   H720      1.0  0.82674  0.32368  0.57626  1.0000
  C   C596      1.0  0.77936  0.29813  0.53787  1.0000
  C   C597      1.0  0.79447  0.31663  0.55128  1.0000
  C   C598      1.0  0.78584  0.27193  0.54163  1.0000
  C   C599      1.0  0.81519  0.30922  0.56665  1.0000
  C   C600      1.0  0.80685  0.26478  0.55668  1.0000
  C   C601      1.0  0.82154  0.28338  0.56913  1.0000
  H   H721      1.0  0.95990  0.36221  0.54730  1.0000
  C   C602      1.0  0.93046  0.40115  0.58969  1.0000
  C   C603      1.0  0.66207  0.38651  0.95220  1.0000
  S   S164      1.0  0.66114  0.45351  0.84431  1.0000
  H   H722      1.0  0.84292  0.47350  0.50459  1.0000
  C   C604      1.0  0.85196  0.42772  0.49006  1.0000
  H   H723      1.0  0.87017  0.43822  0.49392  1.0000
  H   H724      1.0  0.94880  0.42549  0.61752  1.0000
  Fe  Fe81      1.0  0.83427  0.34311  0.49346  1.0000
  C   C605      1.0  0.66554  0.41248  0.95750  1.0000
  H   H725      1.0  0.77531  0.29195  0.48758  1.0000
  H   H726      1.0  0.73269  0.30984  0.55494  1.0000
  H   H727      1.0  0.91123  0.40664  0.59543  1.0000
  S   S165      1.0  0.68998  0.11582  0.49671  1.0000
  H   H728      1.0  0.78318  0.37508  0.65264  1.0000
  H   H729      1.0  0.93752  0.46485  0.65408  1.0000
  H   H730      1.0  0.97632  0.33449  0.50897  1.0000
  C   C606      1.0  0.73640  0.39752  0.73615  1.0000
  H   H731      1.0  0.76910  0.42141  0.65134  1.0000
  H   H732      1.0  0.74415  0.43722  0.74438  1.0000
  C   C607      1.0  0.97908  0.46625  0.65356  1.0000
  H   H733      1.0  0.78695  0.44469  0.66941  1.0000
  H   H734      1.0  0.75217  0.26990  0.50026  1.0000
  H   H735      1.0  0.74043  0.33771  0.50178  1.0000
  C   C608      1.0  0.95167  0.41174  0.60213  1.0000
  H   H736      1.0  0.77512  0.25661  0.53255  1.0000
  C   C609      1.0  0.80049  0.38131  0.66354  1.0000
  H   H737      1.0  0.79100  0.33700  0.54993  1.0000
  C   C610      1.0  0.76178  0.37842  0.70226  1.0000
  C   C611      1.0  0.78813  0.42544  0.66020  1.0000
  H   H738      1.0  0.81198  0.24467  0.55828  1.0000
  C   C612      1.0  0.76815  0.42300  0.71393  1.0000
  H   H739      1.0  0.77745  0.44144  0.71191  1.0000
  C   C613      1.0  0.95873  0.37617  0.56260  1.0000
  H   H740      1.0  0.77455  0.33881  0.50543  1.0000
  H   H741      1.0  0.74731  0.17795  0.49537  1.0000
  H   H742      1.0  0.83873  0.43052  0.50655  1.0000
  H   H743      1.0  0.71571  0.30422  0.52526  1.0000
  C   C614      1.0  0.75650  0.29060  0.49748  1.0000
  C   C615      1.0  0.93399  0.38341  0.56999  1.0000
  C   C616      1.0  0.73903  0.48639  0.77308  1.0000
  C   C617      1.0  0.97789  0.31924  0.49507  1.0000
  H   H744      1.0  0.65882  0.38030  0.93258  1.0000
  H   H745      1.0  0.65957  0.03206  0.50157  1.0000
  H   H746      1.0  0.66483  0.42646  0.94203  1.0000
  C   C618      1.0  0.97650  0.40463  0.59497  1.0000
  H   H747      1.0  0.85648  0.40682  0.49007  1.0000
  C   C619      1.0  0.98084  0.38668  0.57489  1.0000
  Fe  Fe82      1.0  0.68156  0.48537  0.82218  1.0000
  C   C620      1.0  0.95436  0.47651  0.65759  1.0000
  H   H748      1.0  0.98103  0.44666  0.64702  1.0000
  C   C621      1.0  0.66271  0.36865  0.97211  1.0000
  H   H749      1.0  0.77556  0.47789  0.79051  1.0000
  Fe  Fe83      1.0  0.65252  0.48317  0.87508  1.0000
  C   C622      1.0  0.66332  0.01541  0.48973  1.0000
  H   H750      1.0  0.65993  0.34844  0.96788  1.0000
  C   C623      1.0  0.66974  0.42069  0.98269  1.0000
  C   C624      1.0  0.77414  0.20944  0.48978  1.0000
  C   C625      1.0  0.65508  0.48469  0.94848  1.0000
  S   S166      1.0  0.81604  0.48062  0.63136  1.0000
  C   C626      1.0  0.76585  0.48274  0.77280  1.0000
  S   S167      1.0  0.72191  0.48296  0.80300  1.0000
  C   C627      1.0  0.78035  0.48536  0.74992  1.0000
  H   H751      1.0  0.80087  0.48251  0.75035  1.0000
  H   H752      1.0  0.67217  0.44106  0.98576  1.0000
  H   H753      1.0  0.95704  0.62557  0.40743  1.0000
  H   H754      1.0  0.96188  0.50337  0.16687  1.0000
  H   H755      1.0  0.93581  0.64506  0.38861  1.0000
  C   C628      1.0  0.82363  0.51717  0.46090  1.0000
  Fe  Fe84      1.0  0.82034  0.69911  0.47313  1.0000
  C   C629      1.0  0.73551  0.50772  0.20857  1.0000
  H   H756      1.0  0.85668  0.50251  0.21523  1.0000
  Fe  Fe85      1.0  0.83976  0.64433  0.45958  1.0000
  S   S168      1.0  0.84673  0.68323  0.44239  1.0000
  S   S169      1.0  0.83136  0.60553  0.44112  1.0000
  Fe  Fe86      1.0  0.66603  0.49268  0.07103  1.0000
  S   S170      1.0  0.78538  0.72344  0.45974  1.0000
  H   H757      1.0  0.65801  0.53218  0.15747  1.0000
  S   S171      1.0  0.91821  0.70002  0.45654  1.0000
  H   H758      1.0  0.93861  0.51709  0.27270  1.0000
  H   H759      1.0  0.96834  0.70651  0.43477  1.0000
  C   C630      1.0  0.90638  0.58531  0.48010  1.0000
  S   S172      1.0  0.86478  0.50032  0.33616  1.0000
  C   C631      1.0  0.67183  0.49515  0.99960  1.0000
  S   S173      1.0  0.68418  0.49919  0.03141  1.0000
  H   H760      1.0  0.92673  0.58735  0.39935  1.0000
  Fe  Fe87      1.0  0.82554  0.49160  0.27162  1.0000
  S   S174      1.0  0.67616  0.87785  0.44934  1.0000
  C   C632      1.0  0.72856  0.77821  0.45881  1.0000
  H   H761      1.0  0.76012  0.51287  0.24193  1.0000
  H   H762      1.0  0.73879  0.74389  0.43785  1.0000
  C   C633      1.0  0.74412  0.75657  0.45342  1.0000
  C   C634      1.0  0.95494  0.50545  0.27795  1.0000
  H   H763      1.0  0.80574  0.65102  0.42098  1.0000
  Fe  Fe88      1.0  0.84354  0.52990  0.31329  1.0000
  S   S175      1.0  0.84402  0.57214  0.32446  1.0000
  S   S176      1.0  0.86038  0.51759  0.27535  1.0000
  H   H764      1.0  0.72494  0.64988  0.40896  1.0000
  H   H765      1.0  0.77486  0.56036  0.38902  1.0000
  C   C635      1.0  0.90305  0.59539  0.45546  1.0000
  C   C636      1.0  0.73507  0.79516  0.47872  1.0000
  C   C637      1.0  0.91135  0.60211  0.39955  1.0000
  C   C638      1.0  0.82073  0.50148  0.43940  1.0000
  C   C639      1.0  0.83625  0.59689  0.40867  1.0000
  C   C640      1.0  0.84025  0.61519  0.38944  1.0000
  C   C641      1.0  0.84310  0.60733  0.36374  1.0000
  C   C642      1.0  0.84196  0.58118  0.35709  1.0000
  C   C643      1.0  0.83848  0.56289  0.37640  1.0000
  C   C644      1.0  0.83561  0.57075  0.40205  1.0000
  H   H766      1.0  0.84063  0.63539  0.39417  1.0000
  H   H767      1.0  0.84565  0.62156  0.34884  1.0000
  H   H768      1.0  0.83751  0.54272  0.37149  1.0000
  H   H769      1.0  0.83259  0.55649  0.41679  1.0000
  C   C645      1.0  0.76640  0.75119  0.46789  1.0000
  C   C646      1.0  0.97071  0.69602  0.45253  1.0000
  C   C647      1.0  0.94702  0.60718  0.48376  1.0000
  H   H770      1.0  0.72054  0.51984  0.21610  1.0000
  H   H771      1.0  0.74140  0.92385  0.46590  1.0000
  H   H772      1.0  0.66950  0.53389  0.20144  1.0000
  C   C648      1.0  0.94894  0.68965  0.46715  1.0000
  H   H773      1.0  0.89294  0.59215  0.40373  1.0000
  H   H774      1.0  0.74486  0.67229  0.39192  1.0000
  C   C649      1.0  0.77793  0.48828  0.21408  1.0000
  C   C650      1.0  0.92169  0.61176  0.44415  1.0000
  C   C651      1.0  0.89516  0.64053  0.41944  1.0000
  S   S177      1.0  0.70305  0.50228  0.16634  1.0000
  S   S178      1.0  0.66490  0.52233  0.10288  1.0000
  C   C652      1.0  0.83163  0.50660  0.48412  1.0000
  Fe  Fe89      1.0  0.67929  0.49126  0.12988  1.0000
  C   C653      1.0  0.66319  0.96851  0.48425  1.0000
  S   S179      1.0  0.80764  0.50621  0.30825  1.0000
  H   H775      1.0  0.90913  0.60970  0.37968  1.0000
  N   N44       1.0  0.91726  0.62282  0.41831  1.0000
  N   N45       1.0  0.76524  0.64586  0.41670  1.0000
  C   C654      1.0  0.74260  0.66185  0.41037  1.0000
  C   C655      1.0  0.76150  0.63564  0.44307  1.0000
  C   C656      1.0  0.78826  0.66258  0.41731  1.0000
  C   C657      1.0  0.76872  0.62563  0.39700  1.0000
  C   C658      1.0  0.76943  0.59899  0.40302  1.0000
  C   C659      1.0  0.77249  0.63245  0.37088  1.0000
  C   C660      1.0  0.77367  0.58052  0.38398  1.0000
  C   C661      1.0  0.77694  0.61382  0.35206  1.0000
  C   C662      1.0  0.77756  0.58792  0.35861  1.0000
  Fe  Fe90      1.0  0.65357  0.89734  0.48047  1.0000
  H   H776      1.0  0.91539  0.49896  0.17098  1.0000
  C   C663      1.0  0.66409  0.55463  0.20186  1.0000
  H   H777      1.0  0.74419  0.62317  0.44425  1.0000
  H   H778      1.0  0.75892  0.65139  0.45736  1.0000
  H   H779      1.0  0.77852  0.62454  0.44969  1.0000
  C   C664      1.0  0.87762  0.50254  0.21096  1.0000
  H   H780      1.0  0.78699  0.67731  0.43271  1.0000
  H   H781      1.0  0.79118  0.67327  0.39912  1.0000
  C   C665      1.0  0.73213  0.49614  0.18425  1.0000
  H   H782      1.0  0.77265  0.65230  0.36490  1.0000
  H   H783      1.0  0.95871  0.63038  0.45267  1.0000
  H   H784      1.0  0.78060  0.61945  0.33237  1.0000
  H   H785      1.0  0.78184  0.57360  0.34410  1.0000
  H   H786      1.0  0.68189  0.56533  0.19679  1.0000
  H   H787      1.0  0.65864  0.55913  0.22198  1.0000
  H   H788      1.0  0.66231  0.60244  0.21186  1.0000
  H   H789      1.0  0.94353  0.65491  0.42036  1.0000
  Fe  Fe91      1.0  0.87898  0.68660  0.47136  1.0000
  H   H790      1.0  0.88533  0.59083  0.44564  1.0000
  H   H791      1.0  0.76754  0.59190  0.42238  1.0000
  C   C666      1.0  0.93949  0.63762  0.40832  1.0000
  C   C667      1.0  0.67332  0.97178  0.45962  1.0000
  H   H792      1.0  0.71160  0.78187  0.44741  1.0000
  H   H793      1.0  0.87752  0.63079  0.42619  1.0000
  C   C668      1.0  0.94380  0.61754  0.45919  1.0000
  H   H794      1.0  0.73931  0.67693  0.42523  1.0000
  C   C669      1.0  0.72775  0.91208  0.47733  1.0000
  H   H795      1.0  0.89895  0.65651  0.43306  1.0000
  H   H796      1.0  0.81426  0.50963  0.42134  1.0000
  H   H797      1.0  0.89075  0.64914  0.40039  1.0000
  C   C670      1.0  0.95392  0.49303  0.18306  1.0000
  H   H798      1.0  0.66824  0.56452  0.15129  1.0000
  H   H799      1.0  0.70823  0.92036  0.47464  1.0000
  H   H800      1.0  0.81946  0.53755  0.45965  1.0000
  Fe  Fe92      1.0  0.67806  0.84280  0.47506  1.0000
  C   C671      1.0  0.75806  0.50377  0.22337  1.0000
  H   H801      1.0  0.96374  0.76798  0.46576  1.0000
  H   H802      1.0  0.88735  0.51400  0.22621  1.0000
  H   H803      1.0  0.67742  0.95512  0.44793  1.0000
  H   H804      1.0  0.72722  0.89256  0.46868  1.0000
  H   H805      1.0  0.87985  0.51309  0.19260  1.0000
  C   C672      1.0  0.97454  0.75888  0.48105  1.0000
  C   C673      1.0  0.92734  0.49038  0.18559  1.0000
  H   H806      1.0  0.98275  0.53154  0.26159  1.0000
  C   C674      1.0  0.98003  0.51357  0.27162  1.0000
  S   S180      1.0  0.71662  0.82343  0.48619  1.0000
  C   C675      1.0  0.93945  0.62388  0.55350  1.0000
  S   S181      1.0  0.67575  0.51361  0.85491  1.0000
  C   C676      1.0  0.68857  0.49784  0.97858  1.0000
  C   C677      1.0  0.93092  0.58530  0.59111  1.0000
  H   H807      1.0  0.72310  0.57102  0.82297  1.0000
  H   H808      1.0  0.93428  0.53426  0.58656  1.0000
  H   H809      1.0  0.72280  0.89247  0.53931  1.0000
  C   C678      1.0  0.73244  0.93802  0.51501  1.0000
  C   C679      1.0  0.76835  0.49185  0.72670  1.0000
  Fe  Fe93      1.0  0.88153  0.50001  0.66117  1.0000
  H   H810      1.0  0.94095  0.74212  0.49817  1.0000
  S   S182      1.0  0.78574  0.49541  0.69694  1.0000
  C   C680      1.0  0.68263  0.54724  0.77787  1.0000
  Fe  Fe94      1.0  0.84290  0.51211  0.61890  1.0000
  S   S183      1.0  0.83818  0.53197  0.58029  1.0000
  S   S184      1.0  0.84777  0.52739  0.65902  1.0000
  Fe  Fe95      1.0  0.84591  0.66447  0.51393  1.0000
  C   C681      1.0  0.97722  0.67009  0.49880  1.0000
  S   S185      1.0  0.84633  0.65147  0.55550  1.0000
  C   C682      1.0  0.80658  0.90425  0.52072  1.0000
  C   C683      1.0  0.71693  0.89485  0.51890  1.0000
  H   H811      1.0  0.93078  0.58334  0.51333  1.0000
  H   H812      1.0  0.78831  0.54071  0.77098  1.0000
  H   H813      1.0  0.97192  0.53556  0.67916  1.0000
  C   C684      1.0  0.74962  0.55196  0.78000  1.0000
  C   C685      1.0  0.72699  0.49254  0.74977  1.0000
  H   H814      1.0  0.96395  0.61204  0.49491  1.0000
  C   C686      1.0  0.83948  0.56538  0.57413  1.0000
  C   C687      1.0  0.83939  0.58364  0.59385  1.0000
  C   C688      1.0  0.84114  0.61002  0.58793  1.0000
  C   C689      1.0  0.84288  0.61833  0.56231  1.0000
  C   C690      1.0  0.84275  0.60005  0.54263  1.0000
  C   C691      1.0  0.84104  0.57374  0.54854  1.0000
  H   H815      1.0  0.83788  0.57746  0.61361  1.0000
  H   H816      1.0  0.84116  0.62407  0.60324  1.0000
  H   H817      1.0  0.84399  0.60619  0.52285  1.0000
  H   H818      1.0  0.84097  0.55977  0.53318  1.0000
  C   C692      1.0  0.91465  0.61543  0.55862  1.0000
  H   H819      1.0  0.69359  0.49437  0.93741  1.0000
  H   H820      1.0  0.75216  0.54548  0.79952  1.0000
  H   H821      1.0  0.68910  0.52689  0.77880  1.0000
  H   H822      1.0  0.82210  0.91526  0.52924  1.0000
  H   H823      1.0  0.93714  0.52685  0.62008  1.0000
  C   C693      1.0  0.96014  0.61304  0.56651  1.0000
  H   H824      1.0  0.78495  0.55229  0.72516  1.0000
  C   C694      1.0  0.74595  0.56525  0.72818  1.0000
  H   H825      1.0  0.78980  0.76440  0.49930  1.0000
  C   C695      1.0  0.97377  0.51627  0.67169  1.0000
  N   N46       1.0  0.92694  0.56611  0.61174  1.0000
  N   N47       1.0  0.70303  0.56477  0.78720  1.0000
  H   H826      1.0  0.68630  0.59688  0.76672  1.0000
  C   C696      1.0  0.70781  0.55860  0.81463  1.0000
  Fe  Fe96      1.0  0.82306  0.49384  0.67228  1.0000
  S   S186      1.0  0.85335  0.70535  0.50093  1.0000
  H   H827      1.0  0.69719  0.90294  0.51874  1.0000
  H   H828      1.0  0.77995  0.93444  0.52542  1.0000
  H   H829      1.0  0.67671  0.59434  0.79928  1.0000
  C   C697      1.0  0.68026  0.49282  0.95320  1.0000
  H   H830      1.0  0.70857  0.60547  0.79175  1.0000
  C   C698      1.0  0.89957  0.55933  0.61592  1.0000
  C   C699      1.0  0.72481  0.56848  0.74430  1.0000
  C   C700      1.0  0.94070  0.54204  0.60542  1.0000
  S   S187      1.0  0.81160  0.65940  0.48838  1.0000
  H   H831      1.0  0.97945  0.61967  0.56246  1.0000
  C   C701      1.0  0.76687  0.87570  0.49877  1.0000
  C   C702      1.0  0.93712  0.57640  0.63633  1.0000
  C   C703      1.0  0.95601  0.59404  0.58507  1.0000
  C   C704      1.0  0.74151  0.49529  0.72691  1.0000
  H   H832      1.0  0.95823  0.57925  0.63597  1.0000
  H   H833      1.0  0.93331  0.56310  0.65263  1.0000
  S   S188      1.0  0.92089  0.51499  0.67393  1.0000
  H   H834      1.0  0.83344  0.51880  0.50096  1.0000
  H   H835      1.0  0.89729  0.54500  0.63162  1.0000
  H   H836      1.0  0.92809  0.59514  0.64114  1.0000
  H   H837      1.0  0.76278  0.80261  0.50863  1.0000
  C   C705      1.0  0.91036  0.59629  0.57694  1.0000
  H   H838      1.0  0.74448  0.56973  0.70791  1.0000
  C   C706      1.0  0.95156  0.50150  0.66709  1.0000
  H   H839      1.0  0.89074  0.55053  0.59849  1.0000
  H   H840      1.0  0.88810  0.57637  0.62166  1.0000
  C   C707      1.0  0.72598  0.56197  0.77076  1.0000
  H   H841      1.0  0.71241  0.94519  0.51273  1.0000
  H   H842      1.0  0.89850  0.62400  0.54857  1.0000
  C   C708      1.0  0.77069  0.54904  0.76373  1.0000
  C   C709      1.0  0.75741  0.78984  0.49314  1.0000
  C   C710      1.0  0.95231  0.67623  0.49016  1.0000
  C   C711      1.0  0.96161  0.74440  0.49938  1.0000
  H   H843      1.0  0.94254  0.63891  0.53947  1.0000
  H   H844      1.0  0.66491  0.54896  0.78963  1.0000
  C   C712      1.0  0.81112  0.87928  0.51222  1.0000
  H   H845      1.0  0.70829  0.50340  0.98200  1.0000
  H   H846      1.0  0.96182  0.54471  0.60478  1.0000
  C   C713      1.0  0.69333  0.59153  0.78611  1.0000
  H   H847      1.0  0.67695  0.55119  0.75771  1.0000
  C   C714      1.0  0.76884  0.55556  0.73788  1.0000
  H   H848      1.0  0.71333  0.53808  0.81720  1.0000
  H   H849      1.0  0.70733  0.57554  0.73573  1.0000
  H   H850      1.0  0.73182  0.50015  0.70920  1.0000
  H   H851      1.0  0.73682  0.93889  0.53591  1.0000
  H   H852      1.0  0.89069  0.59071  0.57985  1.0000
  H   H853      1.0  0.89151  0.57338  0.48849  1.0000
  C   C715      1.0  0.78214  0.91507  0.51839  1.0000
  H   H854      1.0  0.69030  0.56149  0.82652  1.0000
  N   N48       1.0  0.73522  0.91151  0.50481  1.0000
  H   H855      1.0  0.93577  0.67132  0.50165  1.0000
  S   S189      1.0  0.65767  0.86354  0.50737  1.0000
  C   C716      1.0  0.77285  0.76806  0.48790  1.0000
  H   H856      1.0  0.96519  0.72024  0.53249  1.0000
  S   S190      1.0  0.65815  0.93759  0.49806  1.0000
  H   H857      1.0  0.97260  0.58648  0.59496  1.0000
  H   H858      1.0  0.83002  0.87090  0.51415  1.0000
  C   C717      1.0  0.97533  0.73206  0.51870  1.0000
  H   H859      1.0  0.70645  0.49508  0.74923  1.0000
  H   H860      1.0  0.71538  0.87529  0.51040  1.0000
  C   C718      1.0  0.92837  0.59109  0.49418  1.0000
  H   H861      1.0  0.74488  0.95188  0.50456  1.0000
  H   H862      1.0  0.97969  0.66050  0.51703  1.0000
  C   C719      1.0  0.76145  0.90098  0.50736  1.0000
  C   C720      1.0  0.79128  0.86505  0.50126  1.0000
  H   H863      1.0  0.79469  0.84555  0.49468  1.0000
  H   H864      1.0  0.75217  0.86383  0.49012  1.0000
  S   S191      1.0  0.87347  0.64666  0.48637  1.0000
  S   S192      1.0  0.87767  0.48684  0.62053  1.0000
