data_image0
_chemical_formula_structural       HFeCFeS2HFeS2FeS2FeS2FeSFeS3FeS2FeS2Fe2S3CSHFeSHS2CH2CFeHC7H4C6H4C3H2C6H4C6H4C6H4C6H6C2NC9H13CNC6HCH14FeCH6CS2H2CNCSC2H2C2SHCH2FeC2HC3HNCHCH11CHCHCFeHCHC2NH6CNCHCH9C3H3CH2NHCH2NC3HCHC4HCH4C2H2C2HC2HC2H5C2SHCH2CSCHC2H2CH3C2H2SC2H4SHC3NHC2HNHCHSH2FeSHFeSCFeSH2SC2FeS2FeSHFeSFeS2HFe2NSHS2C3H2NH2C5SHC2HC2HC2H6C8H9CH3CHCH4CHC7SNHCH2C2H5CHFeSHC2HC2HCHCH4CHCH3CHNC2HSH4CHCHFeS2FeS2FeSFeS3FeS3FeS3FeS2FeSFeSFeS3FeS2FeSCSC3NC6H5C3HCHC6H4C6H4C3H2C6H4C4H2CH2CH2CNC6H12CSC2HCH2C3HCH2CH4C4NC9H14C2H10C3H2C5H4C2NSCHCH7FeC2H2CH2SC2HFeHSFeHCNC2H3CHCHCHNHCHCHCH3CHCH2C2H2CH2NC3H2CHC3H4CH3C2HCHCHCH3S2H2FeSCSNFeS2FeS2FeSFeHS2FeS2FeS2FeH2CS2H2CHC2HC2HCH7C2H3C5H3C8H4C3NC6HC2H13C2H2C5SHCH5C2H2SC3HCHCHFeHCHC2HC5HNH2CH5CH2CHC3H2CH5CFeSCFeSHFeSFeS3HC2SCHCHC2FeS2FeS2FeCFe2S2CH2CHC3HCH2C6H7C2H2C6H4SCSH3C4H4NC2HC3SHCH2C2H4C2HCHC2H4CH5SCHCHNH2CH3C2H3SHC3H2CH5NHC2HSH4CH7SFeC2HSH4SNSFeS2FeS2FeSFeS3FeS2FeS2Fe2S3FeSFeS2FeSFeHSC7H8C3H2C6H4C6H4C6SHC8H5NSH2C8H3SH2C2H2CHSH4CHC2H2SC2HCH2C2FeC8SH3NH5C2HSC2HC2H2CHCNC9H17CH2SH2C3H3CH8NCHCH2C2HC2HC4H3C3HC2H4CH4N2CH2CH2C2H2C5H6CHNHCH3CHN2H3C4H2C2H8CH2CHC2H2C3H3CH3CHCSHC2FeCHFeSCFeSCSH2CH4SH5FeS2FeS2CSH2C2H6CS2CHC6H4C7H6SHCFeSHCH2CHCHCHCHSCH5NC3SC5HCHCH2CH5SHCNCHFeH2CSFeCH2C2H6NC3H2SHFeS2FeS2FeSFeS3FeSFeS2FeSFeS3FeS2FeSFeS3HSFeS2H2C7H4CHCH2CH2SHC2HCH3C7H4C6H4C3HC7H4C3SC2H2CH2NC9H14C3H6FeHNC9H13NC9H8CH4FeCHNHC2H2CSCH3CHCH3C2H2CH3NC2HC2H2FeHCHSH2CHCHCHC2H2SCH2CHCHC7H3CHC2NCFeH2C2HCH2FeS2H3FeS2CSHC2HS2FeCHFeS2FeH2S2HSHCSH2C6H4C3HSCH3C6H2CH2CH2CSFeHCHC2H4CH3NHSC2HC2H2CHNC6H4NH5C2HC2HNC2H3CH3CH4C2SCH2CHC4H2SH2C3H5FeHCH3CH4FeCFeSHFeS2FeSFeS2FeS2FeS2FeSFeS3H2FeSFeS2FeSFeS3C6H4C3H2C6HCH2C6H4C2HCHC7H4CHC4H3SHCHC5H3S2HNC9H2CHCH4CHC2NC2NHCHSCH4C3NCH3CHSHCHCH4SFeHC3HC2H2NC6HC2H7CH3CHC4HFeH5CH11CHCHCH4CHCHCH2CNC6H2CH4CH2CSH2CHCNC9H14C2H4CHCH4SCHCHCH3SCH3FeSCHSCFeSFeSH2CHC2HCH2CHCHFeS2FeS2FeCFeS3C4SH2CH2SCH4CHC6H5C2H2C6HCH2C2H2CH3CSHCNC6HCH12C2HCHCH2SC4H2CH2CHCHCNHNH2C2SHCSCHSHSHCFe2H4CHNHSCH2CH2CHSC2HFeC2HSHCFeS2FeS2FeSFeS3FeSFeS2FeSFeS3FeS2H4FeSHSHFeCH3C7H4C6HCNHC2H2C2HC6H4C6H4C6H4C6SH3CHC2NC9H14NC9H15CSHCHCH2CS2CH2CHNCNCHCHFeH4SHCSCH2CH2CH3SCH2CHCH2CHCFeNH5C3FeHCHCHSHCHCHC4HCH2CH2C3HCH2CH2C2H3C3H6C5SC2HSCH2CH3C2NH2CH9CH2CFeS2HFeS2FeS2FeS2FeSFeS3FeS2FeSHSFeSFeS2FeS3CHC3H2C6H4CH3C3H2C6H4C6H4C6H5CH3C2H2CHCHNCNC2FeH3CHCHC3HCH6FeH4CH2C2SN2C7H13CNH4C7HNH5CHSHCHNC6H17NC9H12CH2CH2C3SHCH2CHCHC2H2CHCHCNCH2CHC3HCSFeC2HCHC2H4CHCHC5H2CHFeC2H3C2HC2SC2SCH2CH3FeSHFeSHFeSFeS3H3FeSHFeS2FeSFeCS2FeS2HFeSNSCHCNHC6H6CHCHCHC3HC2H5CH3NC2H3C2HCHC3HCH2CH5CHC3HC3H3CHSCHC3H6C2H6CH2C2H3CHCHC4H3C2HFeCHNCNHSHFeS2FeS2FeS2FeS2FeSFeS3FeS2FeS2FeSFeS2FeS2HFeSCSCHSCH2C7H5SHCHC6H4C6H4C6H4C6H5C2H3C6H4C7H5C2HC2H5CNCHCH3CNC9H16N2C8HC4HC3H6C2HFeHCH3CH2NCH3NHC4H2C3HFeH3C2HC2H2CNH3CH2NHCH3CHC2H4C2H3SH3C2HCH4CH2SC2H4CH2CH2FeCH6CH9C3H3C2SC2HCS2HCHCHFeS2FeSFeH2CS2FeSNFeSHFeSH2S2HCSH3C2H2C2H2CH2C2H4C6H13SCH2CHCH2CHCH2C2FeC2HC2NC2SCH3CHNHC2HCHCH4NH3C3HC3HCHC2HNHC3HCNH2FeCH4C3H3
_chemical_formula_sum              "H1728 Fe192 C1440 S384 N96"
_cell_length_a       39.8526
_cell_length_b       39.9157
_cell_length_c       88.5051
_cell_angle_alpha    83.9316
_cell_angle_beta     83.6054
_cell_angle_gamma    88.5455

_space_group_name_H-M_alt    "P 1"
_space_group_IT_number       1

loop_
  _space_group_symop_operation_xyz
  'x, y, z'

loop_
  _atom_site_type_symbol
  _atom_site_label
  _atom_site_symmetry_multiplicity
  _atom_site_fract_x
  _atom_site_fract_y
  _atom_site_fract_z
  _atom_site_occupancy
  H   H1        1.0  0.13231  0.17107  0.20521  1.0000
  Fe  Fe1       1.0  0.11466  0.39258  0.97375  1.0000
  C   C1        1.0  0.16542  0.37661  0.00250  1.0000
  Fe  Fe2       1.0  0.15742  0.07665  0.06899  1.0000
  S   S1        1.0  0.20253  0.04948  0.07754  1.0000
  S   S2        1.0  0.17130  0.11660  0.04969  1.0000
  H   H2        1.0  0.33732  0.31103  0.11728  1.0000
  Fe  Fe3       1.0  0.17421  0.05293  0.10068  1.0000
  S   S3        1.0  0.19869  0.06441  0.12130  1.0000
  S   S4        1.0  0.13135  0.08407  0.09226  1.0000
  Fe  Fe4       1.0  0.27930  0.32938  0.03676  1.0000
  S   S5        1.0  0.32590  0.33129  0.04902  1.0000
  S   S6        1.0  0.27375  0.35189  0.01268  1.0000
  Fe  Fe5       1.0  0.24182  0.28414  0.06234  1.0000
  S   S7        1.0  0.28420  0.28285  0.07684  1.0000
  S   S8        1.0  0.19359  0.25831  0.07183  1.0000
  Fe  Fe6       1.0  0.28821  0.33814  0.06948  1.0000
  S   S9        1.0  0.29540  0.37090  0.08813  1.0000
  Fe  Fe7       1.0  0.31788  0.27575  0.05538  1.0000
  S   S10       1.0  0.35212  0.22978  0.05690  1.0000
  S   S11       1.0  0.24241  0.34002  0.05679  1.0000
  S   S12       1.0  0.27484  0.27335  0.04127  1.0000
  Fe  Fe8       1.0  0.25742  0.22450  0.15010  1.0000
  S   S13       1.0  0.22719  0.23790  0.17168  1.0000
  S   S14       1.0  0.23181  0.21528  0.12940  1.0000
  Fe  Fe9       1.0  0.32514  0.23676  0.16152  1.0000
  S   S15       1.0  0.30067  0.25030  0.18407  1.0000
  S   S16       1.0  0.38192  0.23748  0.15601  1.0000
  Fe  Fe10      1.0  0.26619  0.20687  0.18353  1.0000
  Fe  Fe11      1.0  0.26405  0.27986  0.17039  1.0000
  S   S17       1.0  0.25437  0.33346  0.17510  1.0000
  S   S18       1.0  0.29411  0.19020  0.16196  1.0000
  S   S19       1.0  0.29096  0.26962  0.14776  1.0000
  C   C2        1.0  0.38044  0.47356  0.16695  1.0000
  S   S20       1.0  0.10707  0.47442  0.12749  1.0000
  H   H3        1.0  0.05441  0.06821  0.17266  1.0000
  Fe  Fe12      1.0  0.12886  0.44961  0.14821  1.0000
  S   S21       1.0  0.11606  0.39672  0.15796  1.0000
  H   H4        1.0  0.31631  0.26339  0.10624  1.0000
  S   S22       1.0  0.18246  0.46228  0.13971  1.0000
  S   S23       1.0  0.45747  0.37030  0.16625  1.0000
  C   C3        1.0  0.08056  0.07546  0.17129  1.0000
  H   H5        1.0  0.28645  0.42762  0.99830  1.0000
  H   H6        1.0  0.28469  0.35350  0.20054  1.0000
  C   C4        1.0  0.17426  0.24215  0.98174  1.0000
  Fe  Fe13      1.0  0.17274  0.50952  0.15125  1.0000
  H   H7        1.0  0.36008  0.28085  0.12865  1.0000
  C   C5        1.0  0.13603  0.08285  0.15725  1.0000
  C   C6        1.0  0.15222  0.37806  0.16495  1.0000
  C   C7        1.0  0.17704  0.39829  0.16915  1.0000
  C   C8        1.0  0.20784  0.38400  0.17290  1.0000
  C   C9        1.0  0.21401  0.34951  0.17234  1.0000
  C   C10       1.0  0.18860  0.32891  0.16891  1.0000
  C   C11       1.0  0.15751  0.34319  0.16535  1.0000
  H   H8        1.0  0.17252  0.42503  0.16947  1.0000
  H   H9        1.0  0.22709  0.39983  0.17595  1.0000
  H   H10       1.0  0.31284  0.31865  0.19813  1.0000
  H   H11       1.0  0.13806  0.32748  0.16235  1.0000
  C   C12       1.0  0.40260  0.27416  0.15941  1.0000
  C   C13       1.0  0.38771  0.30596  0.15656  1.0000
  C   C14       1.0  0.40543  0.33510  0.15826  1.0000
  C   C15       1.0  0.43748  0.33275  0.16348  1.0000
  C   C16       1.0  0.45235  0.30095  0.16643  1.0000
  C   C17       1.0  0.43517  0.27177  0.16413  1.0000
  H   H12       1.0  0.36288  0.30811  0.15270  1.0000
  H   H13       1.0  0.39437  0.35964  0.15548  1.0000
  H   H14       1.0  0.47717  0.29885  0.17035  1.0000
  H   H15       1.0  0.44699  0.24726  0.16621  1.0000
  C   C18       1.0  0.23166  0.36015  0.00913  1.0000
  C   C19       1.0  0.17558  0.38199  0.01669  1.0000
  C   C20       1.0  0.20859  0.37371  0.02002  1.0000
  H   H16       1.0  0.15801  0.39295  0.02509  1.0000
  H   H17       1.0  0.21643  0.37880  0.03084  1.0000
  C   C21       1.0  0.26538  0.40390  0.08989  1.0000
  C   C22       1.0  0.24558  0.41421  0.07811  1.0000
  C   C23       1.0  0.22104  0.43979  0.07989  1.0000
  C   C24       1.0  0.21586  0.45499  0.09354  1.0000
  C   C25       1.0  0.23637  0.44538  0.10517  1.0000
  C   C26       1.0  0.26119  0.42005  0.10330  1.0000
  H   H18       1.0  0.24939  0.40285  0.06752  1.0000
  H   H19       1.0  0.20559  0.44737  0.07079  1.0000
  H   H20       1.0  0.23363  0.45794  0.11545  1.0000
  H   H21       1.0  0.27702  0.41288  0.11230  1.0000
  C   C27       1.0  0.17871  0.15488  0.05655  1.0000
  C   C28       1.0  0.20505  0.17514  0.04926  1.0000
  C   C29       1.0  0.21063  0.20635  0.05434  1.0000
  C   C30       1.0  0.18926  0.21787  0.06638  1.0000
  C   C31       1.0  0.16314  0.19742  0.07377  1.0000
  C   C32       1.0  0.15807  0.16577  0.06896  1.0000
  H   H22       1.0  0.22107  0.16666  0.03967  1.0000
  H   H23       1.0  0.23096  0.22167  0.04866  1.0000
  H   H24       1.0  0.14657  0.20616  0.08314  1.0000
  H   H25       1.0  0.13740  0.15038  0.07448  1.0000
  C   C33       1.0  0.20431  0.10673  0.12432  1.0000
  C   C34       1.0  0.19227  0.13342  0.11474  1.0000
  C   C35       1.0  0.19960  0.16683  0.11678  1.0000
  C   C36       1.0  0.21894  0.17369  0.12840  1.0000
  C   C37       1.0  0.22980  0.14705  0.13832  1.0000
  C   C38       1.0  0.22253  0.11369  0.13628  1.0000
  H   H26       1.0  0.17822  0.12839  0.10548  1.0000
  H   H27       1.0  0.19100  0.18736  0.10908  1.0000
  H   H28       1.0  0.24455  0.15203  0.14735  1.0000
  H   H29       1.0  0.23178  0.09316  0.14377  1.0000
  C   C39       1.0  0.46701  0.23125  0.04585  1.0000
  C   C40       1.0  0.44876  0.26173  0.04649  1.0000
  C   C41       1.0  0.41331  0.26181  0.04932  1.0000
  C   C42       1.0  0.39606  0.23131  0.05167  1.0000
  C   C43       1.0  0.41433  0.20089  0.05091  1.0000
  C   C44       1.0  0.44968  0.20084  0.04791  1.0000
  H   H30       1.0  0.46211  0.28532  0.04497  1.0000
  H   H31       1.0  0.39945  0.28536  0.04998  1.0000
  H   H32       1.0  0.40117  0.17722  0.05269  1.0000
  H   H33       1.0  0.46356  0.17725  0.04745  1.0000
  H   H34       1.0  0.20102  0.35753  0.13782  1.0000
  H   H35       1.0  0.31933  0.39831  0.13717  1.0000
  C   C45       1.0  0.18826  0.36233  0.99173  1.0000
  C   C46       1.0  0.29800  0.45253  0.20175  1.0000
  N   N1        1.0  0.28554  0.15538  0.08520  1.0000
  C   C47       1.0  0.26721  0.12482  0.09237  1.0000
  C   C48       1.0  0.26365  0.18546  0.08737  1.0000
  C   C49       1.0  0.29130  0.15249  0.06851  1.0000
  C   C50       1.0  0.31691  0.15855  0.09248  1.0000
  C   C51       1.0  0.34951  0.15994  0.08411  1.0000
  C   C52       1.0  0.31538  0.16044  0.10851  1.0000
  C   C53       1.0  0.37858  0.16288  0.09139  1.0000
  C   C54       1.0  0.34461  0.16300  0.11569  1.0000
  C   C55       1.0  0.37616  0.16435  0.10713  1.0000
  H   H36       1.0  0.26029  0.12553  0.10480  1.0000
  H   H37       1.0  0.24312  0.12171  0.08737  1.0000
  H   H38       1.0  0.28281  0.10161  0.09096  1.0000
  H   H39       1.0  0.25808  0.18993  0.09955  1.0000
  H   H40       1.0  0.23878  0.18306  0.08300  1.0000
  H   H41       1.0  0.27576  0.20863  0.08130  1.0000
  H   H42       1.0  0.30714  0.12999  0.06598  1.0000
  H   H43       1.0  0.26704  0.14986  0.06359  1.0000
  H   H44       1.0  0.30355  0.17539  0.06218  1.0000
  H   H45       1.0  0.35321  0.15927  0.07189  1.0000
  H   H46       1.0  0.29148  0.15999  0.11565  1.0000
  H   H47       1.0  0.40315  0.16421  0.08472  1.0000
  H   H48       1.0  0.34272  0.16423  0.12796  1.0000
  C   C56       1.0  0.35670  0.41524  0.20700  1.0000
  N   N2        1.0  0.15847  0.26671  0.02239  1.0000
  C   C57       1.0  0.19380  0.27169  0.02538  1.0000
  C   C58       1.0  0.13734  0.29342  0.02940  1.0000
  C   C59       1.0  0.14661  0.23378  0.03032  1.0000
  C   C60       1.0  0.15704  0.26708  0.00571  1.0000
  C   C61       1.0  0.17519  0.24245  0.99749  1.0000
  C   C62       1.0  0.13816  0.29155  0.99716  1.0000
  H   H49       1.0  0.17359  0.10370  0.16919  1.0000
  C   C63       1.0  0.31079  0.34430  0.20210  1.0000
  H   H50       1.0  0.35137  0.38692  0.17036  1.0000
  H   H51       1.0  0.20422  0.29531  0.01894  1.0000
  H   H52       1.0  0.19569  0.27351  0.03773  1.0000
  H   H53       1.0  0.21087  0.25065  0.02204  1.0000
  H   H54       1.0  0.14581  0.31899  0.02446  1.0000
  H   H55       1.0  0.13898  0.29231  0.04194  1.0000
  H   H56       1.0  0.11023  0.29085  0.02785  1.0000
  H   H57       1.0  0.16353  0.21243  0.02720  1.0000
  H   H58       1.0  0.06340  0.48467  0.00729  1.0000
  H   H59       1.0  0.12091  0.22809  0.02755  1.0000
  H   H60       1.0  0.19028  0.22322  0.00319  1.0000
  H   H61       1.0  0.18820  0.22303  0.97570  1.0000
  H   H62       1.0  0.28754  0.11581  0.03460  1.0000
  H   H63       1.0  0.14546  0.23328  0.04298  1.0000
  Fe  Fe14      1.0  0.10672  0.03449  0.09093  1.0000
  C   C64       1.0  0.17287  0.32200  0.09866  1.0000
  H   H64       1.0  0.38182  0.31607  0.11754  1.0000
  H   H65       1.0  0.07572  0.09037  0.19424  1.0000
  H   H66       1.0  0.17753  0.29528  0.09831  1.0000
  H   H67       1.0  0.05286  0.40127  0.99587  1.0000
  H   H68       1.0  0.36675  0.28614  0.07990  1.0000
  H   H69       1.0  0.38011  0.40250  0.20932  1.0000
  C   C65       1.0  0.37043  0.35138  0.19550  1.0000
  S   S24       1.0  0.25583  0.17235  0.20541  1.0000
  S   S25       1.0  0.51038  0.36071  0.20149  1.0000
  H   H70       1.0  0.23904  0.34350  0.98659  1.0000
  H   H71       1.0  0.13767  0.03456  0.13695  1.0000
  C   C66       1.0  0.29114  0.08880  0.03686  1.0000
  N   N3        1.0  0.09051  0.05979  0.14387  1.0000
  C   C67       1.0  0.22138  0.35432  0.99501  1.0000
  S   S26       1.0  0.50712  0.06113  0.04957  1.0000
  C   C68       1.0  0.13751  0.29102  0.98141  1.0000
  C   C69       1.0  0.48952  0.46966  0.21066  1.0000
  H   H72       1.0  0.12274  0.09120  0.12706  1.0000
  H   H73       1.0  0.48474  0.27003  0.98602  1.0000
  C   C70       1.0  0.18648  0.17220  0.20504  1.0000
  C   C71       1.0  0.26310  0.06853  0.04145  1.0000
  S   S27       1.0  0.12412  0.38798  0.99859  1.0000
  H   H74       1.0  0.08233  0.44980  0.99853  1.0000
  C   C72       1.0  0.18562  0.29661  0.13115  1.0000
  H   H75       1.0  0.46982  0.24113  0.12450  1.0000
  H   H76       1.0  0.17650  0.27673  0.12475  1.0000
  Fe  Fe15      1.0  0.50782  0.37098  0.17615  1.0000
  C   C73       1.0  0.30254  0.42037  0.19686  1.0000
  C   C74       1.0  0.46729  0.45330  0.20283  1.0000
  H   H77       1.0  0.27454  0.48810  0.99702  1.0000
  C   C75       1.0  0.31244  0.41957  0.14362  1.0000
  C   C76       1.0  0.26958  0.45284  0.15677  1.0000
  C   C77       1.0  0.27861  0.42544  0.14861  1.0000
  H   H78       1.0  0.15134  0.41715  0.09896  1.0000
  N   N4        1.0  0.36887  0.27664  0.10442  1.0000
  C   C78       1.0  0.45442  0.24153  0.11510  1.0000
  H   H79       1.0  0.04648  0.04123  0.13532  1.0000
  C   C79       1.0  0.33734  0.44115  0.14678  1.0000
  H   H80       1.0  0.21367  0.49768  0.03253  1.0000
  H   H81       1.0  0.38541  0.05849  0.01802  1.0000
  H   H82       1.0  0.41507  0.03304  0.02795  1.0000
  H   H83       1.0  0.22694  0.28301  0.10695  1.0000
  H   H84       1.0  0.20743  0.46912  0.98622  1.0000
  H   H85       1.0  0.28519  0.49543  0.16621  1.0000
  H   H86       1.0  0.30712  0.37891  0.17454  1.0000
  H   H87       1.0  0.27413  0.40288  0.98436  1.0000
  H   H88       1.0  0.25926  0.40884  0.14611  1.0000
  H   H89       1.0  0.34421  0.23629  0.09564  1.0000
  H   H90       1.0  0.14473  0.32420  0.07920  1.0000
  C   C80       1.0  0.22114  0.34445  0.13080  1.0000
  H   H91       1.0  0.19049  0.18625  0.19388  1.0000
  C   C81       1.0  0.42928  0.50171  0.20314  1.0000
  H   H92       1.0  0.50365  0.30717  0.99091  1.0000
  C   C82       1.0  0.36185  0.29705  0.11755  1.0000
  Fe  Fe16      1.0  0.16053  0.49070  0.11990  1.0000
  H   H93       1.0  0.33539  0.34451  0.17260  1.0000
  C   C83       1.0  0.49497  0.03364  0.03702  1.0000
  H   H94       1.0  0.03732  0.05754  0.07467  1.0000
  C   C84       1.0  0.18586  0.33969  0.10978  1.0000
  C   C85       1.0  0.09245  0.08819  0.18383  1.0000
  N   N5        1.0  0.20667  0.32174  0.12102  1.0000
  H   H95       1.0  0.23746  0.36374  0.12377  1.0000
  H   H96       1.0  0.20001  0.28323  0.14012  1.0000
  H   H97       1.0  0.32997  0.51258  0.17779  1.0000
  H   H98       1.0  0.08300  0.11018  0.13336  1.0000
  H   H99       1.0  0.23689  0.33040  0.13906  1.0000
  H   H100      1.0  0.13114  0.38527  0.07936  1.0000
  C   C86       1.0  0.48156  0.50201  0.21484  1.0000
  N   N6        1.0  0.25970  0.45556  0.98094  1.0000
  C   C87       1.0  0.32899  0.46949  0.15499  1.0000
  H   H101      1.0  0.36323  0.43564  0.14262  1.0000
  C   C88       1.0  0.11038  0.02927  0.14007  1.0000
  H   H102      1.0  0.47324  0.42827  0.19962  1.0000
  H   H103      1.0  0.40075  0.49027  0.16941  1.0000
  H   H104      1.0  0.25258  0.29182  0.12104  1.0000
  H   H105      1.0  0.24315  0.45762  0.16051  1.0000
  H   H106      1.0  0.51029  0.21419  0.99219  1.0000
  H   H107      1.0  0.39338  0.45276  0.16108  1.0000
  H   H108      1.0  0.37472  0.34642  0.20774  1.0000
  H   H109      1.0  0.39875  0.16675  0.11271  1.0000
  H   H110      1.0  0.30859  0.43115  0.97929  1.0000
  C   C89       1.0  0.14603  0.37257  0.08782  1.0000
  C   C90       1.0  0.22641  0.45025  0.99012  1.0000
  C   C91       1.0  0.15747  0.39050  0.09885  1.0000
  H   H111      1.0  0.18537  0.39020  0.11776  1.0000
  H   H112      1.0  0.16307  0.30888  0.13695  1.0000
  H   H113      1.0  0.12385  0.31158  0.00228  1.0000
  C   C92       1.0  0.05425  0.05063  0.14585  1.0000
  H   H114      1.0  0.39127  0.36733  0.18934  1.0000
  H   H115      1.0  0.23792  0.07968  0.04280  1.0000
  N   N7        1.0  0.33673  0.36717  0.19359  1.0000
  H   H116      1.0  0.25620  0.50958  0.98103  1.0000
  C   C93       1.0  0.34186  0.25134  0.10562  1.0000
  H   H117      1.0  0.25021  0.32156  0.10437  1.0000
  H   H118      1.0  0.39931  0.24037  0.08188  1.0000
  N   N8        1.0  0.36268  0.02266  0.03597  1.0000
  C   C94       1.0  0.40214  0.25910  0.10395  1.0000
  C   C95       1.0  0.10213  0.07252  0.15752  1.0000
  C   C96       1.0  0.41431  0.24174  0.09121  1.0000
  H   H119      1.0  0.34347  0.31550  0.09077  1.0000
  C   C97       1.0  0.02910  0.41647  0.99551  1.0000
  H   H120      1.0  0.42003  0.45618  0.19324  1.0000
  C   C98       1.0  0.33254  0.36960  0.17707  1.0000
  C   C99       1.0  0.32360  0.07441  0.03501  1.0000
  C   C100      1.0  0.44598  0.22575  0.09027  1.0000
  C   C101      1.0  0.12585  0.09835  0.18308  1.0000
  H   H121      1.0  0.38871  0.31725  0.08818  1.0000
  C   C102      1.0  0.36697  0.29976  0.09022  1.0000
  H   H122      1.0  0.37318  0.32651  0.19076  1.0000
  H   H123      1.0  0.03763  0.07278  0.14812  1.0000
  H   H124      1.0  0.08496  0.07814  0.12044  1.0000
  H   H125      1.0  0.19302  0.30219  0.16870  1.0000
  C   C103      1.0  0.33234  0.40093  0.19910  1.0000
  C   C104      1.0  0.46604  0.22569  0.10218  1.0000
  H   H126      1.0  0.34266  0.23349  0.11614  1.0000
  H   H127      1.0  0.41572  0.26972  0.12640  1.0000
  C   C105      1.0  0.42301  0.25807  0.11604  1.0000
  C   C106      1.0  0.15365  0.33833  0.08774  1.0000
  H   H128      1.0  0.49060  0.21329  0.10142  1.0000
  C   C107      1.0  0.23531  0.30386  0.11297  1.0000
  C   C108      1.0  0.09555  0.08598  0.13065  1.0000
  H   H129      1.0  0.03166  0.49525  0.13341  1.0000
  C   C109      1.0  0.17721  0.37452  0.10967  1.0000
  C   C110      1.0  0.14760  0.09568  0.16980  1.0000
  H   H130      1.0  0.15389  0.08118  0.14725  1.0000
  H   H131      1.0  0.31315  0.34164  0.21458  1.0000
  H   H132      1.0  0.13490  0.10830  0.19282  1.0000
  H   H133      1.0  0.21602  0.42518  0.98927  1.0000
  H   H134      1.0  0.39345  0.06599  0.03719  1.0000
  C   C111      1.0  0.50420  0.03915  0.02127  1.0000
  C   C112      1.0  0.29422  0.47458  0.15997  1.0000
  S   S28       1.0  0.18356  0.48571  0.09571  1.0000
  H   H135      1.0  0.38745  0.48725  0.13664  1.0000
  C   C113      1.0  0.43708  0.46915  0.19922  1.0000
  H   H136      1.0  0.18048  0.35738  0.98089  1.0000
  H   H137      1.0  0.45510  0.21346  0.08020  1.0000
  C   C114      1.0  0.32252  0.46592  0.20932  1.0000
  S   S29       1.0  0.12058  0.49416  0.16153  1.0000
  C   C115      1.0  0.35153  0.44714  0.21210  1.0000
  H   H138      1.0  0.28238  0.41079  0.19136  1.0000
  C   C116      1.0  0.05886  0.46558  0.99953  1.0000
  C   C117      1.0  0.32877  0.03893  0.03763  1.0000
  H   H139      1.0  0.05634  0.47920  0.98806  1.0000
  H   H140      1.0  0.22795  0.45161  0.00252  1.0000
  C   C118      1.0  0.39014  0.04627  0.02950  1.0000
  H   H141      1.0  0.27525  0.46707  0.19972  1.0000
  H   H142      1.0  0.02744  0.42566  0.98330  1.0000
  H   H143      1.0  0.34413  0.09157  0.03141  1.0000
  C   C119      1.0  0.28323  0.42825  0.98592  1.0000
  C   C120      1.0  0.27290  0.48795  0.98454  1.0000
  H   H144      1.0  0.05424  0.41403  0.02177  1.0000
  H   H145      1.0  0.03341  0.45045  0.02877  1.0000
  S   S30       1.0  0.51141  0.23179  0.04282  1.0000
  C   C121      1.0  0.03137  0.43060  0.02101  1.0000
  C   C122      1.0  0.15541  0.26638  0.97372  1.0000
  H   H146      1.0  0.48708  0.27601  0.00577  1.0000
  H   H147      1.0  0.12309  0.30987  0.97503  1.0000
  H   H148      1.0  0.29882  0.49275  0.97874  1.0000
  H   H149      1.0  0.37127  0.02706  0.05925  1.0000
  S   S31       1.0  0.12880  0.03005  0.06668  1.0000
  H   H150      1.0  0.31926  0.49099  0.21301  1.0000
  C   C123      1.0  0.26736  0.03379  0.04421  1.0000
  C   C124      1.0  0.50097  0.27957  0.99405  1.0000
  C   C125      1.0  0.45154  0.51818  0.21095  1.0000
  N   N9        1.0  0.35574  0.49245  0.15782  1.0000
  H   H151      1.0  0.36794  0.46260  0.17819  1.0000
  C   C126      1.0  0.15357  0.16345  0.21144  1.0000
  C   C127      1.0  0.21410  0.16233  0.21302  1.0000
  H   H152      1.0  0.51613  0.22263  0.01099  1.0000
  N   N10       1.0  0.02856  0.44498  0.00506  1.0000
  H   H153      1.0  0.04880  0.03000  0.15522  1.0000
  C   C128      1.0  0.37365  0.50678  0.14305  1.0000
  H   H154      1.0  0.37053  0.45782  0.21801  1.0000
  S   S32       1.0  0.05479  0.02159  0.10336  1.0000
  H   H155      1.0  0.51881  0.06102  0.01652  1.0000
  H   H156      1.0  0.50193  0.02030  0.99942  1.0000
  Fe  Fe17      1.0  0.31734  0.08104  0.45675  1.0000
  S   S33       1.0  0.31239  0.07489  0.43209  1.0000
  H   H157      1.0  0.47183  0.06803  0.43196  1.0000
  Fe  Fe18      1.0  0.39308  0.06904  0.45269  1.0000
  S   S34       1.0  0.39429  0.06183  0.42791  1.0000
  C   C129      1.0  0.09384  0.31831  0.27177  1.0000
  Fe  Fe19      1.0  0.35925  0.10666  0.42709  1.0000
  S   S35       1.0  0.36557  0.15000  0.40826  1.0000
  H   H158      1.0  0.46072  0.42050  0.31669  1.0000
  H   H159      1.0  0.13072  0.29122  0.23896  1.0000
  S   S36       1.0  0.36121  0.11602  0.45149  1.0000
  C   C130      1.0  0.26132  0.21445  0.45422  1.0000
  C   C131      1.0  0.15811  0.23281  0.23960  1.0000
  Fe  Fe20      1.0  0.09938  0.11523  0.25879  1.0000
  S   S37       1.0  0.13560  0.12212  0.27595  1.0000
  S   S38       1.0  0.10664  0.13477  0.23375  1.0000
  Fe  Fe21      1.0  0.04719  0.08155  0.28264  1.0000
  S   S39       1.0  0.07912  0.08583  0.30157  1.0000
  H   H160      1.0  0.36312  0.50199  0.42448  1.0000
  Fe  Fe22      1.0  0.08955  0.13826  0.29061  1.0000
  S   S40       1.0  0.09082  0.18062  0.30565  1.0000
  Fe  Fe23      1.0  0.12202  0.06901  0.28536  1.0000
  S   S41       1.0  0.05420  0.13536  0.27286  1.0000
  S   S42       1.0  0.08924  0.06076  0.26702  1.0000
  H   H161      1.0  0.33983  0.27283  0.43948  1.0000
  Fe  Fe24      1.0  0.49196  0.38346  0.38322  1.0000
  Fe  Fe25      1.0  0.49459  0.30644  0.39323  1.0000
  N   N11       1.0  0.14321  0.22894  0.25585  1.0000
  S   S43       1.0  0.47849  0.25953  0.40917  1.0000
  H   H162      1.0  0.49966  0.09839  0.43719  1.0000
  S   S44       1.0  0.45756  0.43001  0.38044  1.0000
  S   S45       1.0  0.48018  0.33738  0.37192  1.0000
  C   C132      1.0  0.50093  0.48150  0.38418  1.0000
  C   C133      1.0  0.46887  0.47271  0.38102  1.0000
  C   C134      1.0  0.20857  0.14384  0.22744  1.0000
  H   H163      1.0  0.12735  0.17901  0.25337  1.0000
  H   H164      1.0  0.11745  0.23987  0.28509  1.0000
  N   N12       1.0  0.51131  0.08456  0.41428  1.0000
  H   H165      1.0  0.17084  0.20914  0.23616  1.0000
  H   H166      1.0  0.47422  0.09677  0.39838  1.0000
  C   C135      1.0  0.11693  0.20286  0.25748  1.0000
  C   C136      1.0  0.05398  0.23155  0.31848  1.0000
  C   C137      1.0  0.06008  0.21325  0.30570  1.0000
  C   C138      1.0  0.46227  0.03020  0.46331  1.0000
  C   C139      1.0  0.34813  0.20611  0.44198  1.0000
  S   S46       1.0  0.50138  0.35256  0.40518  1.0000
  H   H167      1.0  0.06762  0.22492  0.32831  1.0000
  C   C140      1.0  0.04272  0.22224  0.29297  1.0000
  C   C141      1.0  0.10592  0.31824  0.25638  1.0000
  H   H168      1.0  0.49251  0.38878  0.33329  1.0000
  C   C142      1.0  0.39035  0.50145  0.42305  1.0000
  C   C143      1.0  0.09858  0.28999  0.28195  1.0000
  H   H169      1.0  0.18946  0.23655  0.26541  1.0000
  C   C144      1.0  0.17571  0.13522  0.23386  1.0000
  C   C145      1.0  0.51103  0.49777  0.29688  1.0000
  H   H170      1.0  0.17756  0.25278  0.23748  1.0000
  H   H171      1.0  0.32369  0.20835  0.41492  1.0000
  H   H172      1.0  0.17186  0.12057  0.24488  1.0000
  H   H173      1.0  0.22987  0.13596  0.23361  1.0000
  H   H174      1.0  0.25396  0.12754  0.43910  1.0000
  H   H175      1.0  0.49874  0.51467  0.22091  1.0000
  C   C146      1.0  0.49086  0.41010  0.34052  1.0000
  C   C147      1.0  0.40586  0.46959  0.42298  1.0000
  C   C148      1.0  0.39779  0.17974  0.40820  1.0000
  C   C149      1.0  0.40078  0.20727  0.39686  1.0000
  C   C150      1.0  0.42550  0.23194  0.39685  1.0000
  C   C151      1.0  0.44730  0.22924  0.40827  1.0000
  C   C152      1.0  0.44430  0.20166  0.41959  1.0000
  C   C153      1.0  0.41976  0.17697  0.41955  1.0000
  H   H176      1.0  0.38390  0.20954  0.38802  1.0000
  H   H177      1.0  0.42761  0.25302  0.38807  1.0000
  H   H178      1.0  0.46103  0.19939  0.42848  1.0000
  H   H179      1.0  0.41763  0.15598  0.42837  1.0000
  H   H180      1.0  0.31693  0.25446  0.45673  1.0000
  H   H181      1.0  0.47722  0.05310  0.40497  1.0000
  H   H182      1.0  0.10619  0.19678  0.26959  1.0000
  H   H183      1.0  0.10201  0.34033  0.24848  1.0000
  H   H184      1.0  0.18409  0.19425  0.26082  1.0000
  C   C154      1.0  0.48466  0.48503  0.29022  1.0000
  H   H185      1.0  0.02312  0.04078  0.26039  1.0000
  H   H186      1.0  0.34638  0.19887  0.45454  1.0000
  H   H187      1.0  0.16084  0.20810  0.27730  1.0000
  C   C155      1.0  0.11522  0.26144  0.27677  1.0000
  H   H188      1.0  0.08047  0.34021  0.27583  1.0000
  C   C156      1.0  0.46065  0.49520  0.41900  1.0000
  H   H189      1.0  0.37146  0.22106  0.43847  1.0000
  H   H190      1.0  0.29467  0.27341  0.44111  1.0000
  H   H191      1.0  0.49875  0.39950  0.35171  1.0000
  H   H192      1.0  0.35201  0.18259  0.43633  1.0000
  C   C157      1.0  0.14813  0.14494  0.22586  1.0000
  H   H193      1.0  0.48855  0.14883  0.40593  1.0000
  C   C158      1.0  0.44092  0.46649  0.42091  1.0000
  C   C159      1.0  0.48673  0.09092  0.42757  1.0000
  C   C160      1.0  0.23080  0.16292  0.45383  1.0000
  C   C161      1.0  0.31704  0.25782  0.44406  1.0000
  C   C162      1.0  0.28727  0.20426  0.44318  1.0000
  C   C163      1.0  0.32021  0.23175  0.42075  1.0000
  C   C164      1.0  0.49235  0.07635  0.40168  1.0000
  S   S47       1.0  0.34964  0.03447  0.46027  1.0000
  N   N13       1.0  0.31747  0.22485  0.43766  1.0000
  H   H194      1.0  0.08867  0.28986  0.29390  1.0000
  C   C165      1.0  0.12767  0.26033  0.26116  1.0000
  H   H195      1.0  0.13849  0.23854  0.23163  1.0000
  H   H196      1.0  0.20987  0.14659  0.45826  1.0000
  C   C166      1.0  0.12252  0.28972  0.25106  1.0000
  C   C167      1.0  0.25577  0.15217  0.44305  1.0000
  H   H197      1.0  0.29711  0.24480  0.41697  1.0000
  H   H198      1.0  0.34244  0.24758  0.41620  1.0000
  H   H199      1.0  0.51793  0.23244  0.43260  1.0000
  H   H200      1.0  0.46779  0.11085  0.42479  1.0000
  H   H201      1.0  0.51957  0.46200  0.38650  1.0000
  C   C168      1.0  0.50879  0.51566  0.38460  1.0000
  H   H202      1.0  0.39067  0.44712  0.42422  1.0000
  Fe  Fe26      1.0  0.34788  0.03051  0.43522  1.0000
  S   S48       1.0  0.16015  0.03297  0.29576  1.0000
  H   H203      1.0  0.09566  0.21100  0.25072  1.0000
  C   C169      1.0  0.17053  0.21660  0.26526  1.0000
  C   C170      1.0  0.51115  0.46385  0.34473  1.0000
  H   H204      1.0  0.42033  0.49207  0.37537  1.0000
  C   C171      1.0  0.49754  0.02768  0.46095  1.0000
  C   C172      1.0  0.47544  0.44200  0.31166  1.0000
  H   H205      1.0  0.50986  0.07227  0.39130  1.0000
  C   C173      1.0  0.44508  0.49854  0.37800  1.0000
  H   H206      1.0  0.48526  0.47487  0.34671  1.0000
  C   C174      1.0  0.28362  0.17242  0.43778  1.0000
  H   H207      1.0  0.26210  0.23771  0.45937  1.0000
  H   H208      1.0  0.30259  0.16259  0.42962  1.0000
  H   H209      1.0  0.48792  0.49275  0.41704  1.0000
  H   H210      1.0  0.45284  0.44184  0.42040  1.0000
  C   C175      1.0  0.23356  0.19396  0.45940  1.0000
  H   H211      1.0  0.04761  0.20878  0.28296  1.0000
  C   C176      1.0  0.46692  0.45723  0.29759  1.0000
  H   H212      1.0  0.46404  0.41827  0.34295  1.0000
  H   H213      1.0  0.51251  0.05023  0.45866  1.0000
  H   H214      1.0  0.44643  0.44737  0.29234  1.0000
  C   C177      1.0  0.03000  0.25811  0.31871  1.0000
  H   H215      1.0  0.21460  0.20167  0.46818  1.0000
  N   N14       1.0  0.51255  0.43860  0.33349  1.0000
  C   C178      1.0  0.50222  0.45443  0.31879  1.0000
  C   C179      1.0  0.51576  0.14640  0.40519  1.0000
  H   H216      1.0  0.51559  0.03221  0.42341  1.0000
  S   S49       1.0  0.44261  0.07006  0.46236  1.0000
  H   H217      1.0  0.02498  0.27163  0.32872  1.0000
  H   H218      1.0  0.47798  0.49667  0.27930  1.0000
  H   H219      1.0  0.02242  0.51560  0.32743  1.0000
  H   H220      1.0  0.51796  0.45234  0.35603  1.0000
  C   C180      1.0  0.51980  0.48274  0.31093  1.0000
  H   H221      1.0  0.05048  0.51684  0.37503  1.0000
  C   C181      1.0  0.02433  0.51408  0.37332  1.0000
  H   H222      1.0  0.03124  0.46062  0.37186  1.0000
  Fe  Fe27      1.0  0.20831  0.22996  0.52519  1.0000
  S   S50       1.0  0.16506  0.19565  0.53432  1.0000
  S   S51       1.0  0.25420  0.21935  0.50863  1.0000
  Fe  Fe28      1.0  0.18126  0.28610  0.54436  1.0000
  S   S52       1.0  0.13612  0.25650  0.55490  1.0000
  S   S53       1.0  0.18437  0.33731  0.55253  1.0000
  Fe  Fe29      1.0  0.17258  0.21291  0.55715  1.0000
  S   S54       1.0  0.17249  0.18497  0.58074  1.0000
  Fe  Fe30      1.0  0.13240  0.24270  0.53130  1.0000
  S   S55       1.0  0.08419  0.24721  0.51969  1.0000
  S   S56       1.0  0.21813  0.24374  0.54834  1.0000
  S   S57       1.0  0.17532  0.27562  0.52046  1.0000
  Fe  Fe31      1.0  0.30079  0.46812  0.60367  1.0000
  S   S58       1.0  0.34917  0.44151  0.59638  1.0000
  S   S59       1.0  0.28122  0.45450  0.62836  1.0000
  S   S60       1.0  0.34717  0.48493  0.56306  1.0000
  Fe  Fe32      1.0  0.32535  0.43651  0.57492  1.0000
  S   S61       1.0  0.32759  0.38883  0.56312  1.0000
  S   S62       1.0  0.41399  0.51929  0.58925  1.0000
  S   S63       1.0  0.27565  0.45947  0.58306  1.0000
  Fe  Fe33      1.0  0.17724  0.24807  0.65941  1.0000
  S   S64       1.0  0.12762  0.27282  0.65547  1.0000
  S   S65       1.0  0.19664  0.21244  0.64257  1.0000
  Fe  Fe34      1.0  0.18684  0.28778  0.68606  1.0000
  S   S66       1.0  0.13791  0.31640  0.68422  1.0000
  Fe  Fe35      1.0  0.11635  0.26621  0.68094  1.0000
  S   S67       1.0  0.06989  0.24340  0.69493  1.0000
  Fe  Fe36      1.0  0.15398  0.32011  0.65883  1.0000
  S   S68       1.0  0.15117  0.36336  0.64051  1.0000
  S   S69       1.0  0.16430  0.23730  0.68458  1.0000
  S   S70       1.0  0.20456  0.29548  0.66097  1.0000
  Fe  Fe37      1.0  0.30047  0.05330  0.61353  1.0000
  S   S71       1.0  0.34559  0.07996  0.61952  1.0000
  S   S72       1.0  0.27695  0.06460  0.59128  1.0000
  Fe  Fe38      1.0  0.31876  0.07382  0.64342  1.0000
  S   S73       1.0  0.31383  0.11252  0.66028  1.0000
  C   C182      1.0  0.13836  0.04467  0.67278  1.0000
  S   S74       1.0  0.27183  0.05146  0.63696  1.0000
  C   C183      1.0  0.07767  0.02977  0.67814  1.0000
  C   C184      1.0  0.21884  0.45749  0.55042  1.0000
  C   C185      1.0  0.19024  0.50442  0.51949  1.0000
  N   N15       1.0  0.12901  0.14102  0.63017  1.0000
  C   C186      1.0  0.22928  0.18535  0.64803  1.0000
  C   C187      1.0  0.24491  0.16500  0.63735  1.0000
  C   C188      1.0  0.27052  0.14233  0.64125  1.0000
  C   C189      1.0  0.28088  0.14015  0.65586  1.0000
  C   C190      1.0  0.26532  0.16050  0.66666  1.0000
  C   C191      1.0  0.23935  0.18317  0.66274  1.0000
  H   H223      1.0  0.23750  0.16702  0.62598  1.0000
  H   H224      1.0  0.28287  0.12708  0.63281  1.0000
  H   H225      1.0  0.27325  0.15855  0.67802  1.0000
  H   H226      1.0  0.22711  0.19872  0.67107  1.0000
  H   H227      1.0  0.28130  0.29855  0.64968  1.0000
  C   C192      1.0  0.49846  0.45895  0.59028  1.0000
  C   C193      1.0  0.25502  0.38508  0.70151  1.0000
  C   C194      1.0  0.36034  0.51308  0.63160  1.0000
  H   H228      1.0  0.13051  0.37700  0.57093  1.0000
  C   C195      1.0  0.17295  0.03741  0.66835  1.0000
  H   H229      1.0  0.18176  0.12756  0.62543  1.0000
  C   C196      1.0  0.24493  0.42938  0.63165  1.0000
  C   C197      1.0  0.23852  0.40902  0.64555  1.0000
  C   C198      1.0  0.20992  0.38847  0.64832  1.0000
  C   C199      1.0  0.18721  0.38880  0.63733  1.0000
  C   C200      1.0  0.19344  0.40937  0.62350  1.0000
  C   C201      1.0  0.22239  0.42939  0.62060  1.0000
  H   H230      1.0  0.25573  0.40908  0.65417  1.0000
  H   H231      1.0  0.20506  0.37297  0.65909  1.0000
  H   H232      1.0  0.17588  0.40975  0.61502  1.0000
  H   H233      1.0  0.22687  0.44535  0.60997  1.0000
  C   C202      1.0  0.22468  0.34854  0.55614  1.0000
  C   C203      1.0  0.25387  0.33748  0.54769  1.0000
  C   C204      1.0  0.28557  0.34971  0.54994  1.0000
  C   C205      1.0  0.28805  0.37258  0.56074  1.0000
  C   C206      1.0  0.25890  0.38193  0.56969  1.0000
  C   C207      1.0  0.22732  0.37048  0.56722  1.0000
  H   H234      1.0  0.25194  0.32045  0.53910  1.0000
  H   H235      1.0  0.30810  0.34186  0.54314  1.0000
  H   H236      1.0  0.26068  0.39699  0.57890  1.0000
  H   H237      1.0  0.20495  0.37829  0.57408  1.0000
  C   C208      1.0  0.25774  0.18318  0.49861  1.0000
  C   C209      1.0  0.23254  0.15885  0.50061  1.0000
  C   C210      1.0  0.23698  0.12968  0.49291  1.0000
  H   H238      1.0  0.20975  0.16235  0.50816  1.0000
  H   H239      1.0  0.43241  0.49858  0.55269  1.0000
  C   C211      1.0  0.20196  0.15185  0.58332  1.0000
  C   C212      1.0  0.20690  0.12728  0.57314  1.0000
  C   C213      1.0  0.22947  0.10025  0.57591  1.0000
  C   C214      1.0  0.24731  0.09772  0.58881  1.0000
  C   C215      1.0  0.24202  0.12213  0.59908  1.0000
  C   C216      1.0  0.21927  0.14904  0.59632  1.0000
  H   H240      1.0  0.19288  0.12880  0.56329  1.0000
  H   H241      1.0  0.23302  0.08108  0.56807  1.0000
  H   H242      1.0  0.25574  0.12037  0.60901  1.0000
  H   H243      1.0  0.21528  0.16809  0.60412  1.0000
  C   C217      1.0  0.05072  0.27329  0.52672  1.0000
  C   C218      1.0  0.03251  0.29317  0.51632  1.0000
  C   C219      1.0  0.02967  0.23542  0.67188  1.0000
  C   C220      1.0  0.24068  0.32617  0.70811  1.0000
  H   H244      1.0  0.05351  0.25654  0.55047  1.0000
  H   H245      1.0  0.36308  0.44719  0.62926  1.0000
  C   C221      1.0  0.48580  0.48958  0.55292  1.0000
  H   H246      1.0  0.35132  0.44769  0.69714  1.0000
  H   H247      1.0  0.28191  0.27933  0.62461  1.0000
  C   C222      1.0  0.32128  0.21186  0.64175  1.0000
  H   H248      1.0  0.15121  0.46962  0.58772  1.0000
  H   H249      1.0  0.22346  0.35722  0.68900  1.0000
  C   C223      1.0  0.13095  0.49842  0.51671  1.0000
  N   N16       1.0  0.29721  0.14056  0.53965  1.0000
  C   C224      1.0  0.26003  0.14562  0.54050  1.0000
  C   C225      1.0  0.30552  0.12046  0.55385  1.0000
  C   C226      1.0  0.31227  0.17441  0.53911  1.0000
  C   C227      1.0  0.30947  0.12227  0.52632  1.0000
  C   C228      1.0  0.29506  0.09104  0.52437  1.0000
  C   C229      1.0  0.33650  0.13399  0.51528  1.0000
  H   H250      1.0  0.39648  0.46640  0.61632  1.0000
  H   H251      1.0  0.25289  0.40835  0.69420  1.0000
  H   H252      1.0  0.06199  0.50545  0.58561  1.0000
  H   H253      1.0  0.24604  0.12164  0.54275  1.0000
  H   H254      1.0  0.25034  0.16122  0.54980  1.0000
  H   H255      1.0  0.25263  0.15879  0.52967  1.0000
  H   H256      1.0  0.29686  0.13324  0.56423  1.0000
  H   H257      1.0  0.33322  0.11581  0.55367  1.0000
  H   H258      1.0  0.29337  0.09534  0.55556  1.0000
  H   H259      1.0  0.30699  0.19060  0.52854  1.0000
  H   H260      1.0  0.30156  0.18804  0.54895  1.0000
  H   H261      1.0  0.34001  0.17273  0.53968  1.0000
  C   C230      1.0  0.03981  0.27199  0.54236  1.0000
  S   S75       1.0  0.22091  0.28907  0.70478  1.0000
  C   C231      1.0  0.32095  0.22213  0.65638  1.0000
  C   C232      1.0  0.29311  0.26356  0.63348  1.0000
  H   H262      1.0  0.34906  0.15741  0.51573  1.0000
  C   C233      1.0  0.04859  0.12607  0.65790  1.0000
  H   H263      1.0  0.10481  0.08572  0.68037  1.0000
  H   H264      1.0  0.27684  0.46496  0.53190  1.0000
  C   C234      1.0  0.12034  0.11877  0.61876  1.0000
  C   C235      1.0  0.11413  0.47446  0.57090  1.0000
  C   C236      1.0  0.13716  0.45705  0.58027  1.0000
  H   H265      1.0  0.14076  0.19386  0.62963  1.0000
  C   C237      1.0  0.34789  0.11563  0.50304  1.0000
  H   H266      1.0  0.11786  0.09208  0.62379  1.0000
  H   H267      1.0  0.22957  0.42063  0.51731  1.0000
  C   C238      1.0  0.29129  0.14948  0.48086  1.0000
  H   H268      1.0  0.06635  0.10802  0.63679  1.0000
  H   H269      1.0  0.04103  0.29456  0.50423  1.0000
  H   H270      1.0  0.44563  0.45209  0.58780  1.0000
  H   H271      1.0  0.42372  0.49314  0.66250  1.0000
  C   C239      1.0  0.46460  0.46975  0.58958  1.0000
  C   C240      1.0  0.39911  0.48200  0.66520  1.0000
  C   C241      1.0  0.49325  0.04193  0.64020  1.0000
  C   C242      1.0  0.28708  0.17840  0.48870  1.0000
  N   N17       1.0  0.20116  0.28255  0.60267  1.0000
  C   C243      1.0  0.18487  0.29155  0.58851  1.0000
  C   C244      1.0  0.21076  0.24624  0.60354  1.0000
  C   C245      1.0  0.17565  0.28723  0.61590  1.0000
  C   C246      1.0  0.23162  0.30328  0.60228  1.0000
  C   C247      1.0  0.25988  0.29905  0.59133  1.0000
  C   C248      1.0  0.23412  0.32836  0.61239  1.0000
  C   C249      1.0  0.28909  0.31799  0.59084  1.0000
  C   C250      1.0  0.26329  0.34752  0.61163  1.0000
  C   C251      1.0  0.29071  0.34233  0.60090  1.0000
  H   H272      1.0  0.20188  0.28694  0.57807  1.0000
  H   H273      1.0  0.16178  0.27652  0.58830  1.0000
  H   H274      1.0  0.17752  0.31872  0.58727  1.0000
  H   H275      1.0  0.22646  0.23921  0.61307  1.0000
  H   H276      1.0  0.22502  0.23912  0.59281  1.0000
  H   H277      1.0  0.18823  0.22978  0.60548  1.0000
  H   H278      1.0  0.16515  0.31343  0.61542  1.0000
  H   H279      1.0  0.15365  0.27040  0.61630  1.0000
  H   H280      1.0  0.18660  0.28132  0.62693  1.0000
  H   H281      1.0  0.25928  0.28162  0.58282  1.0000
  H   H282      1.0  0.21381  0.33390  0.62095  1.0000
  H   H283      1.0  0.31009  0.31495  0.58215  1.0000
  H   H284      1.0  0.26447  0.36686  0.61928  1.0000
  H   H285      1.0  0.31292  0.35789  0.60003  1.0000
  C   C252      1.0  0.19174  0.47165  0.52751  1.0000
  C   C253      1.0  0.33648  0.45206  0.67437  1.0000
  H   H286      1.0  0.33159  0.18726  0.63941  1.0000
  H   H287      1.0  0.33531  0.50116  0.63194  1.0000
  H   H288      1.0  0.24190  0.44740  0.55546  1.0000
  H   H289      1.0  0.16002  0.40946  0.58768  1.0000
  H   H290      1.0  0.20858  0.11245  0.67175  1.0000
  H   H291      1.0  0.49560  0.05984  0.64836  1.0000
  H   H292      1.0  0.29129  0.21458  0.68644  1.0000
  H   H293      1.0  0.25265  0.50263  0.53099  1.0000
  H   H294      1.0  0.07939  0.46642  0.55423  1.0000
  H   H295      1.0  0.31094  0.31739  0.66902  1.0000
  C   C254      1.0  0.38806  0.45942  0.62867  1.0000
  C   C255      1.0  0.38971  0.47103  0.68061  1.0000
  C   C256      1.0  0.22901  0.42223  0.52981  1.0000
  H   H296      1.0  0.36827  0.12506  0.49464  1.0000
  H   H297      1.0  0.08989  0.40571  0.55457  1.0000
  C   C257      1.0  0.46156  0.03753  0.63504  1.0000
  C   C258      1.0  0.33264  0.08548  0.50131  1.0000
  C   C259      1.0  0.10337  0.14184  0.64361  1.0000
  C   C260      1.0  0.07269  0.12368  0.64525  1.0000
  C   C261      1.0  0.10844  0.16199  0.65546  1.0000
  H   H298      1.0  0.48306  0.46265  0.55587  1.0000
  H   H299      1.0  0.10366  0.51828  0.54606  1.0000
  H   H300      1.0  0.04744  0.25096  0.66426  1.0000
  H   H301      1.0  0.15964  0.10326  0.64156  1.0000
  C   C262      1.0  0.18910  0.09385  0.67194  1.0000
  C   C263      1.0  0.13309  0.17548  0.62217  1.0000
  N   N18       1.0  0.30662  0.26384  0.67564  1.0000
  S   S76       1.0  0.27101  0.08799  0.47348  1.0000
  C   C264      1.0  0.13028  0.07783  0.67671  1.0000
  H   H302      1.0  0.27494  0.08013  0.53243  1.0000
  C   C265      1.0  0.23828  0.35620  0.69858  1.0000
  H   H303      1.0  0.14030  0.11913  0.60882  1.0000
  H   H304      1.0  0.14888  0.12689  0.67958  1.0000
  H   H305      1.0  0.13100  0.17678  0.65499  1.0000
  H   H306      1.0  0.21751  0.11084  0.49458  1.0000
  H   H307      1.0  0.34095  0.07180  0.49158  1.0000
  H   H308      1.0  0.09658  0.12723  0.61389  1.0000
  H   H309      1.0  0.50533  0.43291  0.58904  1.0000
  Fe  Fe39      1.0  0.36685  0.02812  0.62575  1.0000
  C   C266      1.0  0.13145  0.46640  0.52464  1.0000
  C   C267      1.0  0.34561  0.46287  0.65893  1.0000
  H   H310      1.0  0.26823  0.30311  0.67503  1.0000
  H   H311      1.0  0.31390  0.14613  0.47325  1.0000
  C   C268      1.0  0.37715  0.47836  0.65385  1.0000
  H   H312      1.0  0.10913  0.18516  0.61784  1.0000
  H   H313      1.0  0.10851  0.45177  0.52658  1.0000
  S   S77       1.0  0.34346  0.02428  0.65012  1.0000
  C   C269      1.0  0.51765  0.50409  0.55180  1.0000
  C   C270      1.0  0.12587  0.40392  0.57100  1.0000
  H   H314      1.0  0.30682  0.22398  0.61913  1.0000
  Fe  Fe40      1.0  0.29816  0.50822  0.57236  1.0000
  H   H315      1.0  0.25774  0.47834  0.51474  1.0000
  S   S78       1.0  0.29372  0.42083  0.71780  1.0000
  Fe  Fe41      1.0  0.36623  0.49242  0.58545  1.0000
  H   H316      1.0  0.08843  0.18019  0.67681  1.0000
  C   C271      1.0  0.25372  0.47671  0.52744  1.0000
  N   N19       1.0  0.10791  0.51129  0.57036  1.0000
  C   C272      1.0  0.30627  0.07324  0.51193  1.0000
  C   C273      1.0  0.30712  0.25385  0.65996  1.0000
  H   H317      1.0  0.34989  0.23375  0.68207  1.0000
  H   H318      1.0  0.29660  0.30643  0.68878  1.0000
  H   H319      1.0  0.10769  0.50868  0.51265  1.0000
  C   C274      1.0  0.26638  0.12486  0.48302  1.0000
  H   H320      1.0  0.33077  0.20441  0.66496  1.0000
  C   C275      1.0  0.09717  0.45488  0.56169  1.0000
  H   H321      1.0  0.32772  0.45889  0.65098  1.0000
  C   C276      1.0  0.16185  0.12887  0.63525  1.0000
  H   H322      1.0  0.30668  0.19708  0.48712  1.0000
  N   N20       1.0  0.38632  0.48924  0.63740  1.0000
  H   H323      1.0  0.21446  0.48355  0.55376  1.0000
  C   C277      1.0  0.29519  0.29924  0.67704  1.0000
  H   H324      1.0  0.25727  0.24351  0.68280  1.0000
  C   C278      1.0  0.28340  0.24152  0.68620  1.0000
  H   H325      1.0  0.43980  0.05201  0.63919  1.0000
  C   C279      1.0  0.15543  0.10190  0.67630  1.0000
  H   H326      1.0  0.44066  0.48913  0.63707  1.0000
  H   H327      1.0  0.25344  0.41182  0.53343  1.0000
  H   H328      1.0  0.28185  0.24832  0.69816  1.0000
  C   C280      1.0  0.14265  0.42228  0.58032  1.0000
  H   H329      1.0  0.20960  0.40452  0.53574  1.0000
  C   C281      1.0  0.35849  0.45615  0.68518  1.0000
  H   H330      1.0  0.19740  0.44168  0.55591  1.0000
  H   H331      1.0  0.34167  0.26976  0.69211  1.0000
  C   C282      1.0  0.10304  0.42016  0.56176  1.0000
  C   C283      1.0  0.45569  0.50359  0.59072  1.0000
  H   H332      1.0  0.31219  0.44041  0.67803  1.0000
  H   H333      1.0  0.17176  0.14564  0.64289  1.0000
  C   C284      1.0  0.45724  0.50977  0.55113  1.0000
  H   H334      1.0  0.15284  0.17611  0.61225  1.0000
  H   H335      1.0  0.42514  0.51483  0.62164  1.0000
  N   N21       1.0  0.22287  0.45744  0.53358  1.0000
  C   C285      1.0  0.27408  0.38404  0.71399  1.0000
  C   C286      1.0  0.08427  0.16406  0.66805  1.0000
  C   C287      1.0  0.16117  0.45332  0.53018  1.0000
  H   H336      1.0  0.15989  0.42876  0.53664  1.0000
  H   H337      1.0  0.40621  0.44014  0.63308  1.0000
  C   C288      1.0  0.30721  0.23244  0.63034  1.0000
  H   H338      1.0  0.35964  0.27489  0.67243  1.0000
  C   C289      1.0  0.34094  0.26036  0.68072  1.0000
  C   C290      1.0  0.29299  0.27431  0.64803  1.0000
  C   C291      1.0  0.19782  0.06167  0.66800  1.0000
  H   H339      1.0  0.29422  0.04997  0.51039  1.0000
  H   H340      1.0  0.02509  0.30960  0.71482  1.0000
  H   H341      1.0  0.03532  0.14858  0.67885  1.0000
  H   H342      1.0  0.40674  0.47400  0.68912  1.0000
  C   C292      1.0  0.41945  0.50633  0.63406  1.0000
  H   H343      1.0  0.07498  0.03759  0.68994  1.0000
  H   H344      1.0  0.06948  0.05090  0.67009  1.0000
  H   H345      1.0  0.11942  0.51750  0.59318  1.0000
  C   C293      1.0  0.07140  0.51841  0.57423  1.0000
  C   C294      1.0  0.05435  0.14625  0.66924  1.0000
  H   H346      1.0  0.05569  0.51031  0.56569  1.0000
  C   C295      1.0  0.03526  0.22754  0.68720  1.0000
  H   H347      1.0  0.02722  0.32038  0.68678  1.0000
  C   C296      1.0  0.16023  0.51745  0.51423  1.0000
  H   H348      1.0  0.02488  0.11282  0.65880  1.0000
  C   C297      1.0  0.51431  0.51522  0.59406  1.0000
  H   H349      1.0  0.10761  0.02626  0.64940  1.0000
  H   H350      1.0  0.22415  0.05532  0.66489  1.0000
  H   H351      1.0  0.48972  0.26802  0.79653  1.0000
  S   S79       1.0  0.47442  0.17683  0.84694  1.0000
  S   S80       1.0  0.45557  0.09781  0.82613  1.0000
  H   H352      1.0  0.44749  0.49474  0.79282  1.0000
  H   H353      1.0  0.15461  0.26618  0.96150  1.0000
  Fe  Fe42      1.0  0.47787  0.21851  0.82762  1.0000
  S   S81       1.0  0.44391  0.26489  0.82700  1.0000
  C   C298      1.0  0.24172  0.42630  0.95937  1.0000
  S   S82       1.0  0.02073  0.25495  0.88991  1.0000
  N   N22       1.0  0.49337  0.47866  0.80250  1.0000
  Fe  Fe43      1.0  0.32725  0.44549  0.76860  1.0000
  S   S83       1.0  0.34500  0.46424  0.74438  1.0000
  S   S84       1.0  0.30276  0.48042  0.78546  1.0000
  Fe  Fe44      1.0  0.35235  0.37333  0.76449  1.0000
  S   S85       1.0  0.37187  0.38722  0.73984  1.0000
  S   S86       1.0  0.35892  0.31793  0.77261  1.0000
  Fe  Fe45      1.0  0.39125  0.43316  0.74829  1.0000
  S   S87       1.0  0.44303  0.45313  0.74064  1.0000
  Fe  Fe46      1.0  0.32347  0.41655  0.73831  1.0000
  H   H354      1.0  0.23327  0.40486  0.96723  1.0000
  S   S88       1.0  0.37557  0.41735  0.77307  1.0000
  S   S89       1.0  0.30201  0.39963  0.76239  1.0000
  Fe  Fe47      1.0  0.13016  0.43035  0.94240  1.0000
  S   S90       1.0  0.09676  0.44252  0.96322  1.0000
  S   S91       1.0  0.16155  0.47168  0.92854  1.0000
  Fe  Fe48      1.0  0.10709  0.35690  0.94542  1.0000
  S   S92       1.0  0.07249  0.36405  0.96664  1.0000
  S   S93       1.0  0.10993  0.30324  0.93887  1.0000
  Fe  Fe49      1.0  0.05793  0.41296  0.95410  1.0000
  H   H355      1.0  0.20315  0.46395  0.77479  1.0000
  H   H356      1.0  0.03635  0.29891  0.95112  1.0000
  C   C299      1.0  0.04426  0.26740  0.90419  1.0000
  S   S94       1.0  0.08964  0.40418  0.93229  1.0000
  S   S95       1.0  0.15104  0.38207  0.95353  1.0000
  H   H357      1.0  0.18525  0.49193  0.73449  1.0000
  H   H358      1.0  0.47266  0.34463  0.81406  1.0000
  C   C300      1.0  0.46128  0.35777  0.77272  1.0000
  H   H359      1.0  0.05816  0.21737  0.91317  1.0000
  C   C301      1.0  0.43819  0.03092  0.83027  1.0000
  C   C302      1.0  0.44941  0.48920  0.74960  1.0000
  H   H360      1.0  0.21077  0.35155  0.76595  1.0000
  C   C303      1.0  0.23730  0.42521  0.94398  1.0000
  C   C304      1.0  0.26273  0.47975  0.93776  1.0000
  H   H361      1.0  0.50038  0.49588  0.73893  1.0000
  C   C305      1.0  0.32016  0.26056  0.80659  1.0000
  H   H362      1.0  0.39949  0.48957  0.76179  1.0000
  H   H363      1.0  0.06557  0.02050  0.88060  1.0000
  H   H364      1.0  0.16540  0.47844  0.96075  1.0000
  H   H365      1.0  0.24531  0.47737  0.72785  1.0000
  H   H366      1.0  0.51163  0.06079  0.83945  1.0000
  H   H367      1.0  0.03459  0.48245  0.96357  1.0000
  H   H368      1.0  0.04283  0.32623  0.84756  1.0000
  C   C306      1.0  0.22474  0.47249  0.76630  1.0000
  C   C307      1.0  0.51430  0.41917  0.80848  1.0000
  H   H369      1.0  0.26230  0.30183  0.72778  1.0000
  H   H370      1.0  0.29140  0.35287  0.73302  1.0000
  H   H371      1.0  0.24290  0.45159  0.92140  1.0000
  C   C308      1.0  0.24761  0.45196  0.93322  1.0000
  C   C309      1.0  0.06742  0.31324  0.91597  1.0000
  C   C310      1.0  0.08426  0.28999  0.92552  1.0000
  C   C311      1.0  0.08056  0.25536  0.92451  1.0000
  C   C312      1.0  0.06040  0.24406  0.91398  1.0000
  H   H372      1.0  0.19320  0.33950  0.74115  1.0000
  H   H373      1.0  0.06992  0.33994  0.91666  1.0000
  H   H374      1.0  0.09350  0.23718  0.93185  1.0000
  C   C313      1.0  0.45034  0.39298  0.80773  1.0000
  C   C314      1.0  0.47689  0.37149  0.81152  1.0000
  C   C315      1.0  0.42180  0.27951  0.81134  1.0000
  C   C316      1.0  0.41808  0.25963  0.79955  1.0000
  C   C317      1.0  0.39915  0.27192  0.78759  1.0000
  C   C318      1.0  0.38458  0.30440  0.78713  1.0000
  C   C319      1.0  0.38892  0.32448  0.79875  1.0000
  C   C320      1.0  0.40703  0.31183  0.81093  1.0000
  H   H375      1.0  0.42912  0.23461  0.79977  1.0000
  H   H376      1.0  0.39549  0.25614  0.77871  1.0000
  H   H377      1.0  0.37715  0.34922  0.79865  1.0000
  H   H378      1.0  0.40917  0.32694  0.82022  1.0000
  C   C321      1.0  0.46169  0.49912  0.80253  1.0000
  C   C322      1.0  0.46280  0.05450  0.83201  1.0000
  C   C323      1.0  0.24849  0.47900  0.74008  1.0000
  N   N23       1.0  0.36960  0.18534  0.83560  1.0000
  C   C324      1.0  0.38016  0.19756  0.84962  1.0000
  C   C325      1.0  0.34683  0.15642  0.84049  1.0000
  C   C326      1.0  0.40038  0.17315  0.82671  1.0000
  C   C327      1.0  0.35240  0.21144  0.82591  1.0000
  C   C328      1.0  0.34737  0.24522  0.82954  1.0000
  C   C329      1.0  0.34053  0.20346  0.81218  1.0000
  H   H379      1.0  0.43364  0.44264  0.80162  1.0000
  C   C330      1.0  0.32476  0.22775  0.80268  1.0000
  C   C331      1.0  0.25616  0.45467  0.96449  1.0000
  H   H380      1.0  0.39872  0.21832  0.84676  1.0000
  H   H381      1.0  0.35816  0.20656  0.85707  1.0000
  H   H382      1.0  0.39298  0.17733  0.85664  1.0000
  H   H383      1.0  0.32271  0.16477  0.84668  1.0000
  H   H384      1.0  0.35869  0.13681  0.84822  1.0000
  H   H385      1.0  0.34050  0.14343  0.83070  1.0000
  H   H386      1.0  0.41781  0.19431  0.82262  1.0000
  H   H387      1.0  0.41435  0.15391  0.83372  1.0000
  H   H388      1.0  0.39484  0.16091  0.81658  1.0000
  H   H389      1.0  0.35640  0.25408  0.83944  1.0000
  H   H390      1.0  0.34390  0.17848  0.80854  1.0000
  H   H391      1.0  0.24806  0.45878  0.76946  1.0000
  H   H392      1.0  0.31666  0.22140  0.79205  1.0000
  C   C332      1.0  0.20108  0.42451  0.73416  1.0000
  C   C333      1.0  0.19748  0.36525  0.74326  1.0000
  H   H393      1.0  0.42564  0.38278  0.80713  1.0000
  H   H394      1.0  0.26988  0.50090  0.92939  1.0000
  C   C334      1.0  0.02844  0.30466  0.85391  1.0000
  C   C335      1.0  0.33132  0.26922  0.82000  1.0000
  C   C336      1.0  0.21077  0.43256  0.74830  1.0000
  C   C337      1.0  0.50978  0.26551  0.78689  1.0000
  C   C338      1.0  0.49249  0.04299  0.83803  1.0000
  S   S96       1.0  0.48914  0.18412  0.80923  1.0000
  H   H395      1.0  0.04669  0.29346  0.82426  1.0000
  C   C339      1.0  0.48740  0.44195  0.80531  1.0000
  H   H396      1.0  0.49784  0.26055  0.77658  1.0000
  H   H397      1.0  0.32855  0.29506  0.82274  1.0000
  H   H398      1.0  0.22199  0.40861  0.77076  1.0000
  H   H399      1.0  0.46232  0.30576  0.77994  1.0000
  H   H400      1.0  0.05367  0.25745  0.83769  1.0000
  C   C340      1.0  0.04778  0.30198  0.90528  1.0000
  C   C341      1.0  0.18927  0.49032  0.74676  1.0000
  H   H401      1.0  0.44500  0.49370  0.81341  1.0000
  H   H402      1.0  0.49999  0.03777  0.79952  1.0000
  S   S97       1.0  0.02636  0.08082  0.88443  1.0000
  C   C342      1.0  0.48062  0.50523  0.74688  1.0000
  C   C343      1.0  0.42373  0.50171  0.75968  1.0000
  C   C344      1.0  0.17888  0.50278  0.93809  1.0000
  H   H403      1.0  0.27779  0.50420  0.95583  1.0000
  C   C345      1.0  0.51289  0.32712  0.77927  1.0000
  H   H404      1.0  0.22889  0.49942  0.76773  1.0000
  C   C346      1.0  0.21388  0.40523  0.75979  1.0000
  H   H405      1.0  0.30889  0.27961  0.79896  1.0000
  Fe  Fe50      1.0  0.48890  0.14225  0.82859  1.0000
  H   H406      1.0  0.30438  0.51768  0.75527  1.0000
  C   C347      1.0  0.26700  0.48130  0.95314  1.0000
  H   H407      1.0  0.27077  0.46288  0.74259  1.0000
  C   C348      1.0  0.17797  0.49963  0.95403  1.0000
  C   C349      1.0  0.50889  0.38455  0.81179  1.0000
  H   H408      1.0  0.16546  0.48138  0.75362  1.0000
  C   C350      1.0  0.20743  0.37212  0.75720  1.0000
  C   C351      1.0  0.51344  0.38792  0.77096  1.0000
  C   C352      1.0  0.45535  0.42765  0.80459  1.0000
  C   C353      1.0  0.47906  0.38769  0.76940  1.0000
  C   C354      1.0  0.51252  0.48994  0.81449  1.0000
  H   H409      1.0  0.04718  0.28743  0.85935  1.0000
  N   N24       1.0  0.21817  0.46785  0.75045  1.0000
  H   H410      1.0  0.43452  0.35767  0.77135  1.0000
  H   H411      1.0  0.46614  0.41071  0.76553  1.0000
  C   C355      1.0  0.47775  0.32789  0.77763  1.0000
  H   H412      1.0  0.49971  0.47796  0.77807  1.0000
  H   H413      1.0  0.22508  0.40388  0.94038  1.0000
  H   H414      1.0  0.25491  0.50554  0.74119  1.0000
  H   H415      1.0  0.41514  0.03954  0.82562  1.0000
  H   H416      1.0  0.02194  0.25607  0.82520  1.0000
  C   C356      1.0  0.19415  0.39141  0.73180  1.0000
  H   H417      1.0  0.03538  0.32026  0.89778  1.0000
  H   H418      1.0  0.05260  0.05289  0.82762  1.0000
  C   C357      1.0  0.51324  0.48608  0.78740  1.0000
  H   H419      1.0  0.19973  0.44359  0.72463  1.0000
  C   C358      1.0  0.03387  0.27303  0.83219  1.0000
  C   C359      1.0  0.03681  0.03303  0.83372  1.0000
  C   C360      1.0  0.27677  0.35389  0.72338  1.0000
  H   H420      1.0  0.50039  0.48128  0.82614  1.0000
  H   H421      1.0  0.51414  0.51785  0.81365  1.0000
  C   C361      1.0  0.26019  0.32505  0.72041  1.0000
  H   H422      1.0  0.51804  0.51357  0.78472  1.0000
  H   H423      1.0  0.19333  0.51670  0.74917  1.0000
  H   H424      1.0  0.18734  0.38578  0.72082  1.0000
  H   H425      1.0  0.49643  0.74304  0.21263  1.0000
  H   H426      1.0  0.43007  0.84212  0.07335  1.0000
  C   C362      1.0  0.39430  0.76122  0.11966  1.0000
  Fe  Fe51      1.0  0.43475  0.91322  0.01578  1.0000
  S   S98       1.0  0.43096  0.89477  0.04054  1.0000
  C   C363      1.0  0.49457  0.01615  0.01162  1.0000
  Fe  Fe52      1.0  0.38574  0.86078  0.00922  1.0000
  S   S99       1.0  0.37748  0.83864  0.03383  1.0000
  H   H427      1.0  0.08415  0.61680  0.17173  1.0000
  Fe  Fe53      1.0  0.37525  0.89242  0.03942  1.0000
  S   S100      1.0  0.34812  0.91530  0.05984  1.0000
  Fe  Fe54      1.0  0.43393  0.84296  0.03314  1.0000
  S   S101      1.0  0.46421  0.80737  0.04814  1.0000
  S   S102      1.0  0.37882  0.91441  0.01495  1.0000
  S   S103      1.0  0.44255  0.86133  0.00810  1.0000
  H   H428      1.0  0.36338  0.53795  0.16827  1.0000
  C   C364      1.0  0.30893  0.77014  0.97640  1.0000
  C   C365      1.0  0.28874  0.60887  0.99088  1.0000
  S   S104      1.0  0.19310  0.95813  0.06478  1.0000
  C   C366      1.0  0.30075  0.62488  0.01502  1.0000
  H   H429      1.0  0.30340  0.63128  0.98560  1.0000
  C   C367      1.0  0.49945  0.74923  0.17861  1.0000
  H   H430      1.0  0.25768  0.66437  0.00074  1.0000
  C   C368      1.0  0.31922  0.80260  0.97853  1.0000
  C   C369      1.0  0.16640  0.61409  0.17925  1.0000
  Fe  Fe55      1.0  0.35527  0.63385  0.17947  1.0000
  S   S105      1.0  0.34419  0.60585  0.20271  1.0000
  S   S106      1.0  0.31496  0.63971  0.16307  1.0000
  Fe  Fe56      1.0  0.43058  0.64039  0.18321  1.0000
  S   S107      1.0  0.42449  0.61192  0.20655  1.0000
  S   S108      1.0  0.48523  0.65075  0.17401  1.0000
  Fe  Fe57      1.0  0.39181  0.57733  0.19653  1.0000
  C   C370      1.0  0.21129  0.65624  0.17600  1.0000
  Fe  Fe58      1.0  0.37754  0.64346  0.21051  1.0000
  Fe  Fe59      1.0  0.17272  0.00303  0.07673  1.0000
  S   S109      1.0  0.40132  0.60303  0.17284  1.0000
  S   S110      1.0  0.38537  0.67465  0.18766  1.0000
  C   C371      1.0  0.44294  0.70469  0.21176  1.0000
  H   H431      1.0  0.42968  0.71960  0.11934  1.0000
  H   H432      1.0  0.51989  0.77928  0.06340  1.0000
  C   C372      1.0  0.18197  0.59811  0.19188  1.0000
  H   H433      1.0  0.38367  0.75383  0.13134  1.0000
  C   C373      1.0  0.38182  0.78986  0.11143  1.0000
  C   C374      1.0  0.42149  0.77947  0.08957  1.0000
  C   C375      1.0  0.39517  0.79989  0.09607  1.0000
  H   H434      1.0  0.16449  0.57679  0.15627  1.0000
  C   C376      1.0  0.24718  0.63979  0.00616  1.0000
  H   H435      1.0  0.45783  0.71863  0.17482  1.0000
  H   H436      1.0  0.36453  0.85865  0.10549  1.0000
  C   C377      1.0  0.23800  0.55465  0.16591  1.0000
  C   C378      1.0  0.25940  0.55586  0.17737  1.0000
  C   C379      1.0  0.28340  0.58134  0.17636  1.0000
  C   C380      1.0  0.28598  0.60637  0.16401  1.0000
  C   C381      1.0  0.26462  0.60516  0.15246  1.0000
  C   C382      1.0  0.24087  0.57917  0.15332  1.0000
  H   H437      1.0  0.10164  0.01856  0.13005  1.0000
  H   H438      1.0  0.29946  0.58178  0.18531  1.0000
  H   H439      1.0  0.26644  0.62437  0.14283  1.0000
  H   H440      1.0  0.22473  0.57834  0.14433  1.0000
  H   H441      1.0  0.30902  0.82435  0.97211  1.0000
  H   H442      1.0  0.22662  0.63367  0.99943  1.0000
  H   H443      1.0  0.45386  0.73581  0.09260  1.0000
  C   C383      1.0  0.46641  0.98242  0.03344  1.0000
  C   C384      1.0  0.04352  0.95987  0.06870  1.0000
  H   H444      1.0  0.23530  0.64377  0.01783  1.0000
  H   H445      1.0  0.45187  0.96075  0.03824  1.0000
  C   C385      1.0  0.23652  0.94753  0.06320  1.0000
  C   C386      1.0  0.25777  0.95788  0.07332  1.0000
  C   C387      1.0  0.29188  0.94750  0.07225  1.0000
  C   C388      1.0  0.30515  0.92747  0.06081  1.0000
  C   C389      1.0  0.28416  0.91781  0.05045  1.0000
  C   C390      1.0  0.24984  0.92749  0.05177  1.0000
  H   H446      1.0  0.24768  0.97320  0.08219  1.0000
  H   H447      1.0  0.30799  0.95509  0.08030  1.0000
  H   H448      1.0  0.29413  0.90242  0.04158  1.0000
  H   H449      1.0  0.23350  0.91939  0.04391  1.0000
  S   S111      1.0  0.05723  0.55599  0.14361  1.0000
  C   C391      1.0  0.10782  0.62621  0.17537  1.0000
  S   S112      1.0  0.31151  0.70068  0.98158  1.0000
  H   H450      1.0  0.46869  0.00108  0.05526  1.0000
  H   H451      1.0  0.45451  0.68608  0.20414  1.0000
  H   H452      1.0  0.31214  0.64870  0.00909  1.0000
  C   C392      1.0  0.34529  0.74640  0.99504  1.0000
  C   C393      1.0  0.35571  0.77887  0.99711  1.0000
  C   C394      1.0  0.34300  0.80706  0.98871  1.0000
  C   C395      1.0  0.22590  0.63997  0.18840  1.0000
  H   H453      1.0  0.25604  0.52361  0.04581  1.0000
  H   H454      1.0  0.35566  0.72465  0.00139  1.0000
  H   H455      1.0  0.37412  0.78205  0.00494  1.0000
  H   H456      1.0  0.35385  0.00494  0.01459  1.0000
  N   N25       1.0  0.27364  0.61301  0.00670  1.0000
  C   C396      1.0  0.26595  0.56501  0.02819  1.0000
  C   C397      1.0  0.32222  0.74191  0.98455  1.0000
  H   H457      1.0  0.10228  0.63240  0.18738  1.0000
  C   C398      1.0  0.25814  0.58100  0.01384  1.0000
  C   C399      1.0  0.51534  0.79716  0.02527  1.0000
  C   C400      1.0  0.23361  0.56532  0.00655  1.0000
  S   S113      1.0  0.15452  0.53947  0.13068  1.0000
  H   H458      1.0  0.22315  0.59813  0.20578  1.0000
  C   C401      1.0  0.36298  0.99546  0.02572  1.0000
  H   H459      1.0  0.34696  0.97382  0.03083  1.0000
  H   H460      1.0  0.42302  0.86074  0.09105  1.0000
  C   C402      1.0  0.06406  0.93748  0.06070  1.0000
  C   C403      1.0  0.25010  0.53519  0.03473  1.0000
  H   H461      1.0  0.30612  0.58666  0.99060  1.0000
  H   H462      1.0  0.39284  0.52550  0.14474  1.0000
  H   H463      1.0  0.28395  0.57516  0.03469  1.0000
  H   H464      1.0  0.49809  0.80726  0.01728  1.0000
  C   C404      1.0  0.50518  0.79483  0.04098  1.0000
  C   C405      1.0  0.18185  0.64376  0.17154  1.0000
  H   H465      1.0  0.32491  0.53740  0.15974  1.0000
  C   C406      1.0  0.47593  0.98754  0.01770  1.0000
  H   H466      1.0  0.41649  0.69686  0.21540  1.0000
  C   C407      1.0  0.21116  0.61112  0.19637  1.0000
  C   C408      1.0  0.35540  0.84889  0.09538  1.0000
  H   H467      1.0  0.30144  0.99213  0.04467  1.0000
  H   H468      1.0  0.29087  0.63083  0.02671  1.0000
  H   H469      1.0  0.44192  0.72936  0.20472  1.0000
  H   H470      1.0  0.14853  0.61762  0.14996  1.0000
  C   C409      1.0  0.36820  0.81862  0.07343  1.0000
  H   H471      1.0  0.38884  0.98462  0.02321  1.0000
  H   H472      1.0  0.17268  0.57504  0.19826  1.0000
  H   H473      1.0  0.33262  0.83331  0.09911  1.0000
  H   H474      1.0  0.26939  0.60584  0.98307  1.0000
  H   H475      1.0  0.35227  0.98833  0.05645  1.0000
  S   S114      1.0  0.35857  0.84778  0.98943  1.0000
  C   C410      1.0  0.14261  0.59444  0.15779  1.0000
  H   H476      1.0  0.44538  0.54305  0.21423  1.0000
  C   C411      1.0  0.21798  0.53551  0.01318  1.0000
  H   H477      1.0  0.10078  0.55952  0.17840  1.0000
  N   N26       1.0  0.38236  0.82968  0.08686  1.0000
  H   H478      1.0  0.34663  0.87127  0.08813  1.0000
  H   H479      1.0  0.32168  0.60600  0.01578  1.0000
  C   C412      1.0  0.04985  0.91629  0.05167  1.0000
  H   H480      1.0  0.17164  0.65719  0.16179  1.0000
  H   H481      1.0  0.43264  0.78525  0.07791  1.0000
  H   H482      1.0  0.36093  0.72258  0.21537  1.0000
  C   C413      1.0  0.42022  0.74184  0.11292  1.0000
  C   C414      1.0  0.41041  0.85321  0.08136  1.0000
  H   H483      1.0  0.35662  0.84015  0.06666  1.0000
  H   H484      1.0  0.40132  0.87659  0.07492  1.0000
  H   H485      1.0  0.51078  0.70069  0.21252  1.0000
  S   S115      1.0  0.46599  0.95809  0.00547  1.0000
  H   H486      1.0  0.14310  0.54860  0.18194  1.0000
  C   C415      1.0  0.22618  0.52050  0.02726  1.0000
  C   C416      1.0  0.43380  0.75096  0.09790  1.0000
  C   C417      1.0  0.50320  0.68895  0.17698  1.0000
  H   H487      1.0  0.48466  0.77236  0.17840  1.0000
  H   H488      1.0  0.34827  0.79947  0.07698  1.0000
  C   C418      1.0  0.12353  0.56898  0.18283  1.0000
  H   H489      1.0  0.12050  0.58306  0.15364  1.0000
  H   H490      1.0  0.11630  0.57217  0.19510  1.0000
  H   H491      1.0  0.38785  0.80733  0.06546  1.0000
  H   H492      1.0  0.36163  0.80355  0.11735  1.0000
  H   H493      1.0  0.22594  0.57634  0.99574  1.0000
  N   N27       1.0  0.13567  0.60098  0.17402  1.0000
  H   H494      1.0  0.28077  0.89421  0.21635  1.0000
  C   C419      1.0  0.47593  0.00537  0.04307  1.0000
  C   C420      1.0  0.37093  0.00758  0.05117  1.0000
  H   H495      1.0  0.06605  0.89900  0.04543  1.0000
  S   S116      1.0  0.14848  0.00345  0.10086  1.0000
  H   H496      1.0  0.39604  0.99454  0.05040  1.0000
  H   H497      1.0  0.22342  0.67819  0.16963  1.0000
  H   H498      1.0  0.11386  0.65012  0.16805  1.0000
  H   H499      1.0  0.10832  0.00929  0.14987  1.0000
  C   C421      1.0  0.48420  0.71886  0.17668  1.0000
  H   H500      1.0  0.25728  0.53711  0.18718  1.0000
  H   H501      1.0  0.19398  0.52064  0.97350  1.0000
  H   H502      1.0  0.09108  0.93670  0.06148  1.0000
  H   H503      1.0  0.24927  0.64919  0.19155  1.0000
  H   H504      1.0  0.19899  0.52439  0.00745  1.0000
  H   H505      1.0  0.05460  0.97648  0.07570  1.0000
  H   H506      1.0  0.45020  0.77418  0.21872  1.0000
  S   S117      1.0  0.39126  0.52090  0.19840  1.0000
  Fe  Fe60      1.0  0.10255  0.52051  0.14018  1.0000
  C   C422      1.0  0.29961  0.01917  0.04236  1.0000
  C   C423      1.0  0.34271  0.52123  0.16624  1.0000
  H   H507      1.0  0.24546  0.01800  0.04778  1.0000
  S   S118      1.0  0.20799  0.52216  0.16824  1.0000
  H   H508      1.0  0.35558  0.51990  0.13558  1.0000
  H   H509      1.0  0.28763  0.93727  0.21945  1.0000
  H   H510      1.0  0.28367  0.91867  0.37344  1.0000
  H   H511      1.0  0.29784  0.97067  0.45688  1.0000
  S   S119      1.0  0.05038  0.67987  0.37137  1.0000
  N   N28       1.0  0.27502  0.90429  0.24005  1.0000
  S   S120      1.0  0.06204  0.71239  0.29560  1.0000
  Fe  Fe61      1.0  0.23166  0.84831  0.28804  1.0000
  S   S121      1.0  0.23353  0.80085  0.27638  1.0000
  S   S122      1.0  0.19161  0.88396  0.27888  1.0000
  Fe  Fe62      1.0  0.28860  0.82220  0.30721  1.0000
  S   S123      1.0  0.29491  0.77381  0.29649  1.0000
  S   S124      1.0  0.31647  0.82879  0.32757  1.0000
  Fe  Fe63      1.0  0.28962  0.80601  0.27446  1.0000
  S   S125      1.0  0.31881  0.80369  0.25122  1.0000
  Fe  Fe64      1.0  0.23830  0.77354  0.29945  1.0000
  S   S126      1.0  0.21127  0.72764  0.31137  1.0000
  S   S127      1.0  0.28798  0.85514  0.28491  1.0000
  S   S128      1.0  0.23198  0.82032  0.31139  1.0000
  Fe  Fe65      1.0  0.19547  0.86215  0.41486  1.0000
  S   S129      1.0  0.22999  0.82056  0.42277  1.0000
  S   S130      1.0  0.20684  0.91745  0.41478  1.0000
  Fe  Fe66      1.0  0.14070  0.81244  0.40927  1.0000
  S   S131      1.0  0.17116  0.76716  0.41698  1.0000
  S   S132      1.0  0.08870  0.80934  0.40148  1.0000
  Fe  Fe67      1.0  0.18306  0.79740  0.43576  1.0000
  Fe  Fe68      1.0  0.21451  0.79500  0.40324  1.0000
  S   S133      1.0  0.25055  0.77453  0.38511  1.0000
  S   S134      1.0  0.14923  0.84079  0.42907  1.0000
  S   S135      1.0  0.18334  0.83851  0.39423  1.0000
  Fe  Fe69      1.0  0.47155  0.70516  0.39388  1.0000
  S   S136      1.0  0.45114  0.65545  0.40500  1.0000
  Fe  Fe70      1.0  0.43893  0.69715  0.36483  1.0000
  S   S137      1.0  0.41631  0.64687  0.37378  1.0000
  S   S138      1.0  0.42959  0.71757  0.34073  1.0000
  Fe  Fe71      1.0  0.40329  0.67175  0.39529  1.0000
  S   S139      1.0  0.35356  0.66513  0.40986  1.0000
  Fe  Fe72      1.0  0.46629  0.63414  0.38269  1.0000
  H   H512      1.0  0.39077  0.56515  0.39576  1.0000
  S   S140      1.0  0.42207  0.72295  0.38581  1.0000
  C   C424      1.0  0.51302  0.77462  0.40735  1.0000
  C   C425      1.0  0.27878  0.74427  0.39231  1.0000
  C   C426      1.0  0.27223  0.72753  0.40701  1.0000
  C   C427      1.0  0.29511  0.70292  0.41238  1.0000
  C   C428      1.0  0.32467  0.69549  0.40314  1.0000
  C   C429      1.0  0.33117  0.71248  0.38850  1.0000
  C   C430      1.0  0.30823  0.73680  0.38310  1.0000
  H   H513      1.0  0.24948  0.73330  0.41418  1.0000
  H   H514      1.0  0.29004  0.68986  0.42373  1.0000
  H   H515      1.0  0.35372  0.70664  0.38124  1.0000
  H   H516      1.0  0.31345  0.75008  0.37182  1.0000
  H   H517      1.0  0.06317  0.01399  0.32008  1.0000
  H   H518      1.0  0.46200  0.54860  0.41626  1.0000
  H   H519      1.0  0.34329  0.77956  0.22242  1.0000
  H   H520      1.0  0.43468  0.55228  0.37574  1.0000
  C   C431      1.0  0.32955  0.76291  0.24622  1.0000
  C   C432      1.0  0.32742  0.73526  0.25735  1.0000
  C   C433      1.0  0.33830  0.70329  0.25343  1.0000
  H   H521      1.0  0.31819  0.73866  0.26903  1.0000
  H   H522      1.0  0.33735  0.68203  0.26209  1.0000
  C   C434      1.0  0.39853  0.74906  0.33736  1.0000
  C   C435      1.0  0.39183  0.75892  0.32228  1.0000
  C   C436      1.0  0.36662  0.78317  0.31918  1.0000
  C   C437      1.0  0.34837  0.79831  0.33112  1.0000
  C   C438      1.0  0.35512  0.78854  0.34620  1.0000
  C   C439      1.0  0.37991  0.76383  0.34934  1.0000
  H   H523      1.0  0.40614  0.74765  0.31295  1.0000
  H   H524      1.0  0.36178  0.79055  0.30750  1.0000
  H   H525      1.0  0.34058  0.79943  0.35552  1.0000
  H   H526      1.0  0.38456  0.75626  0.36101  1.0000
  C   C440      1.0  0.10332  0.71689  0.30011  1.0000
  C   C441      1.0  0.11367  0.70061  0.31364  1.0000
  C   C442      1.0  0.14708  0.70357  0.31687  1.0000
  C   C443      1.0  0.16985  0.72370  0.30686  1.0000
  C   C444      1.0  0.15921  0.74074  0.29357  1.0000
  C   C445      1.0  0.12611  0.73695  0.29009  1.0000
  H   H527      1.0  0.09621  0.68500  0.32139  1.0000
  H   H528      1.0  0.15531  0.69022  0.32712  1.0000
  H   H529      1.0  0.17668  0.75615  0.28576  1.0000
  H   H530      1.0  0.11821  0.74953  0.27961  1.0000
  C   C446      1.0  0.05965  0.71560  0.38026  1.0000
  C   C447      1.0  0.08538  0.71352  0.38994  1.0000
  C   C448      1.0  0.09452  0.74206  0.39651  1.0000
  C   C449      1.0  0.07722  0.77265  0.39384  1.0000
  C   C450      1.0  0.05076  0.77447  0.38454  1.0000
  C   C451      1.0  0.04221  0.74614  0.37764  1.0000
  S   S141      1.0  0.17995  0.78348  0.46120  1.0000
  H   H531      1.0  0.11492  0.74027  0.40364  1.0000
  C   C452      1.0  0.44385  0.72972  0.23538  1.0000
  C   C453      1.0  0.05986  0.72306  0.44356  1.0000
  C   C454      1.0  0.18391  0.92550  0.28356  1.0000
  C   C455      1.0  0.16139  0.94610  0.27547  1.0000
  C   C456      1.0  0.15448  0.97939  0.27883  1.0000
  C   C457      1.0  0.40981  0.53133  0.42092  1.0000
  C   C458      1.0  0.19175  0.97134  0.29873  1.0000
  C   C459      1.0  0.19918  0.93823  0.29518  1.0000
  H   H532      1.0  0.14970  0.93641  0.26639  1.0000
  H   H533      1.0  0.07107  0.72330  0.43144  1.0000
  H   H534      1.0  0.20346  0.98103  0.30781  1.0000
  H   H535      1.0  0.21658  0.92257  0.30145  1.0000
  H   H536      1.0  0.05264  0.61046  0.36131  1.0000
  N   N29       1.0  0.46169  0.70627  0.22519  1.0000
  S   S142      1.0  0.02362  0.73364  0.33415  1.0000
  H   H537      1.0  0.50472  0.78344  0.38364  1.0000
  H   H538      1.0  0.05276  0.88985  0.26537  1.0000
  C   C460      1.0  0.35180  0.72601  0.22707  1.0000
  C   C461      1.0  0.30733  0.96126  0.42394  1.0000
  C   C462      1.0  0.27822  0.98145  0.42345  1.0000
  C   C463      1.0  0.24772  0.96761  0.42059  1.0000
  C   C464      1.0  0.24587  0.93342  0.41840  1.0000
  C   C465      1.0  0.27492  0.91306  0.41904  1.0000
  C   C466      1.0  0.30559  0.92704  0.42166  1.0000
  C   C467      1.0  0.40092  0.58089  0.40381  1.0000
  H   H539      1.0  0.22539  0.98354  0.42012  1.0000
  H   H540      1.0  0.27382  0.88665  0.41747  1.0000
  H   H541      1.0  0.32800  0.91128  0.42199  1.0000
  S   S143      1.0  0.49837  0.73273  0.41026  1.0000
  H   H542      1.0  0.04864  0.77519  0.27115  1.0000
  H   H543      1.0  0.37207  0.79427  0.43058  1.0000
  C   C468      1.0  0.09509  0.95872  0.31339  1.0000
  C   C469      1.0  0.04390  0.58408  0.36154  1.0000
  H   H544      1.0  0.25589  0.85437  0.23930  1.0000
  H   H545      1.0  0.45289  0.95456  0.43196  1.0000
  C   C470      1.0  0.03430  0.75561  0.46357  1.0000
  H   H546      1.0  0.46813  0.88488  0.44898  1.0000
  S   S144      1.0  0.36641  0.65840  0.23447  1.0000
  H   H547      1.0  0.41960  0.81305  0.23502  1.0000
  H   H548      1.0  0.47881  0.65450  0.22470  1.0000
  H   H549      1.0  0.13789  0.99536  0.27225  1.0000
  H   H550      1.0  0.10997  0.94253  0.30548  1.0000
  C   C471      1.0  0.08082  0.77835  0.44569  1.0000
  H   H551      1.0  0.30898  0.92559  0.26360  1.0000
  C   C472      1.0  0.13832  0.69131  0.46330  1.0000
  C   C473      1.0  0.47903  0.89331  0.43708  1.0000
  H   H552      1.0  0.31564  0.86987  0.23346  1.0000
  H   H553      1.0  0.27461  0.91662  0.45393  1.0000
  S   S145      1.0  0.49057  0.68292  0.37205  1.0000
  C   C474      1.0  0.04796  0.90807  0.30970  1.0000
  C   C475      1.0  0.38015  0.81197  0.38452  1.0000
  H   H554      1.0  0.34062  0.86866  0.34933  1.0000
  C   C476      1.0  0.25104  0.98825  0.26668  1.0000
  H   H555      1.0  0.04876  0.00311  0.28808  1.0000
  H   H556      1.0  0.02211  0.74794  0.37030  1.0000
  C   C477      1.0  0.46484  0.67131  0.23260  1.0000
  C   C478      1.0  0.42274  0.78688  0.23937  1.0000
  Fe  Fe73      1.0  0.02665  0.69723  0.31657  1.0000
  C   C479      1.0  0.42938  0.87372  0.42745  1.0000
  C   C480      1.0  0.44249  0.84214  0.42331  1.0000
  C   C481      1.0  0.39414  0.87559  0.43222  1.0000
  C   C482      1.0  0.42202  0.81390  0.42441  1.0000
  C   C483      1.0  0.37380  0.84719  0.43321  1.0000
  C   C484      1.0  0.38779  0.81634  0.42953  1.0000
  C   C485      1.0  0.17851  0.89805  0.45810  1.0000
  C   C486      1.0  0.28124  0.85452  0.36549  1.0000
  S   S146      1.0  0.34604  0.97775  0.42765  1.0000
  H   H557      1.0  0.31272  0.87777  0.25276  1.0000
  H   H558      1.0  0.38171  0.89866  0.43534  1.0000
  H   H559      1.0  0.35042  0.55375  0.43586  1.0000
  N   N30       1.0  0.45218  0.90261  0.42700  1.0000
  H   H560      1.0  0.28651  0.83249  0.39718  1.0000
  H   H561      1.0  0.48557  0.93292  0.41040  1.0000
  H   H562      1.0  0.46888  0.83892  0.41933  1.0000
  H   H563      1.0  0.42304  0.92911  0.44421  1.0000
  H   H564      1.0  0.25175  0.86897  0.25785  1.0000
  C   C487      1.0  0.02752  0.77230  0.43622  1.0000
  C   C488      1.0  0.41174  0.74190  0.25959  1.0000
  H   H565      1.0  0.36941  0.67668  0.28628  1.0000
  S   S147      1.0  0.49578  0.58389  0.38345  1.0000
  C   C489      1.0  0.23819  0.95370  0.24725  1.0000
  C   C490      1.0  0.42884  0.71905  0.25041  1.0000
  H   H566      1.0  0.23819  0.88095  0.44458  1.0000
  C   C491      1.0  0.35067  0.69858  0.23835  1.0000
  C   C492      1.0  0.36289  0.79382  0.39719  1.0000
  H   H567      1.0  0.49546  0.91499  0.43779  1.0000
  H   H568      1.0  0.44887  0.91773  0.40315  1.0000
  C   C493      1.0  0.40860  0.77567  0.25407  1.0000
  H   H569      1.0  0.20838  0.99668  0.25394  1.0000
  C   C494      1.0  0.03968  0.94267  0.30607  1.0000
  N   N31       1.0  0.29370  0.69470  0.33949  1.0000
  C   C495      1.0  0.28204  0.73031  0.33866  1.0000
  C   C496      1.0  0.26362  0.67270  0.34179  1.0000
  C   C497      1.0  0.31211  0.68772  0.35322  1.0000
  C   C498      1.0  0.31485  0.68905  0.32509  1.0000
  C   C499      1.0  0.35061  0.68537  0.32416  1.0000
  C   C500      1.0  0.30000  0.68860  0.31127  1.0000
  C   C501      1.0  0.36992  0.68093  0.31030  1.0000
  C   C502      1.0  0.31946  0.68384  0.29752  1.0000
  C   C503      1.0  0.35438  0.68002  0.29701  1.0000
  H   H570      1.0  0.26624  0.73675  0.32914  1.0000
  H   H571      1.0  0.26685  0.73622  0.34942  1.0000
  H   H572      1.0  0.30379  0.74766  0.33657  1.0000
  H   H573      1.0  0.27114  0.64589  0.34086  1.0000
  H   H574      1.0  0.24528  0.67997  0.33337  1.0000
  H   H575      1.0  0.24900  0.67436  0.35316  1.0000
  H   H576      1.0  0.33257  0.70622  0.35328  1.0000
  H   H577      1.0  0.29519  0.68967  0.36399  1.0000
  H   H578      1.0  0.32343  0.66190  0.35394  1.0000
  H   H579      1.0  0.36451  0.68638  0.33390  1.0000
  H   H580      1.0  0.27324  0.69257  0.31086  1.0000
  H   H581      1.0  0.39720  0.67868  0.30991  1.0000
  H   H582      1.0  0.30725  0.68362  0.28717  1.0000
  H   H583      1.0  0.16405  0.72619  0.44589  1.0000
  H   H584      1.0  0.07161  0.89997  0.31387  1.0000
  H   H585      1.0  0.09886  0.68994  0.39209  1.0000
  H   H586      1.0  0.19306  0.79202  0.34061  1.0000
  C   C504      1.0  0.34165  0.75823  0.23107  1.0000
  H   H587      1.0  0.12300  0.79414  0.37136  1.0000
  H   H588      1.0  0.16035  0.81383  0.33099  1.0000
  S   S148      1.0  0.02776  0.65139  0.33352  1.0000
  H   H589      1.0  0.34705  0.84907  0.43698  1.0000
  H   H590      1.0  0.41515  0.94298  0.42475  1.0000
  C   C505      1.0  0.45909  0.96926  0.46761  1.0000
  C   C506      1.0  0.16766  0.78913  0.33688  1.0000
  C   C507      1.0  0.15524  0.72131  0.45787  1.0000
  H   H591      1.0  0.47869  0.67056  0.24287  1.0000
  H   H592      1.0  0.27920  0.00780  0.42520  1.0000
  H   H593      1.0  0.39986  0.73322  0.27090  1.0000
  C   C508      1.0  0.13904  0.80333  0.36077  1.0000
  H   H594      1.0  0.17045  0.77082  0.32820  1.0000
  H   H595      1.0  0.16371  0.81027  0.36421  1.0000
  H   H596      1.0  0.19816  0.76550  0.36540  1.0000
  H   H597      1.0  0.07905  0.71107  0.45067  1.0000
  H   H598      1.0  0.10052  0.76747  0.45279  1.0000
  H   H599      1.0  0.25587  0.86296  0.46172  1.0000
  H   H600      1.0  0.03722  0.79805  0.38243  1.0000
  H   H601      1.0  0.42839  0.58395  0.40016  1.0000
  N   N32       1.0  0.14241  0.77749  0.34977  1.0000
  C   C509      1.0  0.28722  0.94061  0.26079  1.0000
  H   H602      1.0  0.09286  0.78093  0.43365  1.0000
  C   C510      1.0  0.18343  0.74331  0.36501  1.0000
  H   H603      1.0  0.12741  0.82721  0.35599  1.0000
  H   H604      1.0  0.22408  0.88544  0.24438  1.0000
  C   C511      1.0  0.35717  0.56586  0.42403  1.0000
  C   C512      1.0  0.15393  0.74494  0.35730  1.0000
  H   H605      1.0  0.10086  0.80041  0.33843  1.0000
  C   C513      1.0  0.43491  0.93353  0.43218  1.0000
  C   C514      1.0  0.02910  0.87652  0.26644  1.0000
  H   H606      1.0  0.40662  0.57532  0.44198  1.0000
  C   C515      1.0  0.33057  0.88752  0.35718  1.0000
  C   C516      1.0  0.10937  0.77548  0.34362  1.0000
  C   C517      1.0  0.13683  0.71417  0.35711  1.0000
  C   C518      1.0  0.19439  0.71312  0.37252  1.0000
  H   H607      1.0  0.11425  0.71264  0.35152  1.0000
  H   H608      1.0  0.21649  0.71287  0.37868  1.0000
  H   H609      1.0  0.39431  0.79299  0.26106  1.0000
  C   C519      1.0  0.27214  0.91463  0.22360  1.0000
  C   C520      1.0  0.27908  0.96784  0.26933  1.0000
  C   C521      1.0  0.02781  0.84231  0.27188  1.0000
  H   H610      1.0  0.31541  0.90591  0.35029  1.0000
  C   C522      1.0  0.14817  0.68404  0.36455  1.0000
  C   C523      1.0  0.17671  0.68354  0.37234  1.0000
  H   H611      1.0  0.11076  0.75832  0.33441  1.0000
  H   H612      1.0  0.08927  0.76649  0.35280  1.0000
  H   H613      1.0  0.43295  0.78995  0.42138  1.0000
  H   H614      1.0  0.24451  0.00908  0.27345  1.0000
  C   C524      1.0  0.02558  0.57873  0.38858  1.0000
  H   H615      1.0  0.24571  0.92042  0.22125  1.0000
  H   H616      1.0  0.27694  0.88858  0.38966  1.0000
  H   H617      1.0  0.13412  0.66113  0.36451  1.0000
  H   H618      1.0  0.18498  0.66027  0.37835  1.0000
  N   N33       1.0  0.30995  0.87118  0.37088  1.0000
  N   N34       1.0  0.20984  0.89203  0.46567  1.0000
  C   C525      1.0  0.45303  0.53272  0.37833  1.0000
  H   H619      1.0  0.28997  0.83215  0.35953  1.0000
  H   H620      1.0  0.11175  0.98028  0.31438  1.0000
  C   C526      1.0  0.48480  0.54148  0.38189  1.0000
  H   H621      1.0  0.09090  0.94480  0.32499  1.0000
  H   H622      1.0  0.37846  0.85017  0.36620  1.0000
  C   C527      1.0  0.51353  0.99593  0.46158  1.0000
  C   C528      1.0  0.23206  0.86942  0.45653  1.0000
  H   H623      1.0  0.13383  0.67340  0.45540  1.0000
  H   H624      1.0  0.06615  0.56764  0.36358  1.0000
  C   C529      1.0  0.44302  0.00096  0.46635  1.0000
  C   C530      1.0  0.02230  0.76898  0.26958  1.0000
  C   C531      1.0  0.22546  0.92470  0.46714  1.0000
  C   C532      1.0  0.07107  0.98969  0.29246  1.0000
  C   C533      1.0  0.36376  0.83787  0.37613  1.0000
  H   H625      1.0  0.04016  0.77322  0.42430  1.0000
  H   H626      1.0  0.26199  0.84547  0.37501  1.0000
  H   H627      1.0  0.43958  0.65969  0.23597  1.0000
  H   H628      1.0  0.48395  0.89014  0.40680  1.0000
  H   H629      1.0  0.38903  0.60631  0.40225  1.0000
  H   H630      1.0  0.16694  0.87396  0.45617  1.0000
  C   C534      1.0  0.31281  0.82788  0.39350  1.0000
  H   H631      1.0  0.08161  0.97287  0.28379  1.0000
  N   N35       1.0  0.06271  0.97039  0.30759  1.0000
  H   H632      1.0  0.34669  0.59213  0.42363  1.0000
  C   C535      1.0  0.32947  0.80216  0.40184  1.0000
  H   H633      1.0  0.39698  0.61251  0.42971  1.0000
  H   H634      1.0  0.26784  0.87173  0.35735  1.0000
  H   H635      1.0  0.43652  0.59182  0.42643  1.0000
  C   C536      1.0  0.16940  0.99200  0.29058  1.0000
  H   H636      1.0  0.05097  0.83012  0.27498  1.0000
  N   N36       1.0  0.05006  0.75744  0.44753  1.0000
  N   N37       1.0  0.39433  0.56551  0.41979  1.0000
  H   H637      1.0  0.31592  0.78764  0.41157  1.0000
  H   H638      1.0  0.35200  0.90159  0.36039  1.0000
  H   H639      1.0  0.18381  0.91306  0.44676  1.0000
  C   C537      1.0  0.46822  0.91121  0.41116  1.0000
  C   C538      1.0  0.32914  0.84601  0.38018  1.0000
  C   C539      1.0  0.26728  0.93309  0.24923  1.0000
  C   C540      1.0  0.29635  0.89810  0.38030  1.0000
  H   H640      1.0  0.40618  0.80528  0.38092  1.0000
  H   H641      1.0  0.31675  0.90957  0.38562  1.0000
  C   C541      1.0  0.40928  0.58703  0.42994  1.0000
  C   C542      1.0  0.25063  0.87713  0.24552  1.0000
  H   H642      1.0  0.09011  0.00936  0.29298  1.0000
  H   H643      1.0  0.49612  0.87299  0.43296  1.0000
  H   H644      1.0  0.37530  0.77294  0.40331  1.0000
  H   H645      1.0  0.07479  0.80417  0.44896  1.0000
  H   H646      1.0  0.03720  0.58067  0.34992  1.0000
  H   H647      1.0  0.51079  0.72157  0.22961  1.0000
  H   H648      1.0  0.42914  0.69307  0.25522  1.0000
  H   H649      1.0  0.03223  0.85641  0.31080  1.0000
  C   C543      1.0  0.23069  0.98122  0.25565  1.0000
  H   H650      1.0  0.34368  0.55316  0.41592  1.0000
  H   H651      1.0  0.15884  0.91195  0.46494  1.0000
  C   C544      1.0  0.30966  0.89015  0.24112  1.0000
  H   H652      1.0  0.32913  0.90990  0.23798  1.0000
  C   C545      1.0  0.27252  0.96448  0.46213  1.0000
  C   C546      1.0  0.25875  0.93328  0.46056  1.0000
  H   H653      1.0  0.03080  0.79194  0.29613  1.0000
  H   H654      1.0  0.03766  0.70615  0.44530  1.0000
  C   C547      1.0  0.16080  0.74472  0.46797  1.0000
  C   C548      1.0  0.04596  0.99355  0.31825  1.0000
  C   C549      1.0  0.51388  0.79391  0.39318  1.0000
  H   H655      1.0  0.22054  0.94837  0.23944  1.0000
  H   H656      1.0  0.29437  0.97295  0.27819  1.0000
  H   H657      1.0  0.21965  0.84504  0.45575  1.0000
  C   C550      1.0  0.49434  0.96675  0.46523  1.0000
  H   H658      1.0  0.02341  0.00655  0.31386  1.0000
  H   H659      1.0  0.04666  0.56088  0.39093  1.0000
  H   H660      1.0  0.03767  0.97978  0.32960  1.0000
  C   C551      1.0  0.44015  0.76436  0.23013  1.0000
  H   H661      1.0  0.03463  0.60448  0.38975  1.0000
  C   C552      1.0  0.44547  0.52716  0.41877  1.0000
  S   S149      1.0  0.51424  0.92708  0.46666  1.0000
  H   H662      1.0  0.41581  0.00279  0.46825  1.0000
  C   C553      1.0  0.02557  0.88265  0.30792  1.0000
  C   C554      1.0  0.49634  0.71842  0.21981  1.0000
  Fe  Fe74      1.0  0.05061  0.92587  0.70075  1.0000
  C   C555      1.0  0.42798  0.95736  0.65468  1.0000
  H   H663      1.0  0.27908  0.88196  0.65043  1.0000
  Fe  Fe75      1.0  0.06839  0.85132  0.70247  1.0000
  S   S150      1.0  0.05920  0.84783  0.67803  1.0000
  C   C556      1.0  0.11295  0.00558  0.65827  1.0000
  Fe  Fe76      1.0  0.08747  0.89680  0.67343  1.0000
  S   S151      1.0  0.12517  0.91198  0.65293  1.0000
  C   C557      1.0  0.48675  0.99581  0.61919  1.0000
  S   S152      1.0  0.09991  0.89786  0.69742  1.0000
  H   H664      1.0  0.36015  0.94002  0.65516  1.0000
  H   H665      1.0  0.18121  0.01268  0.66534  1.0000
  C   C558      1.0  0.22929  0.86340  0.64960  1.0000
  H   H666      1.0  0.20397  0.76953  0.69289  1.0000
  H   H667      1.0  0.51057  0.96112  0.66082  1.0000
  H   H668      1.0  0.37307  0.96413  0.63708  1.0000
  H   H669      1.0  0.48441  0.97792  0.61102  1.0000
  S   S153      1.0  0.07997  0.80254  0.71641  1.0000
  H   H670      1.0  0.41484  0.93835  0.61755  1.0000
  H   H671      1.0  0.14559  0.97767  0.68157  1.0000
  H   H672      1.0  0.19044  0.84841  0.48027  1.0000
  H   H673      1.0  0.11456  0.55506  0.55392  1.0000
  H   H674      1.0  0.05338  0.72871  0.49986  1.0000
  Fe  Fe77      1.0  0.08281  0.63713  0.50962  1.0000
  S   S154      1.0  0.08044  0.67048  0.52876  1.0000
  S   S155      1.0  0.10187  0.64883  0.48471  1.0000
  Fe  Fe78      1.0  0.09823  0.62378  0.54250  1.0000
  S   S156      1.0  0.13278  0.61974  0.56136  1.0000
  S   S157      1.0  0.10461  0.59220  0.52289  1.0000
  C   C559      1.0  0.25910  0.86583  0.65622  1.0000
  S   S158      1.0  0.03726  0.52314  0.53456  1.0000
  H   H675      1.0  0.22622  0.87769  0.63870  1.0000
  H   H676      1.0  0.38243  0.90770  0.61855  1.0000
  C   C560      1.0  0.13289  0.70762  0.48903  1.0000
  C   C561      1.0  0.15002  0.73762  0.48359  1.0000
  H   H677      1.0  0.47391  0.55225  0.59423  1.0000
  H   H678      1.0  0.34605  0.92897  0.63798  1.0000
  H   H679      1.0  0.12405  0.70260  0.50103  1.0000
  H   H680      1.0  0.15441  0.75557  0.49148  1.0000
  H   H681      1.0  0.18197  0.88743  0.48823  1.0000
  H   H682      1.0  0.14268  0.76799  0.67684  1.0000
  C   C562      1.0  0.48064  0.52612  0.59313  1.0000
  S   S159      1.0  0.32351  0.00159  0.61798  1.0000
  S   S160      1.0  0.04005  0.92789  0.67642  1.0000
  C   C563      1.0  0.20520  0.82649  0.67197  1.0000
  H   H683      1.0  0.28554  0.85137  0.67576  1.0000
  C   C564      1.0  0.23265  0.55999  0.55645  1.0000
  C   C565      1.0  0.21859  0.56824  0.57079  1.0000
  C   C566      1.0  0.18830  0.58721  0.57211  1.0000
  C   C567      1.0  0.17134  0.59700  0.55921  1.0000
  C   C568      1.0  0.18509  0.58807  0.54495  1.0000
  C   C569      1.0  0.21584  0.57007  0.54356  1.0000
  H   H684      1.0  0.23156  0.56092  0.58076  1.0000
  H   H685      1.0  0.17792  0.59427  0.58317  1.0000
  H   H686      1.0  0.17260  0.59597  0.53491  1.0000
  H   H687      1.0  0.22700  0.56453  0.53239  1.0000
  C   C570      1.0  0.45709  0.96835  0.66005  1.0000
  C   C571      1.0  0.16553  0.92742  0.65479  1.0000
  C   C572      1.0  0.17992  0.92216  0.66857  1.0000
  C   C573      1.0  0.21317  0.93246  0.66929  1.0000
  C   C574      1.0  0.23193  0.94888  0.65637  1.0000
  C   C575      1.0  0.21696  0.95557  0.64279  1.0000
  C   C576      1.0  0.18406  0.94444  0.64196  1.0000
  H   H688      1.0  0.16601  0.90912  0.67853  1.0000
  H   H689      1.0  0.22468  0.92704  0.67981  1.0000
  H   H690      1.0  0.23127  0.96802  0.63274  1.0000
  H   H691      1.0  0.17312  0.94860  0.63125  1.0000
  H   H692      1.0  0.45609  0.99084  0.66598  1.0000
  H   H693      1.0  0.19023  0.80516  0.70325  1.0000
  S   S161      1.0  0.41893  0.00749  0.61770  1.0000
  H   H694      1.0  0.51372  0.91084  0.64666  1.0000
  C   C577      1.0  0.36827  0.93831  0.64282  1.0000
  Fe  Fe79      1.0  0.02786  0.65009  0.53490  1.0000
  S   S162      1.0  0.04554  0.60645  0.55030  1.0000
  H   H695      1.0  0.17941  0.84476  0.65204  1.0000
  C   C578      1.0  0.23613  0.82923  0.67835  1.0000
  H   H696      1.0  0.41100  0.86381  0.64600  1.0000
  H   H697      1.0  0.09381  0.98558  0.65841  1.0000
  C   C579      1.0  0.39027  0.88244  0.64818  1.0000
  H   H698      1.0  0.12571  0.81938  0.69019  1.0000
  C   C580      1.0  0.20115  0.87371  0.48103  1.0000
  H   H699      1.0  0.14019  0.84696  0.67364  1.0000
  C   C581      1.0  0.46057  0.91196  0.64379  1.0000
  H   H700      1.0  0.12075  0.99791  0.69634  1.0000
  C   C582      1.0  0.20713  0.94925  0.47537  1.0000
  H   H701      1.0  0.12096  0.55548  0.58052  1.0000
  S   S163      1.0  0.04654  0.97546  0.71068  1.0000
  C   C583      1.0  0.20261  0.84428  0.65736  1.0000
  H   H702      1.0  0.22391  0.86966  0.48728  1.0000
  H   H703      1.0  0.43794  0.56012  0.54706  1.0000
  H   H704      1.0  0.15670  0.85056  0.69143  1.0000
  H   H705      1.0  0.06622  0.54595  0.57449  1.0000
  H   H706      1.0  0.36722  0.87244  0.64428  1.0000
  N   N38       1.0  0.17590  0.80784  0.68026  1.0000
  C   C584      1.0  0.45818  0.01440  0.62450  1.0000
  C   C585      1.0  0.48785  0.95163  0.65715  1.0000
  C   C586      1.0  0.51839  0.00009  0.62440  1.0000
  S   S164      1.0  0.02897  0.61997  0.51482  1.0000
  C   C587      1.0  0.18331  0.78839  0.69483  1.0000
  C   C588      1.0  0.14843  0.83223  0.68401  1.0000
  C   C589      1.0  0.05280  0.74210  0.47565  1.0000
  C   C590      1.0  0.16354  0.78368  0.67055  1.0000
  C   C591      1.0  0.12069  0.98964  0.68470  1.0000
  H   H707      1.0  0.13754  0.99382  0.65443  1.0000
  C   C592      1.0  0.49229  0.55930  0.54654  1.0000
  H   H708      1.0  0.16080  0.77434  0.70065  1.0000
  C   C593      1.0  0.48958  0.92343  0.64908  1.0000
  H   H709      1.0  0.49279  0.58638  0.54434  1.0000
  H   H710      1.0  0.07843  0.73320  0.47338  1.0000
  C   C594      1.0  0.12663  0.68463  0.47883  1.0000
  H   H711      1.0  0.18422  0.76637  0.66655  1.0000
  H   H712      1.0  0.24031  0.81713  0.68949  1.0000
  H   H713      1.0  0.40539  0.97236  0.65687  1.0000
  H   H714      1.0  0.15300  0.79651  0.66030  1.0000
  H   H715      1.0  0.10166  0.96941  0.68564  1.0000
  S   S165      1.0  0.27494  0.95752  0.65708  1.0000
  H   H716      1.0  0.36737  0.52292  0.61942  1.0000
  C   C595      1.0  0.26254  0.84876  0.67053  1.0000
  N   N39       1.0  0.39864  0.91635  0.64036  1.0000
  C   C596      1.0  0.40550  0.91396  0.62365  1.0000
  H   H717      1.0  0.42479  0.89443  0.62079  1.0000
  Fe  Fe80      1.0  0.29840  0.00204  0.64190  1.0000
  H   H718      1.0  0.18172  0.94459  0.48069  1.0000
  H   H719      1.0  0.46327  0.89003  0.63757  1.0000
  C   C597      1.0  0.42890  0.92884  0.64625  1.0000
  S   S166      1.0  0.27154  0.53807  0.55386  1.0000
  Fe  Fe81      1.0  0.05075  0.57795  0.52980  1.0000
  C   C598      1.0  0.22108  0.98047  0.47675  1.0000
  H   H720      1.0  0.38557  0.88324  0.66079  1.0000
  H   H721      1.0  0.41984  0.52927  0.64016  1.0000
  C   C599      1.0  0.03864  0.73954  0.49089  1.0000
  C   C600      1.0  0.11846  0.52727  0.55472  1.0000
  H   H722      1.0  0.05906  0.00920  0.67846  1.0000
  H   H723      1.0  0.20654  0.99907  0.48290  1.0000
  H   H724      1.0  0.44423  0.94671  0.47045  1.0000
  H   H725      1.0  0.26433  0.01247  0.47106  1.0000
  H   H726      1.0  0.35679  0.53503  0.63842  1.0000
  H   H727      1.0  0.15964  0.54257  0.50819  1.0000
  N   N40       1.0  0.11269  0.01817  0.67348  1.0000
  C   C601      1.0  0.12653  0.52787  0.58111  1.0000
  C   C602      1.0  0.25369  0.98809  0.47011  1.0000
  C   C603      1.0  0.46046  0.54452  0.54799  1.0000
  H   H728      1.0  0.14568  0.52234  0.55120  1.0000
  H   H729      1.0  0.15436  0.52533  0.57831  1.0000
  S   S167      1.0  0.31868  0.51968  0.59393  1.0000
  H   H730      1.0  0.21186  0.52062  0.51716  1.0000
  Fe  Fe82      1.0  0.22956  0.66745  0.77627  1.0000
  S   S168      1.0  0.26084  0.71292  0.76792  1.0000
  S   S169      1.0  0.24371  0.62378  0.76221  1.0000
  Fe  Fe83      1.0  0.18998  0.70437  0.80120  1.0000
  S   S170      1.0  0.21849  0.75226  0.79469  1.0000
  S   S171      1.0  0.15359  0.69997  0.82279  1.0000
  Fe  Fe84      1.0  0.21277  0.74298  0.77050  1.0000
  S   S172      1.0  0.20836  0.78842  0.75312  1.0000
  Fe  Fe85      1.0  0.26378  0.71825  0.79255  1.0000
  S   S173      1.0  0.31506  0.72684  0.79934  1.0000
  S   S174      1.0  0.18038  0.69718  0.77706  1.0000
  S   S175      1.0  0.23629  0.67061  0.80088  1.0000
  Fe  Fe86      1.0  0.45644  0.82650  0.83098  1.0000
  S   S176      1.0  0.43377  0.87654  0.82283  1.0000
  Fe  Fe87      1.0  0.42439  0.83128  0.86397  1.0000
  S   S177      1.0  0.39980  0.88145  0.85803  1.0000
  S   S178      1.0  0.41353  0.81011  0.88875  1.0000
  Fe  Fe88      1.0  0.38708  0.85811  0.83743  1.0000
  S   S179      1.0  0.33546  0.86040  0.82938  1.0000
  Fe  Fe89      1.0  0.44908  0.89528  0.84411  1.0000
  S   S180      1.0  0.48142  0.94117  0.84523  1.0000
  S   S181      1.0  0.40828  0.80698  0.84431  1.0000
  S   S182      1.0  0.47507  0.84623  0.85142  1.0000
  Fe  Fe90      1.0  0.27999  0.68521  0.92849  1.0000
  S   S183      1.0  0.26422  0.72702  0.94300  1.0000
  S   S184      1.0  0.30491  0.69454  0.90422  1.0000
  Fe  Fe91      1.0  0.24853  0.62966  0.95206  1.0000
  S   S185      1.0  0.23697  0.57570  0.96190  1.0000
  Fe  Fe92      1.0  0.21526  0.69909  0.94764  1.0000
  S   S186      1.0  0.16229  0.71959  0.94814  1.0000
  S   S187      1.0  0.22959  0.65968  0.93181  1.0000
  S   S188      1.0  0.30069  0.65135  0.94737  1.0000
  H   H731      1.0  0.35042  0.66205  0.80815  1.0000
  S   S189      1.0  0.14046  0.84200  0.89898  1.0000
  Fe  Fe93      1.0  0.05190  0.83076  0.86572  1.0000
  S   S190      1.0  0.06469  0.82725  0.84046  1.0000
  S   S191      1.0  0.07171  0.87728  0.87360  1.0000
  H   H732      1.0  0.03422  0.90446  0.81920  1.0000
  H   H733      1.0  0.43080  0.64168  0.77267  1.0000
  C   C604      1.0  0.36996  0.85992  0.78636  1.0000
  C   C605      1.0  0.14652  0.80908  0.91315  1.0000
  C   C606      1.0  0.17923  0.79998  0.91650  1.0000
  C   C607      1.0  0.18437  0.77269  0.92739  1.0000
  C   C608      1.0  0.15670  0.75494  0.93513  1.0000
  C   C609      1.0  0.12397  0.76445  0.93196  1.0000
  C   C610      1.0  0.11888  0.79121  0.92084  1.0000
  H   H734      1.0  0.20052  0.81408  0.91069  1.0000
  H   H735      1.0  0.20964  0.76562  0.92987  1.0000
  H   H736      1.0  0.10254  0.75102  0.93808  1.0000
  H   H737      1.0  0.09354  0.79825  0.91836  1.0000
  C   C611      1.0  0.21204  0.55012  0.95258  1.0000
  H   H738      1.0  0.36903  0.83526  0.93312  1.0000
  C   C612      1.0  0.42653  0.81964  0.95869  1.0000
  H   H739      1.0  0.41670  0.79321  0.77494  1.0000
  H   H740      1.0  0.10510  0.74795  0.73583  1.0000
  C   C613      1.0  0.21185  0.55409  0.93671  1.0000
  H   H741      1.0  0.11396  0.62036  0.93697  1.0000
  H   H742      1.0  0.46260  0.82630  0.93113  1.0000
  S   S192      1.0  0.23042  0.66750  0.96821  1.0000
  H   H743      1.0  0.22546  0.57460  0.92993  1.0000
  C   C614      1.0  0.47295  0.98468  0.84040  1.0000
  C   C615      1.0  0.50498  0.76318  0.81151  1.0000
  H   H744      1.0  0.04513  0.94714  0.81268  1.0000
  C   C616      1.0  0.44313  0.99621  0.83450  1.0000
  H   H745      1.0  0.38950  0.69586  0.81921  1.0000
  H   H746      1.0  0.07521  0.90284  0.83935  1.0000
  H   H747      1.0  0.42402  0.97837  0.83308  1.0000
  C   C617      1.0  0.49752  0.00827  0.84216  1.0000
  C   C618      1.0  0.38227  0.77892  0.89261  1.0000
  C   C619      1.0  0.37824  0.75583  0.88214  1.0000
  C   C620      1.0  0.35429  0.73014  0.88579  1.0000
  C   C621      1.0  0.33460  0.72709  0.90001  1.0000
  C   C622      1.0  0.33847  0.75029  0.91045  1.0000
  C   C623      1.0  0.36200  0.77629  0.90668  1.0000
  H   H748      1.0  0.39411  0.75723  0.87138  1.0000
  H   H749      1.0  0.35153  0.71218  0.87769  1.0000
  H   H750      1.0  0.32349  0.74819  0.92144  1.0000
  H   H751      1.0  0.36482  0.79411  0.91480  1.0000
  C   C624      1.0  0.31977  0.76323  0.80837  1.0000
  C   C625      1.0  0.35232  0.77379  0.80974  1.0000
  C   C626      1.0  0.35705  0.80381  0.81602  1.0000
  C   C627      1.0  0.32932  0.82350  0.82095  1.0000
  C   C628      1.0  0.29663  0.81295  0.81964  1.0000
  C   C629      1.0  0.29184  0.78247  0.81362  1.0000
  H   H752      1.0  0.37403  0.75921  0.80560  1.0000
  H   H753      1.0  0.38236  0.81232  0.81647  1.0000
  H   H754      1.0  0.27506  0.82801  0.82355  1.0000
  H   H755      1.0  0.26659  0.77410  0.81293  1.0000
  C   C630      1.0  0.17211  0.79235  0.74330  1.0000
  C   C631      1.0  0.15015  0.76543  0.74373  1.0000
  C   C632      1.0  0.41991  0.73583  0.92497  1.0000
  H   H756      1.0  0.15506  0.74180  0.75033  1.0000
  C   C633      1.0  0.03540  0.67268  0.92602  1.0000
  C   C634      1.0  0.12949  0.73584  0.82749  1.0000
  C   C635      1.0  0.12944  0.76527  0.81739  1.0000
  C   C636      1.0  0.10939  0.79319  0.82141  1.0000
  C   C637      1.0  0.08980  0.79204  0.83565  1.0000
  C   C638      1.0  0.09021  0.76273  0.84580  1.0000
  C   C639      1.0  0.10975  0.73467  0.84168  1.0000
  H   H757      1.0  0.14423  0.76630  0.80634  1.0000
  H   H758      1.0  0.10904  0.81568  0.81345  1.0000
  H   H759      1.0  0.07449  0.76119  0.85660  1.0000
  H   H760      1.0  0.10906  0.71172  0.84937  1.0000
  C   C640      1.0  0.26225  0.58536  0.76919  1.0000
  C   C641      1.0  0.26025  0.57434  0.78481  1.0000
  C   C642      1.0  0.19445  0.52329  0.96122  1.0000
  S   S193      1.0  0.07091  0.79486  0.88421  1.0000
  C   C643      1.0  0.06190  0.61853  0.93248  1.0000
  C   C644      1.0  0.27847  0.56476  0.75863  1.0000
  H   H761      1.0  0.24762  0.58993  0.79305  1.0000
  H   H762      1.0  0.05100  0.95984  0.88291  1.0000
  C   C645      1.0  0.42946  0.52993  0.76718  1.0000
  H   H763      1.0  0.28029  0.57320  0.74654  1.0000
  H   H764      1.0  0.03023  0.83204  0.95454  1.0000
  N   N41       1.0  0.16876  0.71258  0.88749  1.0000
  C   C646      1.0  0.15672  0.74782  0.88439  1.0000
  C   C647      1.0  0.14079  0.68953  0.88616  1.0000
  C   C648      1.0  0.17658  0.70771  0.90360  1.0000
  C   C649      1.0  0.19807  0.70603  0.87628  1.0000
  C   C650      1.0  0.23114  0.69890  0.88053  1.0000
  C   C651      1.0  0.19410  0.70686  0.86050  1.0000
  C   C652      1.0  0.25817  0.69267  0.86963  1.0000
  C   C653      1.0  0.22120  0.70020  0.84972  1.0000
  C   C654      1.0  0.25320  0.69321  0.85427  1.0000
  H   H765      1.0  0.14823  0.75302  0.87281  1.0000
  H   H766      1.0  0.13494  0.75394  0.89272  1.0000
  H   H767      1.0  0.17695  0.76598  0.88529  1.0000
  H   H768      1.0  0.13032  0.69428  0.87500  1.0000
  H   H769      1.0  0.11910  0.69250  0.89505  1.0000
  H   H770      1.0  0.14948  0.66273  0.88743  1.0000
  H   H771      1.0  0.18537  0.68148  0.90678  1.0000
  H   H772      1.0  0.19611  0.72552  0.90577  1.0000
  H   H773      1.0  0.15407  0.71248  0.91175  1.0000
  H   H774      1.0  0.23693  0.69761  0.89222  1.0000
  H   H775      1.0  0.16996  0.71266  0.85628  1.0000
  H   H776      1.0  0.28307  0.68697  0.87322  1.0000
  H   H777      1.0  0.21722  0.70046  0.83777  1.0000
  H   H778      1.0  0.27413  0.68809  0.84586  1.0000
  C   C655      1.0  0.27780  0.81366  0.77752  1.0000
  C   C656      1.0  0.29557  0.85217  0.75545  1.0000
  C   C657      1.0  0.34009  0.85421  0.78016  1.0000
  H   H779      1.0  0.51469  0.76147  0.83501  1.0000
  H   H780      1.0  0.25288  0.81169  0.77312  1.0000
  H   H781      1.0  0.27492  0.83306  0.78571  1.0000
  H   H782      1.0  0.27264  0.84813  0.74972  1.0000
  H   H783      1.0  0.28917  0.87366  0.76231  1.0000
  H   H784      1.0  0.31902  0.87110  0.78259  1.0000
  Fe  Fe94      1.0  0.02090  0.80425  0.89765  1.0000
  H   H785      1.0  0.35613  0.60316  0.76240  1.0000
  N   N42       1.0  0.27480  0.80474  0.86998  1.0000
  C   C658      1.0  0.26969  0.79092  0.88629  1.0000
  C   C659      1.0  0.30276  0.78509  0.86241  1.0000
  C   C660      1.0  0.28613  0.84014  0.86902  1.0000
  C   C661      1.0  0.24268  0.80375  0.86304  1.0000
  C   C662      1.0  0.23892  0.78503  0.85053  1.0000
  C   C663      1.0  0.21395  0.82238  0.86866  1.0000
  C   C664      1.0  0.20858  0.78582  0.84387  1.0000
  C   C665      1.0  0.18376  0.82293  0.86194  1.0000
  C   C666      1.0  0.18111  0.80477  0.84954  1.0000
  H   H786      1.0  0.25081  0.80571  0.89312  1.0000
  H   H787      1.0  0.26107  0.76435  0.88752  1.0000
  H   H788      1.0  0.29354  0.79103  0.89178  1.0000
  H   H789      1.0  0.29708  0.75775  0.86342  1.0000
  H   H790      1.0  0.32669  0.78732  0.86760  1.0000
  H   H791      1.0  0.30852  0.79452  0.85016  1.0000
  H   H792      1.0  0.26852  0.85607  0.87592  1.0000
  H   H793      1.0  0.31134  0.84185  0.87322  1.0000
  H   H794      1.0  0.28841  0.85198  0.85697  1.0000
  H   H795      1.0  0.25913  0.76980  0.84556  1.0000
  H   H796      1.0  0.21453  0.83687  0.87830  1.0000
  H   H797      1.0  0.20626  0.77160  0.83424  1.0000
  H   H798      1.0  0.16224  0.83753  0.86641  1.0000
  N   N43       1.0  0.36179  0.62879  0.78232  1.0000
  C   C667      1.0  0.35293  0.59826  0.79292  1.0000
  C   C668      1.0  0.33046  0.64880  0.78000  1.0000
  C   C669      1.0  0.37523  0.61754  0.76730  1.0000
  C   C670      1.0  0.38605  0.64896  0.78901  1.0000
  C   C671      1.0  0.42034  0.65308  0.78272  1.0000
  C   C672      1.0  0.37589  0.66441  0.80255  1.0000
  C   C673      1.0  0.44263  0.67189  0.78950  1.0000
  C   C674      1.0  0.39820  0.68365  0.80908  1.0000
  C   C675      1.0  0.43153  0.68735  0.80258  1.0000
  H   H799      1.0  0.33525  0.58194  0.78818  1.0000
  H   H800      1.0  0.37592  0.58287  0.79515  1.0000
  H   H801      1.0  0.34034  0.60461  0.80413  1.0000
  H   H802      1.0  0.31571  0.65400  0.79093  1.0000
  H   H803      1.0  0.31283  0.63549  0.77380  1.0000
  H   H804      1.0  0.33635  0.67360  0.77334  1.0000
  H   H805      1.0  0.38272  0.63936  0.75881  1.0000
  H   H806      1.0  0.39743  0.60025  0.76831  1.0000
  C   C676      1.0  0.06556  0.68872  0.92727  1.0000
  H   H807      1.0  0.31640  0.86010  0.74643  1.0000
  H   H808      1.0  0.38190  0.86274  0.94627  1.0000
  H   H809      1.0  0.46682  0.52666  0.80109  1.0000
  H   H810      1.0  0.15767  0.80531  0.84434  1.0000
  Fe  Fe95      1.0  0.08739  0.84169  0.89288  1.0000
  C   C677      1.0  0.04358  0.99936  0.83123  1.0000
  H   H811      1.0  0.37115  0.88040  0.79343  1.0000
  N   N44       1.0  0.30519  0.82130  0.76497  1.0000
  H   H812      1.0  0.28278  0.78916  0.78409  1.0000
  C   C678      1.0  0.12187  0.76897  0.73549  1.0000
  C   C679      1.0  0.38834  0.76101  0.95123  1.0000
  H   H813      1.0  0.07353  0.93719  0.85113  1.0000
  H   H814      1.0  0.46365  0.98850  0.79985  1.0000
  C   C680      1.0  0.33712  0.82664  0.77149  1.0000
  S   S194      1.0  0.48436  0.80306  0.81071  1.0000
  C   C681      1.0  0.09369  0.66989  0.93131  1.0000
  H   H815      1.0  0.18237  0.84383  0.73432  1.0000
  H   H816      1.0  0.42749  0.83897  0.92035  1.0000
  H   H817      1.0  0.06225  0.59141  0.93476  1.0000
  C   C682      1.0  0.11518  0.79952  0.72691  1.0000
  H   H818      1.0  0.06458  0.99428  0.82293  1.0000
  C   C683      1.0  0.02403  0.97277  0.83949  1.0000
  H   H819      1.0  0.29095  0.76700  0.96838  1.0000
  H   H820      1.0  0.37550  0.76958  0.96153  1.0000
  H   H821      1.0  0.48469  0.93195  0.80603  1.0000
  C   C684      1.0  0.30712  0.79303  0.75523  1.0000
  C   C685      1.0  0.03967  0.01296  0.88388  1.0000
  H   H822      1.0  0.28277  0.78984  0.75046  1.0000
  H   H823      1.0  0.43922  0.86422  0.93436  1.0000
  C   C686      1.0  0.48638  0.53333  0.75445  1.0000
  H   H824      1.0  0.11670  0.68244  0.93283  1.0000
  H   H825      1.0  0.44885  0.70206  0.80776  1.0000
  H   H826      1.0  0.43137  0.72634  0.91453  1.0000
  N   N45       1.0  0.41340  0.81837  0.94371  1.0000
  C   C687      1.0  0.27335  0.54237  0.78971  1.0000
  C   C688      1.0  0.39547  0.81066  0.77603  1.0000
  H   H827      1.0  0.08660  0.94395  0.83100  1.0000
  C   C689      1.0  0.40952  0.78283  0.94082  1.0000
  C   C690      1.0  0.43676  0.83768  0.93185  1.0000
  H   H828      1.0  0.46878  0.67423  0.78465  1.0000
  H   H829      1.0  0.40968  0.53905  0.77517  1.0000
  Fe  Fe96      1.0  0.28107  0.69146  0.96226  1.0000
  H   H830      1.0  0.36560  0.78237  0.76389  1.0000
  C   C691      1.0  0.51019  0.74661  0.79817  1.0000
  H   H831      1.0  0.44172  0.78366  0.91887  1.0000
  S   S195      1.0  0.03925  0.84873  0.90788  1.0000
  H   H832      1.0  0.50418  0.89082  0.82443  1.0000
  H   H833      1.0  0.42037  0.84205  0.78955  1.0000
  C   C692      1.0  0.42562  0.76905  0.92764  1.0000
  H   H834      1.0  0.36160  0.82435  0.95336  1.0000
  C   C693      1.0  0.46105  0.54535  0.76482  1.0000
  H   H835      1.0  0.31211  0.76853  0.76194  1.0000
  C   C694      1.0  0.38273  0.72792  0.94842  1.0000
  H   H836      1.0  0.32704  0.79719  0.74541  1.0000
  C   C695      1.0  0.29212  0.53320  0.76355  1.0000
  C   C696      1.0  0.13703  0.82653  0.72653  1.0000
  H   H837      1.0  0.43075  0.84600  0.96105  1.0000
  H   H838      1.0  0.06671  0.71601  0.92544  1.0000
  S   S196      1.0  0.46879  0.57831  0.77558  1.0000
  C   C697      1.0  0.16556  0.82285  0.73462  1.0000
  H   H839      1.0  0.04819  0.89089  0.94715  1.0000
  H   H840      1.0  0.27077  0.53351  0.80177  1.0000
  C   C698      1.0  0.02831  0.93121  0.82125  1.0000
  H   H841      1.0  0.51030  0.54581  0.75210  1.0000
  C   C699      1.0  0.38008  0.83589  0.94409  1.0000
  H   H842      1.0  0.39318  0.69005  0.93291  1.0000
  C   C700      1.0  0.09197  0.63488  0.93376  1.0000
  C   C701      1.0  0.36573  0.80472  0.76974  1.0000
  C   C702      1.0  0.39765  0.83826  0.78425  1.0000
  C   C703      1.0  0.03148  0.97852  0.88519  1.0000
  C   C704      1.0  0.39829  0.71542  0.93526  1.0000
  C   C705      1.0  0.06852  0.93008  0.83975  1.0000
  C   C706      1.0  0.03247  0.63708  0.92870  1.0000
  H   H843      1.0  0.49998  0.75756  0.78791  1.0000
  H   H844      1.0  0.19619  0.53297  0.91716  1.0000
  H   H845      1.0  0.51316  0.88268  0.80464  1.0000
  C   C707      1.0  0.51835  0.74887  0.82470  1.0000
  H   H846      1.0  0.40859  0.80895  0.96844  1.0000
  C   C708      1.0  0.50241  0.95214  0.80553  1.0000
  C   C709      1.0  0.51033  0.01253  0.80169  1.0000
  N   N46       1.0  0.03274  0.93722  0.83714  1.0000
  C   C710      1.0  0.48988  0.98470  0.80188  1.0000
  Fe  Fe97      1.0  0.02160  0.88048  0.88772  1.0000
  H   H847      1.0  0.02761  0.75468  0.72320  1.0000
  H   H848      1.0  0.36581  0.71206  0.95642  1.0000
  C   C711      1.0  0.28903  0.52151  0.77908  1.0000
  C   C712      1.0  0.02467  0.88243  0.94385  1.0000
  H   H849      1.0  0.45080  0.80536  0.95921  1.0000
  C   C713      1.0  0.19539  0.53040  0.92949  1.0000
  H   H850      1.0  0.13193  0.85027  0.72010  1.0000
  H   H851      1.0  0.54373  0.26965  0.01638  1.0000
  Fe  Fe98      1.0  0.58076  0.14894  0.01455  1.0000
  S   S197      1.0  0.59364  0.18522  0.03058  1.0000
  S   S198      1.0  0.60102  0.15492  0.98948  1.0000
  H   H852      1.0  0.66176  0.13470  0.02577  1.0000
  H   H853      1.0  0.94660  0.42681  0.16984  1.0000
  H   H854      1.0  0.61741  0.21554  0.00247  1.0000
  Fe  Fe99      1.0  0.60139  0.13925  0.04675  1.0000
  S   S199      1.0  0.64478  0.13530  0.06129  1.0000
  S   S200      1.0  0.59245  0.10275  0.03012  1.0000
  C   C714      1.0  0.74411  0.38473  0.18621  1.0000
  S   S201      1.0  0.52754  0.44980  0.21485  1.0000
  H   H855      1.0  0.68372  0.36494  0.15310  1.0000
  C   C715      1.0  0.93130  0.50895  0.17560  1.0000
  C   C716      1.0  0.01473  0.04621  0.08082  1.0000
  H   H856      1.0  0.75907  0.40674  0.18189  1.0000
  S   S202      1.0  0.75326  0.48206  0.17073  1.0000
  S   S203      1.0  0.58066  0.28909  0.20633  1.0000
  Fe  Fe100     1.0  0.53813  0.10633  0.03983  1.0000
  C   C717      1.0  0.77749  0.10273  0.03642  1.0000
  H   H857      1.0  0.00811  0.39870  0.99945  1.0000
  Fe  Fe101     1.0  0.58179  0.39486  0.17024  1.0000
  S   S204      1.0  0.58921  0.38697  0.19506  1.0000
  S   S205      1.0  0.62373  0.41388  0.15207  1.0000
  Fe  Fe102     1.0  0.56186  0.33859  0.19514  1.0000
  H   H858      1.0  0.72607  0.38173  0.16486  1.0000
  H   H859      1.0  0.71996  0.02962  0.19309  1.0000
  S   S206      1.0  0.54776  0.14018  0.05756  1.0000
  S   S207      1.0  0.55730  0.34470  0.16985  1.0000
  H   H860      1.0  0.55963  0.32078  0.97785  1.0000
  S   S208      1.0  0.53208  0.42190  0.17416  1.0000
  H   H861      1.0  0.71083  0.21192  0.02600  1.0000
  C   C718      1.0  0.94191  0.48000  0.99593  1.0000
  S   S209      1.0  0.81807  0.03237  0.09149  1.0000
  H   H862      1.0  0.65281  0.16077  0.00892  1.0000
  H   H863      1.0  0.80201  0.43634  0.19654  1.0000
  C   C719      1.0  0.71728  0.46395  0.16516  1.0000
  C   C720      1.0  0.69267  0.45026  0.17654  1.0000
  C   C721      1.0  0.66370  0.43541  0.17264  1.0000
  C   C722      1.0  0.65935  0.43346  0.15731  1.0000
  C   C723      1.0  0.68416  0.44688  0.14589  1.0000
  C   C724      1.0  0.71292  0.46239  0.14979  1.0000
  H   H864      1.0  0.69598  0.45118  0.18846  1.0000
  H   H865      1.0  0.64495  0.42528  0.18156  1.0000
  H   H866      1.0  0.68104  0.44541  0.13399  1.0000
  H   H867      1.0  0.73188  0.47271  0.14092  1.0000
  C   C725      1.0  0.68990  0.19507  0.02449  1.0000
  C   C726      1.0  0.55129  0.26694  0.97762  1.0000
  C   C727      1.0  0.52798  0.22580  0.99893  1.0000
  H   H868      1.0  0.97389  0.47883  0.12952  1.0000
  S   S210      1.0  0.91591  0.04093  0.07386  1.0000
  C   C728      1.0  0.76281  0.12919  0.04398  1.0000
  H   H869      1.0  0.64539  0.26813  0.99103  1.0000
  H   H870      1.0  0.67439  0.51721  0.17964  1.0000
  H   H871      1.0  0.77887  0.07586  0.01664  1.0000
  C   C729      1.0  0.67482  0.10208  0.06050  1.0000
  C   C730      1.0  0.69818  0.09801  0.07134  1.0000
  C   C731      1.0  0.72316  0.07247  0.07070  1.0000
  C   C732      1.0  0.72510  0.05121  0.05905  1.0000
  C   C733      1.0  0.70144  0.05497  0.04836  1.0000
  C   C734      1.0  0.67625  0.08014  0.04913  1.0000
  H   H872      1.0  0.69715  0.11484  0.08020  1.0000
  H   H873      1.0  0.74131  0.06969  0.07899  1.0000
  C   C735      1.0  0.74332  0.37201  0.20152  1.0000
  H   H874      1.0  0.65831  0.08267  0.04082  1.0000
  H   H875      1.0  0.82177  0.45542  0.16966  1.0000
  C   C736      1.0  0.87309  0.46241  0.17400  1.0000
  H   H876      1.0  0.55642  0.30350  0.00252  1.0000
  H   H877      1.0  0.62246  0.49833  0.17614  1.0000
  C   C737      1.0  0.62657  0.21814  0.99054  1.0000
  S   S211      1.0  0.52508  0.14859  0.02252  1.0000
  Fe  Fe103     1.0  0.53876  0.18232  0.03957  1.0000
  H   H878      1.0  0.95705  0.51871  0.17151  1.0000
  C   C738      1.0  0.56285  0.29936  0.97132  1.0000
  H   H879      1.0  0.79545  0.08580  0.04180  1.0000
  C   C739      1.0  0.72493  0.36991  0.17646  1.0000
  C   C740      1.0  0.98362  0.05059  0.07465  1.0000
  H   H880      1.0  0.73960  0.19557  0.00062  1.0000
  H   H881      1.0  0.71735  0.33370  0.15124  1.0000
  H   H882      1.0  0.67703  0.18582  0.03597  1.0000
  H   H883      1.0  0.73698  0.11230  0.00465  1.0000
  C   C741      1.0  0.67293  0.14573  0.01432  1.0000
  H   H884      1.0  0.67479  0.32452  0.14824  1.0000
  H   H885      1.0  0.69774  0.19887  0.99474  1.0000
  H   H886      1.0  0.67948  0.12470  0.00720  1.0000
  N   N47       1.0  0.93192  0.47217  0.18023  1.0000
  H   H887      1.0  0.64805  0.03144  0.07959  1.0000
  S   S212      1.0  0.81369  0.51059  0.13156  1.0000
  C   C742      1.0  0.57322  0.51658  0.18301  1.0000
  C   C743      1.0  0.59157  0.04448  0.06929  1.0000
  H   H888      1.0  0.97002  0.43658  0.99047  1.0000
  C   C744      1.0  0.97779  0.50313  0.13337  1.0000
  C   C745      1.0  0.72839  0.14533  0.02292  1.0000
  H   H889      1.0  0.70282  0.03844  0.03937  1.0000
  H   H890      1.0  0.67088  0.21096  0.01861  1.0000
  C   C746      1.0  0.76797  0.09709  0.02225  1.0000
  H   H891      1.0  0.65706  0.50924  0.15421  1.0000
  N   N48       1.0  0.68315  0.32563  0.17193  1.0000
  C   C747      1.0  0.64729  0.33341  0.17666  1.0000
  C   C748      1.0  0.69033  0.33771  0.15543  1.0000
  C   C749      1.0  0.68808  0.28844  0.17355  1.0000
  C   C750      1.0  0.70443  0.34150  0.18182  1.0000
  C   C751      1.0  0.97006  0.45849  0.99668  1.0000
  C   C752      1.0  0.74387  0.11806  0.01554  1.0000
  H   H892      1.0  0.93427  0.46092  0.15667  1.0000
  H   H893      1.0  0.76232  0.02899  0.16138  1.0000
  H   H894      1.0  0.71535  0.28153  0.17164  1.0000
  H   H895      1.0  0.56786  0.05743  0.06611  1.0000
  N   N49       1.0  0.53413  0.26182  0.99342  1.0000
  H   H896      1.0  0.63958  0.32429  0.18883  1.0000
  H   H897      1.0  0.90081  0.44709  0.20938  1.0000
  H   H898      1.0  0.63008  0.32165  0.16972  1.0000
  H   H899      1.0  0.97407  0.46196  0.16363  1.0000
  H   H900      1.0  0.67785  0.27655  0.18503  1.0000
  C   C753      1.0  0.83948  0.45327  0.17819  1.0000
  C   C754      1.0  0.01062  0.51236  0.13560  1.0000
  H   H901      1.0  0.76953  0.13270  0.05525  1.0000
  C   C755      1.0  0.62220  0.19216  0.98157  1.0000
  C   C756      1.0  0.71616  0.18129  0.00018  1.0000
  H   H902      1.0  0.72724  0.16927  0.04427  1.0000
  N   N50       1.0  0.70237  0.16667  0.01570  1.0000
  C   C757      1.0  0.70389  0.32954  0.19754  1.0000
  C   C758      1.0  0.73842  0.15013  0.03747  1.0000
  H   H903      1.0  0.84216  0.43182  0.21613  1.0000
  H   H904      1.0  0.64253  0.36106  0.17529  1.0000
  H   H905      1.0  0.98251  0.06528  0.06371  1.0000
  C   C759      1.0  0.94728  0.45465  0.16709  1.0000
  H   H906      1.0  0.67454  0.27619  0.16530  1.0000
  H   H907      1.0  0.88001  0.47175  0.16217  1.0000
  H   H908      1.0  0.72222  0.16179  0.99218  1.0000
  C   C760      1.0  0.89687  0.46067  0.18489  1.0000
  H   H909      1.0  0.59024  0.04280  0.08198  1.0000
  H   H910      1.0  0.75789  0.38379  0.20909  1.0000
  H   H911      1.0  0.68798  0.30890  0.20264  1.0000
  H   H912      1.0  0.74461  0.50288  0.98433  1.0000
  C   C761      1.0  0.88481  0.44909  0.20025  1.0000
  C   C762      1.0  0.94042  0.50987  0.00282  1.0000
  S   S213      1.0  0.75698  0.02013  0.05707  1.0000
  C   C763      1.0  0.55467  0.27565  0.00428  1.0000
  H   H913      1.0  0.98087  0.47391  0.18844  1.0000
  H   H914      1.0  0.95582  0.43859  0.19666  1.0000
  C   C764      1.0  0.72326  0.34446  0.20717  1.0000
  H   H915      1.0  0.55199  0.21087  0.99851  1.0000
  C   C765      1.0  0.99766  0.46634  0.00453  1.0000
  C   C766      1.0  0.64245  0.24801  0.98402  1.0000
  C   C767      1.0  0.82836  0.44245  0.19333  1.0000
  C   C768      1.0  0.99461  0.49627  0.01199  1.0000
  H   H916      1.0  0.58076  0.26509  0.00327  1.0000
  H   H917      1.0  0.01423  0.50360  0.01841  1.0000
  S   S214      1.0  0.90899  0.51041  0.13439  1.0000
  H   H918      1.0  0.92184  0.47426  0.98931  1.0000
  H   H919      1.0  0.00888  0.41524  0.02565  1.0000
  C   C769      1.0  0.01642  0.02746  0.09499  1.0000
  C   C770      1.0  0.95405  0.03587  0.08244  1.0000
  C   C771      1.0  0.85100  0.44016  0.20433  1.0000
  H   H920      1.0  0.91547  0.51565  0.16612  1.0000
  H   H921      1.0  0.61249  0.06155  0.06432  1.0000
  H   H922      1.0  0.61943  0.02932  0.04146  1.0000
  H   H923      1.0  0.94620  0.48042  0.20239  1.0000
  H   H924      1.0  0.56402  0.49163  0.18740  1.0000
  Fe  Fe104     1.0  0.53768  0.40971  0.19901  1.0000
  H   H925      1.0  0.76339  0.03989  0.18684  1.0000
  C   C772      1.0  0.95452  0.46588  0.19254  1.0000
  H   H926      1.0  0.57395  0.03007  0.04316  1.0000
  H   H927      1.0  0.70169  0.51714  0.98320  1.0000
  H   H928      1.0  0.61151  0.34435  0.21843  1.0000
  C   C773      1.0  0.61233  0.29041  0.21865  1.0000
  H   H929      1.0  0.54857  0.21497  0.97161  1.0000
  H   H930      1.0  0.75657  0.45849  0.97034  1.0000
  H   H931      1.0  0.71774  0.02155  0.16487  1.0000
  H   H932      1.0  0.72231  0.33481  0.21916  1.0000
  Fe  Fe105     1.0  0.78575  0.51862  0.15432  1.0000
  C   C774      1.0  0.96654  0.51782  0.01097  1.0000
  Fe  Fe106     1.0  0.95515  0.40560  0.33287  1.0000
  S   S215      1.0  0.98094  0.35808  0.34242  1.0000
  H   H933      1.0  0.61861  0.23641  0.22174  1.0000
  Fe  Fe107     1.0  0.89159  0.36676  0.32919  1.0000
  S   S216      1.0  0.91232  0.31738  0.33868  1.0000
  S   S217      1.0  0.83831  0.36659  0.32293  1.0000
  Fe  Fe108     1.0  0.93057  0.34708  0.35615  1.0000
  S   S218      1.0  0.91806  0.33348  0.38158  1.0000
  Fe  Fe109     1.0  0.96017  0.33263  0.32388  1.0000
  S   S219      1.0  0.90628  0.39581  0.34777  1.0000
  S   S220      1.0  0.93804  0.38091  0.31335  1.0000
  Fe  Fe110     1.0  0.68232  0.21324  0.29691  1.0000
  S   S221      1.0  0.71273  0.25971  0.28983  1.0000
  S   S222      1.0  0.64188  0.20980  0.31714  1.0000
  Fe  Fe111     1.0  0.72116  0.17360  0.27260  1.0000
  S   S223      1.0  0.75432  0.21753  0.26354  1.0000
  S   S224      1.0  0.72928  0.12679  0.26008  1.0000
  Fe  Fe112     1.0  0.75729  0.22440  0.28813  1.0000
  S   S225      1.0  0.80819  0.23089  0.29624  1.0000
  Fe  Fe113     1.0  0.70689  0.24878  0.26588  1.0000
  S   S226      1.0  0.69685  0.29389  0.24936  1.0000
  S   S227      1.0  0.72757  0.17815  0.29715  1.0000
  S   S228      1.0  0.67290  0.20464  0.27302  1.0000
  H   H934      1.0  0.98464  0.20223  0.31515  1.0000
  H   H935      1.0  0.55886  0.27744  0.24704  1.0000
  Fe  Fe114     1.0  0.55512  0.34999  0.39478  1.0000
  S   S229      1.0  0.59725  0.35326  0.40945  1.0000
  Fe  Fe115     1.0  0.80141  0.19502  0.41666  1.0000
  S   S230      1.0  0.77482  0.24501  0.41751  1.0000
  S   S231      1.0  0.85008  0.19158  0.40117  1.0000
  Fe  Fe116     1.0  0.74294  0.15692  0.43589  1.0000
  S   S232      1.0  0.72248  0.10708  0.44750  1.0000
  Fe  Fe117     1.0  0.72968  0.21702  0.41324  1.0000
  S   S233      1.0  0.70007  0.23660  0.39405  1.0000
  S   S234      1.0  0.75680  0.16793  0.41070  1.0000
  S   S235      1.0  0.79067  0.17920  0.44189  1.0000
  C   C775      1.0  0.62913  0.32412  0.40459  1.0000
  C   C776      1.0  0.65003  0.31061  0.41550  1.0000
  C   C777      1.0  0.67252  0.28400  0.41225  1.0000
  C   C778      1.0  0.67423  0.27128  0.39805  1.0000
  C   C779      1.0  0.65451  0.28588  0.38693  1.0000
  C   C780      1.0  0.63215  0.31240  0.39017  1.0000
  H   H936      1.0  0.64806  0.32001  0.42660  1.0000
  H   H937      1.0  0.68810  0.27306  0.42082  1.0000
  H   H938      1.0  0.65604  0.27641  0.37586  1.0000
  H   H939      1.0  0.61709  0.32369  0.38150  1.0000
  C   C781      1.0  0.66409  0.29171  0.23778  1.0000
  C   C782      1.0  0.64911  0.32174  0.23197  1.0000
  C   C783      1.0  0.65279  0.26088  0.23425  1.0000
  H   H940      1.0  0.65746  0.34565  0.23482  1.0000
  H   H941      1.0  0.66430  0.23758  0.23869  1.0000
  C   C784      1.0  0.62103  0.24578  0.32393  1.0000
  C   C785      1.0  0.59608  0.24159  0.33646  1.0000
  C   C786      1.0  0.57762  0.26947  0.34163  1.0000
  C   C787      1.0  0.58353  0.30170  0.33407  1.0000
  C   C788      1.0  0.60897  0.30600  0.32173  1.0000
  C   C789      1.0  0.62813  0.27823  0.31688  1.0000
  H   H942      1.0  0.59056  0.21658  0.34204  1.0000
  C   C790      1.0  0.56162  0.17945  0.44109  1.0000
  H   H943      1.0  0.61396  0.33092  0.31596  1.0000
  H   H944      1.0  0.64808  0.28195  0.30759  1.0000
  C   C791      1.0  0.83030  0.33057  0.31408  1.0000
  C   C792      1.0  0.79719  0.32335  0.31165  1.0000
  C   C793      1.0  0.79018  0.29327  0.30574  1.0000
  C   C794      1.0  0.81627  0.27028  0.30227  1.0000
  C   C795      1.0  0.84938  0.27787  0.30441  1.0000
  C   C796      1.0  0.85644  0.30799  0.31018  1.0000
  H   H945      1.0  0.77690  0.34092  0.31449  1.0000
  H   H946      1.0  0.76461  0.28786  0.30404  1.0000
  H   H947      1.0  0.86974  0.26072  0.30138  1.0000
  H   H948      1.0  0.88223  0.31392  0.31141  1.0000
  C   C797      1.0  0.97183  0.49628  0.33103  1.0000
  C   C798      1.0  0.86299  0.06629  0.24151  1.0000
  H   H949      1.0  0.57187  0.25585  0.29885  1.0000
  C   C799      1.0  0.77172  0.03317  0.26360  1.0000
  H   H950      1.0  0.91877  0.48549  0.33466  1.0000
  C   C800      1.0  0.01965  0.24944  0.29301  1.0000
  C   C801      1.0  0.87006  0.23053  0.39603  1.0000
  C   C802      1.0  0.89245  0.23533  0.38261  1.0000
  C   C803      1.0  0.90717  0.26694  0.37799  1.0000
  C   C804      1.0  0.90003  0.29361  0.38696  1.0000
  C   C805      1.0  0.87793  0.28860  0.40043  1.0000
  C   C806      1.0  0.86305  0.25720  0.40497  1.0000
  H   H951      1.0  0.89846  0.21461  0.37579  1.0000
  H   H952      1.0  0.92458  0.27046  0.36769  1.0000
  H   H953      1.0  0.87188  0.30906  0.40731  1.0000
  H   H954      1.0  0.84651  0.25353  0.41553  1.0000
  C   C807      1.0  0.56772  0.11422  0.40732  1.0000
  H   H955      1.0  0.92635  0.08880  0.24020  1.0000
  C   C808      1.0  0.75626  0.06343  0.25810  1.0000
  C   C809      1.0  0.74764  0.08886  0.26773  1.0000
  C   C810      1.0  0.75460  0.08379  0.28296  1.0000
  C   C811      1.0  0.76963  0.05330  0.28853  1.0000
  H   H956      1.0  0.75095  0.06720  0.24631  1.0000
  H   H957      1.0  0.74808  0.10319  0.29047  1.0000
  H   H958      1.0  0.79866  0.15273  0.26907  1.0000
  S   S236      1.0  0.54664  0.38468  0.37397  1.0000
  H   H959      1.0  0.70288  0.34508  0.39655  1.0000
  C   C812      1.0  0.87072  0.10725  0.25923  1.0000
  H   H960      1.0  0.63352  0.29368  0.26688  1.0000
  C   C813      1.0  0.67542  0.05854  0.44726  1.0000
  C   C814      1.0  0.69282  0.08569  0.43879  1.0000
  C   C815      1.0  0.68646  0.09487  0.42366  1.0000
  C   C816      1.0  0.66316  0.07664  0.41702  1.0000
  C   C817      1.0  0.56239  0.27676  0.29096  1.0000
  H   H961      1.0  0.69974  0.11575  0.41703  1.0000
  H   H962      1.0  0.65854  0.08365  0.40528  1.0000
  H   H963      1.0  0.58416  0.19593  0.39394  1.0000
  S   S237      1.0  0.71180  0.20422  0.43802  1.0000
  S   S238      1.0  0.54911  0.30282  0.38378  1.0000
  H   H964      1.0  0.53798  0.32379  0.23078  1.0000
  N   N51       1.0  0.88950  0.37284  0.42803  1.0000
  C   C818      1.0  0.91050  0.39402  0.41592  1.0000
  C   C819      1.0  0.88546  0.39095  0.44197  1.0000
  C   C820      1.0  0.90855  0.34100  0.43138  1.0000
  C   C821      1.0  0.85583  0.36523  0.42370  1.0000
  C   C822      1.0  0.83216  0.34675  0.43436  1.0000
  C   C823      1.0  0.84548  0.37552  0.40900  1.0000
  C   C824      1.0  0.80030  0.33901  0.43064  1.0000
  C   C825      1.0  0.81326  0.36810  0.40547  1.0000
  C   C826      1.0  0.79079  0.34980  0.41625  1.0000
  H   H965      1.0  0.00684  0.25668  0.28298  1.0000
  H   H966      1.0  0.52639  0.27356  0.43701  1.0000
  C   C827      1.0  0.62945  0.16534  0.43199  1.0000
  H   H967      1.0  0.95089  0.23948  0.29666  1.0000
  C   C828      1.0  0.53473  0.24667  0.43879  1.0000
  H   H968      1.0  0.60030  0.24663  0.25884  1.0000
  H   H969      1.0  0.91323  0.32696  0.42111  1.0000
  H   H970      1.0  0.93354  0.34568  0.43520  1.0000
  H   H971      1.0  0.89499  0.32397  0.44066  1.0000
  C   C829      1.0  0.56710  0.34087  0.26957  1.0000
  H   H972      1.0  0.86190  0.38902  0.39997  1.0000
  C   C830      1.0  0.88339  0.16472  0.26430  1.0000
  C   C831      1.0  0.59099  0.26289  0.44151  1.0000
  N   N52       1.0  0.88091  0.07351  0.25464  1.0000
  C   C832      1.0  0.84904  0.17198  0.26732  1.0000
  C   C833      1.0  0.53170  0.05429  0.41899  1.0000
  N   N53       1.0  0.58297  0.27993  0.27585  1.0000
  H   H973      1.0  0.54992  0.40685  0.32237  1.0000
  C   C834      1.0  0.72258  0.35144  0.38730  1.0000
  H   H974      1.0  0.55781  0.12608  0.44812  1.0000
  S   S239      1.0  0.99558  0.05975  0.29005  1.0000
  C   C835      1.0  0.54456  0.36120  0.24592  1.0000
  H   H975      1.0  0.92124  0.12889  0.25825  1.0000
  H   H976      1.0  0.91774  0.08053  0.29906  1.0000
  H   H977      1.0  0.53552  0.27170  0.28978  1.0000
  H   H978      1.0  0.87794  0.02173  0.26444  1.0000
  C   C836      1.0  0.64653  0.04886  0.42539  1.0000
  C   C837      1.0  0.93755  0.50495  0.33348  1.0000
  C   C838      1.0  0.79714  0.27713  0.46546  1.0000
  N   N54       1.0  0.57082  0.24214  0.43298  1.0000
  C   C839      1.0  0.87171  0.04760  0.26761  1.0000
  H   H979      1.0  0.87389  0.37500  0.45221  1.0000
  H   H980      1.0  0.80566  0.37661  0.39430  1.0000
  H   H981      1.0  0.55608  0.41220  0.34166  1.0000
  C   C840      1.0  0.60815  0.13942  0.43859  1.0000
  H   H982      1.0  0.67944  0.05202  0.45908  1.0000
  S   S240      1.0  0.98609  0.45378  0.33042  1.0000
  H   H983      1.0  0.63476  0.21756  0.42476  1.0000
  C   C841      1.0  0.82826  0.26625  0.45859  1.0000
  H   H984      1.0  0.88239  0.27076  0.45699  1.0000
  C   C842      1.0  0.83606  0.11533  0.26275  1.0000
  H   H985      1.0  0.59429  0.22643  0.27788  1.0000
  H   H986      1.0  0.74711  0.30415  0.39079  1.0000
  H   H987      1.0  0.52994  0.23860  0.45125  1.0000
  H   H988      1.0  0.54908  0.04618  0.40926  1.0000
  S   S241      1.0  0.98086  0.29863  0.30575  1.0000
  Fe  Fe118     1.0  0.53579  0.33741  0.36372  1.0000
  H   H989      1.0  0.91018  0.39881  0.44510  1.0000
  C   C843      1.0  0.61809  0.28801  0.27805  1.0000
  C   C844      1.0  0.61708  0.19841  0.42993  1.0000
  C   C845      1.0  0.54767  0.42545  0.33099  1.0000
  H   H990      1.0  0.87223  0.04242  0.23688  1.0000
  C   C846      1.0  0.85801  0.14197  0.30346  1.0000
  C   C847      1.0  0.58383  0.24645  0.26988  1.0000
  H   H991      1.0  0.91617  0.38097  0.40536  1.0000
  H   H992      1.0  0.96959  0.16106  0.32184  1.0000
  N   N55       1.0  0.80176  0.31174  0.36746  1.0000
  C   C848      1.0  0.80308  0.28148  0.37871  1.0000
  C   C849      1.0  0.79650  0.30028  0.35254  1.0000
  C   C850      1.0  0.83522  0.32808  0.36600  1.0000
  C   C851      1.0  0.77446  0.33595  0.37172  1.0000
  C   C852      1.0  0.74840  0.32816  0.38385  1.0000
  C   C853      1.0  0.77237  0.36792  0.36310  1.0000
  H   H993      1.0  0.56617  0.44569  0.32701  1.0000
  C   C854      1.0  0.74641  0.39094  0.36666  1.0000
  C   C855      1.0  0.72158  0.38273  0.37876  1.0000
  H   H994      1.0  0.82468  0.26447  0.37550  1.0000
  H   H995      1.0  0.80644  0.28867  0.39025  1.0000
  H   H996      1.0  0.77257  0.28616  0.35332  1.0000
  H   H997      1.0  0.81774  0.28397  0.34827  1.0000
  H   H998      1.0  0.79490  0.32182  0.34362  1.0000
  H   H999      1.0  0.85622  0.30984  0.36364  1.0000
  H   H1000     1.0  0.83854  0.34835  0.35636  1.0000
  C   C856      1.0  0.53448  0.17528  0.39991  1.0000
  H   H1001     1.0  0.79044  0.37516  0.35329  1.0000
  H   H1002     1.0  0.74532  0.41511  0.35984  1.0000
  H   H1003     1.0  0.63072  0.26666  0.28443  1.0000
  C   C857      1.0  0.82544  0.14721  0.26666  1.0000
  H   H1004     1.0  0.65584  0.15981  0.42859  1.0000
  C   C858      1.0  0.95735  0.50341  0.36895  1.0000
  C   C859      1.0  0.56903  0.30728  0.26557  1.0000
  C   C860      1.0  0.89429  0.13282  0.26038  1.0000
  C   C861      1.0  0.58286  0.20663  0.43463  1.0000
  H   H1005     1.0  0.84425  0.04785  0.27150  1.0000
  Fe  Fe119     1.0  0.76039  0.22740  0.44222  1.0000
  H   H1006     1.0  0.55810  0.23833  0.26822  1.0000
  H   H1007     1.0  0.58885  0.25354  0.45388  1.0000
  H   H1008     1.0  0.58274  0.28989  0.44043  1.0000
  H   H1009     1.0  0.84063  0.19676  0.27028  1.0000
  H   H1010     1.0  0.55799  0.26586  0.35111  1.0000
  C   C862      1.0  0.65245  0.04015  0.44058  1.0000
  H   H1011     1.0  0.83111  0.14648  0.30306  1.0000
  H   H1012     1.0  0.88523  0.05146  0.27761  1.0000
  H   H1013     1.0  0.93161  0.49930  0.36677  1.0000
  H   H1014     1.0  0.89644  0.22320  0.31972  1.0000
  H   H1015     1.0  0.61949  0.31025  0.28449  1.0000
  H   H1016     1.0  0.70122  0.40044  0.38142  1.0000
  H   H1017     1.0  0.90163  0.18404  0.26498  1.0000
  H   H1018     1.0  0.85586  0.09017  0.29908  1.0000
  H   H1019     1.0  0.56708  0.28268  0.41510  1.0000
  H   H1020     1.0  0.56292  0.29985  0.29694  1.0000
  H   H1021     1.0  0.77462  0.04940  0.30036  1.0000
  C   C863      1.0  0.90668  0.10500  0.30109  1.0000
  H   H1022     1.0  0.61358  0.14202  0.40065  1.0000
  C   C864      1.0  0.54571  0.32849  0.24174  1.0000
  H   H1023     1.0  0.89789  0.41864  0.41294  1.0000
  C   C865      1.0  0.98015  0.47642  0.36944  1.0000
  H   H1024     1.0  0.55884  0.24180  0.40989  1.0000
  H   H1025     1.0  0.83959  0.33892  0.37667  1.0000
  H   H1026     1.0  0.83536  0.06306  0.24469  1.0000
  H   H1027     1.0  0.78002  0.26590  0.37953  1.0000
  C   C866      1.0  0.56965  0.17365  0.39823  1.0000
  H   H1028     1.0  0.60135  0.25422  0.41133  1.0000
  C   C867      1.0  0.01352  0.48169  0.37173  1.0000
  H   H1029     1.0  0.82908  0.24804  0.45032  1.0000
  C   C868      1.0  0.01270  0.26708  0.30596  1.0000
  H   H1030     1.0  0.83812  0.33806  0.44571  1.0000
  H   H1031     1.0  0.61798  0.11386  0.44026  1.0000
  C   C869      1.0  0.85839  0.27929  0.46232  1.0000
  N   N56       1.0  0.93530  0.19185  0.30885  1.0000
  C   C870      1.0  0.97004  0.18106  0.31205  1.0000
  C   C871      1.0  0.93783  0.21611  0.29491  1.0000
  C   C872      1.0  0.92023  0.20958  0.32200  1.0000
  C   C873      1.0  0.91392  0.16346  0.30644  1.0000
  C   C874      1.0  0.87860  0.16824  0.30594  1.0000
  C   C875      1.0  0.92750  0.13108  0.30363  1.0000
  H   H1032     1.0  0.93288  0.07258  0.25960  1.0000
  H   H1033     1.0  0.81679  0.09705  0.26240  1.0000
  C   C876      1.0  0.62323  0.32108  0.22252  1.0000
  H   H1034     1.0  0.98516  0.17181  0.30193  1.0000
  H   H1035     1.0  0.57538  0.34695  0.28017  1.0000
  H   H1036     1.0  0.92433  0.04464  0.24616  1.0000
  H   H1037     1.0  0.95202  0.20507  0.28502  1.0000
  C   C877      1.0  0.62702  0.26027  0.22464  1.0000
  H   H1038     1.0  0.91261  0.22424  0.29152  1.0000
  H   H1039     1.0  0.91517  0.19167  0.33249  1.0000
  C   C878      1.0  0.57483  0.25560  0.41663  1.0000
  S   S242      1.0  0.55805  0.33658  0.33905  1.0000
  H   H1040     1.0  0.86658  0.19254  0.30713  1.0000
  H   H1041     1.0  0.95420  0.12518  0.30327  1.0000
  C   C879      1.0  0.77818  0.02788  0.27888  1.0000
  H   H1042     1.0  0.58229  0.09152  0.40989  1.0000
  C   C880      1.0  0.55783  0.30185  0.25132  1.0000
  N   N57       1.0  0.72495  0.21558  0.34400  1.0000
  C   C881      1.0  0.71422  0.18179  0.34114  1.0000
  C   C882      1.0  0.69925  0.22929  0.35533  1.0000
  C   C883      1.0  0.72512  0.23832  0.32956  1.0000
  C   C884      1.0  0.75854  0.21216  0.34975  1.0000
  C   C885      1.0  0.78899  0.21938  0.34007  1.0000
  C   C886      1.0  0.76192  0.19867  0.36502  1.0000
  C   C887      1.0  0.82057  0.21439  0.34548  1.0000
  C   C888      1.0  0.79368  0.19374  0.37029  1.0000
  C   C889      1.0  0.82290  0.20164  0.36058  1.0000
  H   H1043     1.0  0.71253  0.16387  0.35171  1.0000
  H   H1044     1.0  0.68891  0.18277  0.33687  1.0000
  H   H1045     1.0  0.73235  0.17076  0.33244  1.0000
  H   H1046     1.0  0.69235  0.21096  0.36547  1.0000
  H   H1047     1.0  0.67490  0.23559  0.35050  1.0000
  H   H1048     1.0  0.70828  0.25255  0.35941  1.0000
  H   H1049     1.0  0.73989  0.22750  0.31977  1.0000
  H   H1050     1.0  0.69926  0.24267  0.32603  1.0000
  H   H1051     1.0  0.73548  0.26341  0.33076  1.0000
  H   H1052     1.0  0.78910  0.22871  0.32821  1.0000
  H   H1053     1.0  0.74020  0.19127  0.37300  1.0000
  H   H1054     1.0  0.84330  0.22039  0.33786  1.0000
  H   H1055     1.0  0.79585  0.18333  0.38195  1.0000
  H   H1056     1.0  0.84733  0.19753  0.36483  1.0000
  C   C890      1.0  0.53178  0.11495  0.40913  1.0000
  C   C891      1.0  0.87197  0.11036  0.30110  1.0000
  H   H1057     1.0  0.61824  0.26270  0.43724  1.0000
  H   H1058     1.0  0.86652  0.08696  0.23202  1.0000
  H   H1059     1.0  0.76588  0.34399  0.41354  1.0000
  H   H1060     1.0  0.55442  0.39292  0.26298  1.0000
  C   C892      1.0  0.58619  0.14323  0.40194  1.0000
  H   H1061     1.0  0.86924  0.41389  0.44037  1.0000
  C   C893      1.0  0.91771  0.06997  0.24996  1.0000
  H   H1062     1.0  0.93724  0.22953  0.32463  1.0000
  H   H1063     1.0  0.53578  0.38185  0.23827  1.0000
  H   H1064     1.0  0.78282  0.32461  0.43902  1.0000
  H   H1065     1.0  0.52890  0.48492  0.34116  1.0000
  S   S243      1.0  0.75878  0.26281  0.46053  1.0000
  C   C894      1.0  0.57428  0.14641  0.44303  1.0000
  H   H1066     1.0  0.93544  0.39958  0.41959  1.0000
  C   C895      1.0  0.98150  0.03228  0.27799  1.0000
  H   H1067     1.0  0.53519  0.18301  0.44485  1.0000
  C   C896      1.0  0.55513  0.36736  0.25984  1.0000
  H   H1068     1.0  0.54703  0.05886  0.42835  1.0000
  H   H1069     1.0  0.54064  0.49338  0.31556  1.0000
  H   H1070     1.0  0.97217  0.45155  0.36755  1.0000
  S   S244      1.0  0.61777  0.02608  0.41680  1.0000
  C   C897      1.0  0.00005  0.02721  0.26405  1.0000
  H   H1071     1.0  0.63885  0.01963  0.44726  1.0000
  H   H1072     1.0  0.52153  0.19895  0.39694  1.0000
  H   H1073     1.0  0.52484  0.51939  0.29110  1.0000
  Fe  Fe120     1.0  0.88768  0.08904  0.70019  1.0000
  S   S245      1.0  0.87786  0.11470  0.67729  1.0000
  C   C898      1.0  0.99148  0.30856  0.53699  1.0000
  H   H1074     1.0  0.68883  0.10989  0.64439  1.0000
  S   S246      1.0  0.85005  0.17944  0.69542  1.0000
  C   C899      1.0  0.99292  0.47700  0.52812  1.0000
  Fe  Fe121     1.0  0.82878  0.13117  0.68943  1.0000
  S   S247      1.0  0.77565  0.12433  0.68328  1.0000
  Fe  Fe122     1.0  0.90054  0.15995  0.68544  1.0000
  S   S248      1.0  0.93832  0.19339  0.66999  1.0000
  H   H1075     1.0  0.94473  0.21586  0.52336  1.0000
  H   H1076     1.0  0.98473  0.28546  0.49478  1.0000
  C   C900      1.0  0.63097  0.17366  0.64868  1.0000
  H   H1077     1.0  0.83712  0.24660  0.50027  1.0000
  C   C901      1.0  0.96653  0.03999  0.70787  1.0000
  C   C902      1.0  0.92225  0.22841  0.49633  1.0000
  H   H1078     1.0  0.99544  0.23122  0.65488  1.0000
  C   C903      1.0  0.62068  0.08727  0.65810  1.0000
  H   H1079     1.0  0.98144  0.30044  0.67345  1.0000
  H   H1080     1.0  0.57292  0.13367  0.65440  1.0000
  C   C904      1.0  0.00576  0.30755  0.69329  1.0000
  H   H1081     1.0  0.64377  0.22383  0.65289  1.0000
  C   C905      1.0  0.00018  0.22425  0.66661  1.0000
  H   H1082     1.0  0.93437  0.26017  0.52191  1.0000
  Fe  Fe123     1.0  0.92112  0.35530  0.52633  1.0000
  S   S249      1.0  0.93921  0.37438  0.50214  1.0000
  S   S250      1.0  0.95262  0.32745  0.54358  1.0000
  Fe  Fe124     1.0  0.84862  0.38020  0.52335  1.0000
  S   S251      1.0  0.86078  0.40033  0.49873  1.0000
  S   S252      1.0  0.79496  0.38257  0.53470  1.0000
  Fe  Fe125     1.0  0.89124  0.35279  0.49635  1.0000
  C   C906      1.0  0.87214  0.50022  0.53478  1.0000
  Fe  Fe126     1.0  0.90725  0.42005  0.50671  1.0000
  S   S253      1.0  0.92240  0.47335  0.49878  1.0000
  S   S254      1.0  0.87515  0.33047  0.52032  1.0000
  S   S255      1.0  0.89307  0.40318  0.53152  1.0000
  C   C907      1.0  0.01204  0.20734  0.69695  1.0000
  C   C908      1.0  0.95432  0.48708  0.50872  1.0000
  C   C909      1.0  0.96743  0.46569  0.52025  1.0000
  C   C910      1.0  0.98447  0.22058  0.49563  1.0000
  S   S256      1.0  0.64958  0.50764  0.57138  1.0000
  H   H1083     1.0  0.95822  0.44031  0.52301  1.0000
  H   H1084     1.0  0.70190  0.04965  0.66185  1.0000
  C   C911      1.0  0.90110  0.23578  0.70980  1.0000
  H   H1085     1.0  0.00302  0.46033  0.53701  1.0000
  H   H1086     1.0  0.63404  0.11526  0.62034  1.0000
  S   S257      1.0  0.91397  0.13255  0.70746  1.0000
  C   C912      1.0  0.82640  0.31383  0.47986  1.0000
  H   H1087     1.0  0.74502  0.37464  0.58068  1.0000
  H   H1088     1.0  0.01781  0.04231  0.71346  1.0000
  H   H1089     1.0  0.83657  0.20032  0.48389  1.0000
  H   H1090     1.0  0.82543  0.33244  0.48796  1.0000
  C   C913      1.0  0.95242  0.24092  0.51744  1.0000
  H   H1091     1.0  0.61298  0.09863  0.66893  1.0000
  C   C914      1.0  0.75727  0.45809  0.56862  1.0000
  C   C915      1.0  0.73441  0.44138  0.56127  1.0000
  C   C916      1.0  0.74635  0.41900  0.55055  1.0000
  C   C917      1.0  0.78115  0.41377  0.54684  1.0000
  C   C918      1.0  0.80404  0.43155  0.55374  1.0000
  C   C919      1.0  0.79212  0.45328  0.56474  1.0000
  H   H1092     1.0  0.70754  0.44474  0.56424  1.0000
  H   H1093     1.0  0.72851  0.40522  0.54530  1.0000
  H   H1094     1.0  0.83082  0.42745  0.55108  1.0000
  H   H1095     1.0  0.00137  0.28739  0.55952  1.0000
  H   H1096     1.0  0.00794  0.23014  0.49943  1.0000
  C   C920      1.0  0.76910  0.37575  0.58523  1.0000
  C   C921      1.0  0.92104  0.20177  0.48691  1.0000
  H   H1097     1.0  0.64624  0.07592  0.65894  1.0000
  H   H1098     1.0  0.65607  0.08290  0.63123  1.0000
  C   C922      1.0  0.76610  0.09865  0.66929  1.0000
  C   C923      1.0  0.73570  0.08080  0.67157  1.0000
  C   C924      1.0  0.72541  0.06314  0.65996  1.0000
  C   C925      1.0  0.74477  0.06444  0.64574  1.0000
  C   C926      1.0  0.77558  0.08155  0.64358  1.0000
  C   C927      1.0  0.78646  0.09822  0.65538  1.0000
  H   H1099     1.0  0.71979  0.08111  0.68229  1.0000
  C   C928      1.0  0.86020  0.20755  0.48757  1.0000
  H   H1100     1.0  0.79074  0.08267  0.63261  1.0000
  H   H1101     1.0  0.80973  0.11220  0.65344  1.0000
  C   C929      1.0  0.97648  0.20473  0.67653  1.0000
  C   C930      1.0  0.98302  0.19569  0.69161  1.0000
  H   H1102     1.0  0.96545  0.18022  0.69926  1.0000
  H   H1103     1.0  0.72676  0.15365  0.64897  1.0000
  C   C931      1.0  0.95949  0.27592  0.49330  1.0000
  H   H1104     1.0  0.93481  0.26899  0.68740  1.0000
  H   H1105     1.0  0.80994  0.46574  0.57054  1.0000
  H   H1106     1.0  0.94052  0.29391  0.49815  1.0000
  C   C932      1.0  0.64280  0.14052  0.64625  1.0000
  S   S258      1.0  0.65169  0.49170  0.60869  1.0000
  H   H1107     1.0  0.60330  0.06608  0.65762  1.0000
  C   C933      1.0  0.85747  0.30348  0.47279  1.0000
  N   N58       1.0  0.86123  0.34850  0.57574  1.0000
  C   C934      1.0  0.85609  0.33419  0.56135  1.0000
  C   C935      1.0  0.88727  0.37493  0.57186  1.0000
  C   C936      1.0  0.87452  0.32109  0.58618  1.0000
  C   C937      1.0  0.83001  0.36301  0.58335  1.0000
  C   C938      1.0  0.79778  0.36060  0.57808  1.0000
  C   C939      1.0  0.83130  0.38040  0.59647  1.0000
  H   H1108     1.0  0.95739  0.27761  0.48079  1.0000
  C   C940      1.0  0.65325  0.19873  0.65101  1.0000
  H   H1109     1.0  0.60463  0.18083  0.64893  1.0000
  H   H1110     1.0  0.84610  0.35364  0.55298  1.0000
  H   H1111     1.0  0.88014  0.32433  0.55566  1.0000
  H   H1112     1.0  0.83836  0.31270  0.56341  1.0000
  H   H1113     1.0  0.87707  0.39736  0.56519  1.0000
  H   H1114     1.0  0.91001  0.36574  0.56487  1.0000
  H   H1115     1.0  0.89668  0.38354  0.58211  1.0000
  H   H1116     1.0  0.85555  0.30087  0.58949  1.0000
  H   H1117     1.0  0.89790  0.30938  0.58071  1.0000
  H   H1118     1.0  0.88116  0.33025  0.59689  1.0000
  H   H1119     1.0  0.79405  0.34818  0.56814  1.0000
  H   H1120     1.0  0.85471  0.38263  0.60135  1.0000
  C   C941      1.0  0.00455  0.30132  0.70911  1.0000
  C   C942      1.0  0.70002  0.15941  0.64870  1.0000
  H   H1121     1.0  0.98958  0.32637  0.51333  1.0000
  C   C943      1.0  0.68765  0.19155  0.65112  1.0000
  H   H1122     1.0  0.98202  0.19385  0.50061  1.0000
  C   C944      1.0  0.89103  0.24399  0.50112  1.0000
  H   H1123     1.0  0.96058  0.06603  0.70952  1.0000
  H   H1124     1.0  0.82771  0.03702  0.66676  1.0000
  S   S259      1.0  0.73025  0.04715  0.63010  1.0000
  C   C945      1.0  0.82563  0.02670  0.67901  1.0000
  C   C946      1.0  0.89036  0.19166  0.48263  1.0000
  C   C947      1.0  0.86053  0.23354  0.49686  1.0000
  C   C948      1.0  0.80250  0.39576  0.60341  1.0000
  H   H1125     1.0  0.74940  0.40651  0.60278  1.0000
  H   H1126     1.0  0.58196  0.14290  0.63381  1.0000
  C   C949      1.0  0.63143  0.09640  0.63059  1.0000
  H   H1127     1.0  0.01642  0.20090  0.70876  1.0000
  H   H1128     1.0  0.80417  0.40976  0.61315  1.0000
  C   C950      1.0  0.00328  0.31110  0.52144  1.0000
  H   H1129     1.0  0.84490  0.03989  0.68431  1.0000
  C   C951      1.0  0.00547  0.50965  0.52444  1.0000
  H   H1130     1.0  0.91541  0.21918  0.70192  1.0000
  C   C952      1.0  0.67804  0.13437  0.64618  1.0000
  N   N59       1.0  0.95425  0.24096  0.50057  1.0000
  H   H1131     1.0  0.94344  0.18869  0.48249  1.0000
  N   N60       1.0  0.61998  0.11269  0.64464  1.0000
  H   H1132     1.0  0.88996  0.17178  0.47519  1.0000
  H   H1133     1.0  0.61328  0.07706  0.62848  1.0000
  C   C953      1.0  0.79633  0.30066  0.47620  1.0000
  C   C954      1.0  0.58426  0.12362  0.64370  1.0000
  S   S260      1.0  0.90065  0.03392  0.70156  1.0000
  H   H1134     1.0  0.70479  0.21085  0.65316  1.0000
  C   C955      1.0  0.99882  0.02655  0.71012  1.0000
  S   S261      1.0  0.74349  0.48353  0.58334  1.0000
  C   C956      1.0  0.77152  0.39369  0.59771  1.0000
  H   H1135     1.0  0.56803  0.10214  0.64210  1.0000
  S   S262      1.0  0.56627  0.46758  0.59218  1.0000
  H   H1136     1.0  0.98905  0.22163  0.48295  1.0000
  S   S263      1.0  0.83737  0.10271  0.71192  1.0000
  H   H1137     1.0  0.77229  0.30912  0.48154  1.0000
  C   C957      1.0  0.78294  0.02802  0.58450  1.0000
  Fe  Fe127     1.0  0.68921  0.50227  0.58769  1.0000
  Fe  Fe128     1.0  0.61155  0.50145  0.59242  1.0000
  H   H1138     1.0  0.97719  0.24679  0.52118  1.0000
  H   H1139     1.0  0.89012  0.26524  0.50775  1.0000
  H   H1140     1.0  0.87968  0.48381  0.55803  1.0000
  H   H1141     1.0  0.76937  0.04593  0.57669  1.0000
  C   C958      1.0  0.97998  0.29621  0.68581  1.0000
  H   H1142     1.0  0.80075  0.03441  0.68475  1.0000
  N   N61       1.0  0.92376  0.25106  0.71933  1.0000
  H   H1143     1.0  0.88702  0.25519  0.70295  1.0000
  S   S264      1.0  0.89521  0.32179  0.47624  1.0000
  C   C959      1.0  0.95324  0.27791  0.69405  1.0000
  H   H1144     1.0  0.53866  0.48747  0.55424  1.0000
  H   H1145     1.0  0.78215  0.03934  0.59552  1.0000
  C   C960      1.0  0.95156  0.27053  0.71021  1.0000
  H   H1146     1.0  0.58540  0.51005  0.54179  1.0000
  H   H1147     1.0  0.80988  0.02674  0.57964  1.0000
  C   C961      1.0  0.52178  0.02318  0.63494  1.0000
  H   H1148     1.0  0.88170  0.21977  0.71691  1.0000
  S   S265      1.0  0.56097  0.02938  0.64195  1.0000
  C   C962      1.0  0.97770  0.28346  0.71751  1.0000
  C   C963      1.0  0.88239  0.50444  0.54900  1.0000
  H   H1149     1.0  0.86179  0.47646  0.53271  1.0000
  Fe  Fe129     1.0  0.86230  0.14924  0.71704  1.0000
  C   C964      1.0  0.01016  0.28937  0.54746  1.0000
  C   C965      1.0  0.52359  0.48173  0.59230  1.0000
  H   H1150     1.0  0.75722  0.20778  0.79647  1.0000
  S   S266      1.0  0.58562  0.20420  0.79424  1.0000
  H   H1151     1.0  0.76477  0.18483  0.75536  1.0000
  C   C966      1.0  0.65400  0.25231  0.96841  1.0000
  Fe  Fe130     1.0  0.73207  0.30643  0.81053  1.0000
  S   S267      1.0  0.75881  0.34556  0.82065  1.0000
  S   S268      1.0  0.69067  0.28023  0.82618  1.0000
  Fe  Fe131     1.0  0.77570  0.31648  0.78056  1.0000
  S   S269      1.0  0.80616  0.35713  0.78817  1.0000
  S   S270      1.0  0.78124  0.30169  0.75644  1.0000
  Fe  Fe132     1.0  0.80625  0.32264  0.80996  1.0000
  S   S271      1.0  0.84783  0.31988  0.82548  1.0000
  Fe  Fe133     1.0  0.75612  0.37685  0.79830  1.0000
  S   S272      1.0  0.74566  0.43283  0.79909  1.0000
  S   S273      1.0  0.77956  0.28033  0.80167  1.0000
  S   S274      1.0  0.72548  0.33921  0.78891  1.0000
  Fe  Fe134     1.0  0.68659  0.30308  0.93541  1.0000
  S   S275      1.0  0.65802  0.34504  0.92317  1.0000
  Fe  Fe135     1.0  0.73586  0.29403  0.90796  1.0000
  S   S276      1.0  0.71165  0.33538  0.89366  1.0000
  S   S277      1.0  0.77795  0.27029  0.89359  1.0000
  Fe  Fe136     1.0  0.70930  0.36475  0.91387  1.0000
  S   S278      1.0  0.71790  0.42105  0.90906  1.0000
  Fe  Fe137     1.0  0.66272  0.31238  0.90385  1.0000
  S   S279      1.0  0.62529  0.31290  0.88642  1.0000
  S   S280      1.0  0.73790  0.32532  0.92745  1.0000
  S   S281      1.0  0.68691  0.26856  0.91679  1.0000
  Fe  Fe138     1.0  0.95187  0.17772  0.86653  1.0000
  S   S282      1.0  0.93714  0.13137  0.88241  1.0000
  S   S283      1.0  0.93254  0.18797  0.84329  1.0000
  H   H1152     1.0  0.92051  0.24274  0.91248  1.0000
  H   H1153     1.0  0.95705  0.26923  0.90854  1.0000
  H   H1154     1.0  0.56102  0.27595  0.80194  1.0000
  H   H1155     1.0  0.85229  0.20151  0.76745  1.0000
  Fe  Fe139     1.0  0.93328  0.16656  0.90082  1.0000
  S   S284      1.0  0.89001  0.17194  0.91920  1.0000
  H   H1156     1.0  0.53973  0.42806  0.80842  1.0000
  S   S285      1.0  0.94401  0.21272  0.88464  1.0000
  H   H1157     1.0  0.54819  0.28775  0.76063  1.0000
  Fe  Fe140     1.0  0.99818  0.20365  0.88848  1.0000
  C   C967      1.0  0.95451  0.47412  0.95491  1.0000
  H   H1158     1.0  0.58885  0.32947  0.95205  1.0000
  H   H1159     1.0  0.97159  0.26852  0.86176  1.0000
  H   H1160     1.0  0.93845  0.45614  0.95097  1.0000
  C   C968      1.0  0.96407  0.33997  0.94293  1.0000
  C   C969      1.0  0.80836  0.24309  0.90132  1.0000
  C   C970      1.0  0.83346  0.22988  0.89119  1.0000
  C   C971      1.0  0.85774  0.20722  0.89666  1.0000
  C   C972      1.0  0.85791  0.19852  0.91235  1.0000
  C   C973      1.0  0.83288  0.21189  0.92257  1.0000
  C   C974      1.0  0.80796  0.23413  0.91705  1.0000
  H   H1161     1.0  0.83397  0.23689  0.87902  1.0000
  H   H1162     1.0  0.87596  0.19604  0.88865  1.0000
  H   H1163     1.0  0.83273  0.20500  0.93473  1.0000
  H   H1164     1.0  0.78854  0.24424  0.92493  1.0000
  C   C975      1.0  0.75209  0.43995  0.91597  1.0000
  C   C976      1.0  0.77528  0.42066  0.92405  1.0000
  C   C977      1.0  0.80185  0.43642  0.92965  1.0000
  C   C978      1.0  0.80550  0.47157  0.92729  1.0000
  C   C979      1.0  0.78256  0.49086  0.91902  1.0000
  C   C980      1.0  0.75592  0.47508  0.91341  1.0000
  H   H1165     1.0  0.77263  0.39364  0.92611  1.0000
  C   C981      1.0  0.83629  0.20415  0.74486  1.0000
  N   N62       1.0  0.94342  0.25333  0.93236  1.0000
  H   H1166     1.0  0.73822  0.49015  0.90707  1.0000
  C   C982      1.0  0.94699  0.31351  0.93811  1.0000
  C   C983      1.0  0.57181  0.24651  0.95294  1.0000
  H   H1167     1.0  0.96741  0.27032  0.82301  1.0000
  H   H1168     1.0  0.96177  0.04645  0.89316  1.0000
  C   C984      1.0  0.80354  0.26468  0.75209  1.0000
  C   C985      1.0  0.82173  0.24602  0.76278  1.0000
  H   H1169     1.0  0.82323  0.25482  0.77383  1.0000
  C   C986      1.0  0.86775  0.28128  0.83097  1.0000
  C   C987      1.0  0.88169  0.27726  0.84493  1.0000
  C   C988      1.0  0.90058  0.24824  0.84906  1.0000
  C   C989      1.0  0.90655  0.22340  0.83905  1.0000
  C   C990      1.0  0.89238  0.22725  0.82512  1.0000
  C   C991      1.0  0.87265  0.25593  0.82116  1.0000
  H   H1170     1.0  0.87835  0.29685  0.85250  1.0000
  H   H1171     1.0  0.91109  0.24551  0.85984  1.0000
  H   H1172     1.0  0.89692  0.20810  0.81731  1.0000
  H   H1173     1.0  0.86242  0.25900  0.81026  1.0000
  C   C992      1.0  0.70589  0.45202  0.79659  1.0000
  C   C993      1.0  0.67794  0.43306  0.79468  1.0000
  C   C994      1.0  0.64606  0.44877  0.79391  1.0000
  C   C995      1.0  0.64209  0.48372  0.79450  1.0000
  C   C996      1.0  0.67023  0.50286  0.79596  1.0000
  C   C997      1.0  0.70193  0.48697  0.79716  1.0000
  H   H1174     1.0  0.68083  0.40626  0.79395  1.0000
  H   H1175     1.0  0.62442  0.43384  0.79274  1.0000
  H   H1176     1.0  0.55937  0.02973  0.80481  1.0000
  H   H1177     1.0  0.72348  0.50182  0.79860  1.0000
  C   C998      1.0  0.61594  0.22454  0.80281  1.0000
  C   C999      1.0  0.63979  0.24557  0.79392  1.0000
  C   C1000     1.0  0.66314  0.26268  0.80100  1.0000
  C   C1001     1.0  0.66222  0.25908  0.81694  1.0000
  C   C1002     1.0  0.63828  0.23821  0.82577  1.0000
  C   C1003     1.0  0.61564  0.22053  0.81871  1.0000
  H   H1178     1.0  0.64005  0.24876  0.78162  1.0000
  H   H1179     1.0  0.68156  0.27889  0.79416  1.0000
  H   H1180     1.0  0.63722  0.23543  0.83810  1.0000
  H   H1181     1.0  0.59830  0.20335  0.82565  1.0000
  C   C1004     1.0  0.57739  0.21842  0.87301  1.0000
  C   C1005     1.0  0.57482  0.24957  0.86434  1.0000
  C   C1006     1.0  0.58964  0.27823  0.86861  1.0000
  C   C1007     1.0  0.60738  0.27603  0.88152  1.0000
  C   C1008     1.0  0.61027  0.24488  0.89016  1.0000
  C   C1009     1.0  0.59533  0.21617  0.88590  1.0000
  S   S286      1.0  0.60110  0.50181  0.79460  1.0000
  H   H1182     1.0  0.58695  0.30224  0.86195  1.0000
  H   H1183     1.0  0.62328  0.24305  0.90031  1.0000
  H   H1184     1.0  0.78777  0.26745  0.72946  1.0000
  C   C1010     1.0  0.96495  0.29634  0.82543  1.0000
  H   H1185     1.0  0.53837  0.47321  0.78684  1.0000
  C   C1011     1.0  0.69639  0.48764  0.94735  1.0000
  C   C1012     1.0  0.58361  0.27843  0.94728  1.0000
  N   N63       1.0  0.71166  0.22453  0.87015  1.0000
  C   C1013     1.0  0.68767  0.20999  0.86105  1.0000
  C   C1014     1.0  0.70376  0.21052  0.88635  1.0000
  C   C1015     1.0  0.70560  0.26149  0.86943  1.0000
  C   C1016     1.0  0.74674  0.21716  0.86375  1.0000
  C   C1017     1.0  0.76890  0.19496  0.87170  1.0000
  C   C1018     1.0  0.75945  0.23169  0.84893  1.0000
  C   C1019     1.0  0.80155  0.18793  0.86515  1.0000
  C   C1020     1.0  0.79235  0.22492  0.84261  1.0000
  C   C1021     1.0  0.81331  0.20299  0.85069  1.0000
  H   H1186     1.0  0.69091  0.18216  0.86144  1.0000
  H   H1187     1.0  0.66090  0.21544  0.86535  1.0000
  H   H1188     1.0  0.69116  0.22049  0.84884  1.0000
  H   H1189     1.0  0.70509  0.18250  0.88769  1.0000
  H   H1190     1.0  0.67769  0.21737  0.89101  1.0000
  H   H1191     1.0  0.72131  0.22038  0.89375  1.0000
  H   H1192     1.0  0.70586  0.27350  0.85754  1.0000
  H   H1193     1.0  0.68042  0.26783  0.87528  1.0000
  H   H1194     1.0  0.72499  0.27383  0.87495  1.0000
  H   H1195     1.0  0.76196  0.18309  0.88311  1.0000
  H   H1196     1.0  0.74404  0.24844  0.84210  1.0000
  H   H1197     1.0  0.81825  0.17135  0.87150  1.0000
  H   H1198     1.0  0.80177  0.23684  0.83141  1.0000
  H   H1199     1.0  0.83883  0.19775  0.84583  1.0000
  N   N64       1.0  0.81248  0.35808  0.86847  1.0000
  C   C1022     1.0  0.81118  0.35293  0.88541  1.0000
  C   C1023     1.0  0.80090  0.32666  0.86325  1.0000
  C   C1024     1.0  0.84831  0.36363  0.86229  1.0000
  C   C1025     1.0  0.79137  0.38675  0.86280  1.0000
  C   C1026     1.0  0.77038  0.40625  0.87270  1.0000
  C   C1027     1.0  0.79129  0.39579  0.84684  1.0000
  C   C1028     1.0  0.75088  0.43322  0.86691  1.0000
  C   C1029     1.0  0.77164  0.42275  0.84117  1.0000
  C   C1030     1.0  0.75159  0.44152  0.85118  1.0000
  H   H1200     1.0  0.78522  0.34709  0.89088  1.0000
  H   H1201     1.0  0.82711  0.33099  0.88926  1.0000
  H   H1202     1.0  0.82020  0.37545  0.89013  1.0000
  H   H1203     1.0  0.77430  0.32128  0.86793  1.0000
  H   H1204     1.0  0.81666  0.30444  0.86692  1.0000
  H   H1205     1.0  0.80199  0.32789  0.85065  1.0000
  H   H1206     1.0  0.85701  0.38850  0.86487  1.0000
  H   H1207     1.0  0.86528  0.34383  0.86723  1.0000
  H   H1208     1.0  0.85250  0.36288  0.84970  1.0000
  H   H1209     1.0  0.76867  0.40145  0.88501  1.0000
  H   H1210     1.0  0.80655  0.38205  0.83859  1.0000
  H   H1211     1.0  0.73533  0.44786  0.87475  1.0000
  H   H1212     1.0  0.77219  0.42929  0.82891  1.0000
  H   H1213     1.0  0.91789  0.28459  0.73712  1.0000
  H   H1214     1.0  0.01165  0.31365  0.86364  1.0000
  C   C1031     1.0  0.96196  0.28089  0.93757  1.0000
  S   S287      1.0  0.85700  0.16615  0.74085  1.0000
  H   H1215     1.0  0.57579  0.22592  0.94583  1.0000
  C   C1032     1.0  0.70163  0.42676  0.94931  1.0000
  H   H1216     1.0  0.74009  0.19386  0.82368  1.0000
  C   C1033     1.0  0.69383  0.17049  0.82042  1.0000
  H   H1217     1.0  0.95261  0.36495  0.94302  1.0000
  H   H1218     1.0  0.65896  0.38819  0.87523  1.0000
  C   C1034     1.0  0.99473  0.27631  0.94249  1.0000
  S   S288      1.0  0.83942  0.48971  0.93478  1.0000
  S   S289      1.0  0.54470  0.14542  0.83033  1.0000
  C   C1035     1.0  0.95381  0.36306  0.83164  1.0000
  H   H1219     1.0  0.66715  0.44409  0.82993  1.0000
  H   H1220     1.0  0.61312  0.37689  0.84240  1.0000
  C   C1036     1.0  0.73358  0.19493  0.79979  1.0000
  H   H1221     1.0  0.70775  0.19314  0.74975  1.0000
  N   N65       1.0  0.72345  0.19590  0.77218  1.0000
  C   C1037     1.0  0.66110  0.47210  0.86481  1.0000
  N   N66       1.0  0.00909  0.28717  0.84372  1.0000
  C   C1038     1.0  0.98431  0.30918  0.83600  1.0000
  H   H1222     1.0  0.64906  0.14990  0.81379  1.0000
  C   C1039     1.0  0.66344  0.47229  0.84896  1.0000
  H   H1223     1.0  0.66817  0.45540  0.93541  1.0000
  Fe  Fe141     1.0  0.53038  0.18357  0.84710  1.0000
  H   H1224     1.0  0.66427  0.16339  0.78671  1.0000
  H   H1225     1.0  0.99112  0.35519  0.84693  1.0000
  H   H1226     1.0  0.68418  0.50965  0.94215  1.0000
  H   H1227     1.0  0.91724  0.20659  0.73560  1.0000
  S   S290      1.0  0.53209  0.22817  0.82950  1.0000
  H   H1228     1.0  0.98675  0.22462  0.92382  1.0000
  C   C1040     1.0  0.94153  0.50597  0.95788  1.0000
  S   S291      1.0  0.00728  0.17175  0.86882  1.0000
  C   C1041     1.0  0.66093  0.41115  0.86752  1.0000
  H   H1229     1.0  0.67392  0.19846  0.76441  1.0000
  H   H1230     1.0  0.63357  0.33592  0.84377  1.0000
  C   C1042     1.0  0.98126  0.02768  0.89094  1.0000
  H   H1231     1.0  0.68335  0.34578  0.86384  1.0000
  H   H1232     1.0  0.73879  0.40475  0.96325  1.0000
  C   C1043     1.0  0.00864  0.48886  0.96210  1.0000
  H   H1233     1.0  0.94861  0.20121  0.92786  1.0000
  H   H1234     1.0  0.91623  0.36475  0.81583  1.0000
  H   H1235     1.0  0.68617  0.16474  0.83253  1.0000
  S   S292      1.0  0.55829  0.18201  0.86820  1.0000
  C   C1044     1.0  0.83816  0.21587  0.75915  1.0000
  H   H1236     1.0  0.74746  0.24244  0.77531  1.0000
  H   H1237     1.0  0.65807  0.44140  0.88641  1.0000
  C   C1045     1.0  0.01464  0.03776  0.88666  1.0000
  H   H1238     1.0  0.75466  0.15134  0.77030  1.0000
  C   C1046     1.0  0.99108  0.25899  0.85319  1.0000
  H   H1239     1.0  0.91789  0.23974  0.95479  1.0000
  H   H1240     1.0  0.92634  0.30596  0.81022  1.0000
  C   C1047     1.0  0.75626  0.17921  0.76778  1.0000
  H   H1241     1.0  0.77689  0.18762  0.77389  1.0000
  C   C1048     1.0  0.01005  0.04125  0.84425  1.0000
  Fe  Fe142     1.0  0.54345  0.19011  0.81276  1.0000
  N   N67       1.0  0.53145  0.29574  0.78393  1.0000
  H   H1242     1.0  0.89806  0.22482  0.93953  1.0000
  H   H1243     1.0  0.65940  0.22911  0.94738  1.0000
  H   H1244     1.0  0.73479  0.24090  0.75677  1.0000
  H   H1245     1.0  0.73676  0.46267  0.84673  1.0000
  H   H1246     1.0  0.56533  0.32005  0.79679  1.0000
  C   C1049     1.0  0.63454  0.19606  0.96601  1.0000
  C   C1050     1.0  0.93413  0.26328  0.91672  1.0000
  C   C1051     1.0  0.72749  0.23292  0.76912  1.0000
  Fe  Fe143     1.0  0.99217  0.12742  0.88609  1.0000
  H   H1247     1.0  0.69659  0.33207  0.84580  1.0000
  C   C1052     1.0  0.66513  0.44197  0.84228  1.0000
  H   H1248     1.0  0.95113  0.23219  0.73847  1.0000
  C   C1053     1.0  0.66438  0.41035  0.85141  1.0000
  H   H1249     1.0  0.69553  0.15809  0.76335  1.0000
  S   S293      1.0  0.67251  0.29093  0.96078  1.0000
  H   H1250     1.0  0.66411  0.49609  0.84176  1.0000
  C   C1054     1.0  0.94120  0.31647  0.81808  1.0000
  H   H1251     1.0  0.96888  0.02251  0.86031  1.0000
  C   C1055     1.0  0.72656  0.42793  0.95906  1.0000
  H   H1252     1.0  0.71624  0.36818  0.85140  1.0000
  C   C1056     1.0  0.80194  0.25312  0.73775  1.0000
  C   C1057     1.0  0.93542  0.34965  0.82127  1.0000
  C   C1058     1.0  0.67303  0.16193  0.80983  1.0000
  C   C1059     1.0  0.65039  0.22611  0.95942  1.0000
  H   H1253     1.0  0.70368  0.24652  0.77260  1.0000
  C   C1060     1.0  0.69897  0.18589  0.76204  1.0000
  H   H1254     1.0  0.52714  0.41130  0.76822  1.0000
  H   H1255     1.0  0.96984  0.21125  0.94338  1.0000
  C   C1061     1.0  0.71287  0.18681  0.78866  1.0000
  H   H1256     1.0  0.56094  0.25176  0.85449  1.0000
  H   H1257     1.0  0.69463  0.40282  0.94587  1.0000
  C   C1062     1.0  0.65983  0.44158  0.87406  1.0000
  C   C1063     1.0  0.72168  0.48973  0.95735  1.0000
  C   C1064     1.0  0.96319  0.22133  0.93187  1.0000
  H   H1258     1.0  0.81629  0.21386  0.72318  1.0000
  C   C1065     1.0  0.73655  0.45887  0.96303  1.0000
  H   H1259     1.0  0.69984  0.39457  0.82475  1.0000
  H   H1260     1.0  0.59717  0.19220  0.89274  1.0000
  C   C1066     1.0  0.54689  0.29928  0.79818  1.0000
  H   H1261     1.0  0.92203  0.31887  0.93473  1.0000
  H   H1262     1.0  0.81960  0.42130  0.93595  1.0000
  C   C1067     1.0  0.57915  0.30480  0.95645  1.0000
  C   C1068     1.0  0.97798  0.34328  0.83894  1.0000
  H   H1263     1.0  0.89426  0.26819  0.94271  1.0000
  H   H1264     1.0  0.59664  0.28263  0.93583  1.0000
  H   H1265     1.0  0.00950  0.35515  0.95113  1.0000
  C   C1069     1.0  0.68218  0.16997  0.79417  1.0000
  C   C1070     1.0  0.55866  0.28912  0.77170  1.0000
  C   C1071     1.0  0.63285  0.36139  0.84793  1.0000
  H   H1266     1.0  0.62420  0.35792  0.86036  1.0000
  H   H1267     1.0  0.94915  0.38892  0.83410  1.0000
  H   H1268     1.0  0.66014  0.49565  0.86993  1.0000
  H   H1269     1.0  0.65562  0.39481  0.82182  1.0000
  H   H1270     1.0  0.67848  0.35611  0.82338  1.0000
  H   H1271     1.0  0.00853  0.25270  0.94234  1.0000
  C   C1072     1.0  0.68665  0.45652  0.94345  1.0000
  C   C1073     1.0  0.69175  0.35513  0.85177  1.0000
  C   C1074     1.0  0.01124  0.30281  0.94754  1.0000
  C   C1075     1.0  0.67551  0.38110  0.82797  1.0000
  C   C1076     1.0  0.53020  0.35815  0.77583  1.0000
  S   S294      1.0  0.98718  0.15922  0.90601  1.0000
  C   C1077     1.0  0.72406  0.18695  0.81542  1.0000
  C   C1078     1.0  0.81811  0.22284  0.73417  1.0000
  H   H1272     1.0  0.55692  0.35958  0.77674  1.0000
  S   S295      1.0  0.00232  0.42432  0.95442  1.0000
  C   C1079     1.0  0.98799  0.46543  0.95707  1.0000
  H   H1273     1.0  0.91699  0.28559  0.91613  1.0000
  H   H1274     1.0  0.57826  0.30886  0.76987  1.0000
  C   C1080     1.0  0.55606  0.24060  0.96789  1.0000
  H   H1275     1.0  0.95531  0.20693  0.72274  1.0000
  H   H1276     1.0  0.97827  0.24253  0.84629  1.0000
  H   H1277     1.0  0.63138  0.17602  0.95897  1.0000
  C   C1081     1.0  0.99615  0.33458  0.94759  1.0000
  C   C1082     1.0  0.91207  0.24632  0.94281  1.0000
  N   N68       1.0  0.66622  0.37772  0.84477  1.0000
  H   H1278     1.0  0.53921  0.48093  0.81354  1.0000
  H   H1279     1.0  0.57214  0.26481  0.77448  1.0000
  C   C1083     1.0  0.93755  0.22315  0.72944  1.0000
  H   H1280     1.0  0.91557  0.51226  0.95623  1.0000
  H   H1281     1.0  0.78555  0.50619  0.96106  1.0000
  H   H1282     1.0  0.52960  0.36777  0.81457  1.0000
  H   H1283     1.0  0.52718  0.30393  0.80771  1.0000
  H   H1284     1.0  0.52457  0.24238  0.79018  1.0000
  H   H1285     1.0  0.89218  0.29508  0.72184  1.0000
  H   H1286     1.0  0.00528  0.06726  0.84649  1.0000
  H   H1287     1.0  0.88154  0.26014  0.73593  1.0000
  H   H1288     1.0  0.00872  0.24246  0.85957  1.0000
  C   C1084     1.0  0.90301  0.27371  0.72898  1.0000
  H   H1289     1.0  0.97790  0.27946  0.72975  1.0000
  H   H1290     1.0  0.78556  0.51785  0.91678  1.0000
  C   C1085     1.0  0.01502  0.91742  0.05055  1.0000
  Fe  Fe144     1.0  0.81350  0.98196  0.10574  1.0000
  S   S296      1.0  0.86498  0.96283  0.09728  1.0000
  S   S297      1.0  0.79617  0.97092  0.13088  1.0000
  H   H1291     1.0  0.62475  0.60061  0.11319  1.0000
  Fe  Fe145     1.0  0.83828  0.94275  0.07921  1.0000
  S   S298      1.0  0.84727  0.89142  0.07123  1.0000
  S   S299      1.0  0.78665  0.95750  0.08901  1.0000
  Fe  Fe146     1.0  0.65243  0.74887  0.03784  1.0000
  S   S300      1.0  0.69960  0.77637  0.02797  1.0000
  S   S301      1.0  0.60996  0.75681  0.02282  1.0000
  Fe  Fe147     1.0  0.68299  0.72224  0.06669  1.0000
  S   S302      1.0  0.73219  0.74813  0.05929  1.0000
  S   S303      1.0  0.67514  0.69651  0.09071  1.0000
  Fe  Fe148     1.0  0.70052  0.79228  0.05137  1.0000
  S   S304      1.0  0.70648  0.84740  0.05387  1.0000
  Fe  Fe149     1.0  0.72729  0.72991  0.03644  1.0000
  S   S305      1.0  0.77563  0.71379  0.02310  1.0000
  S   S306      1.0  0.65139  0.76812  0.06076  1.0000
  S   S307      1.0  0.68013  0.70032  0.04442  1.0000
  Fe  Fe150     1.0  0.79576  0.56294  0.12405  1.0000
  S   S308      1.0  0.84165  0.58834  0.12994  1.0000
  S   S309      1.0  0.77552  0.57293  0.10114  1.0000
  Fe  Fe151     1.0  0.81152  0.58982  0.15295  1.0000
  S   S310      1.0  0.80562  0.63315  0.16740  1.0000
  H   H1292     1.0  0.82653  0.69578  0.99978  1.0000
  S   S311      1.0  0.76433  0.56887  0.14624  1.0000
  Fe  Fe152     1.0  0.60809  0.79567  0.17727  1.0000
  S   S312      1.0  0.55190  0.78829  0.18322  1.0000
  Fe  Fe153     1.0  0.65646  0.84716  0.15915  1.0000
  S   S313      1.0  0.70272  0.81761  0.16482  1.0000
  S   S314      1.0  0.65792  0.89362  0.14240  1.0000
  Fe  Fe154     1.0  0.67392  0.77298  0.16031  1.0000
  S   S315      1.0  0.69712  0.73786  0.14380  1.0000
  S   S316      1.0  0.62964  0.80312  0.15272  1.0000
  S   S317      1.0  0.63124  0.84273  0.18319  1.0000
  C   C1086     1.0  0.69796  0.95577  0.17688  1.0000
  H   H1293     1.0  0.73858  0.95580  0.20895  1.0000
  C   C1087     1.0  0.74546  0.86006  0.19880  1.0000
  C   C1088     1.0  0.55288  0.72003  0.18089  1.0000
  C   C1089     1.0  0.56063  0.61561  0.14036  1.0000
  H   H1294     1.0  0.67164  0.88978  0.02880  1.0000
  H   H1295     1.0  0.57923  0.72038  0.18277  1.0000
  C   C1090     1.0  0.72651  0.70829  0.15064  1.0000
  C   C1091     1.0  0.74760  0.69118  0.14020  1.0000
  C   C1092     1.0  0.77140  0.66749  0.14537  1.0000
  C   C1093     1.0  0.77486  0.66162  0.16097  1.0000
  C   C1094     1.0  0.75385  0.67883  0.17143  1.0000
  C   C1095     1.0  0.72922  0.70171  0.16629  1.0000
  H   H1296     1.0  0.74585  0.69648  0.12808  1.0000
  H   H1297     1.0  0.78762  0.65428  0.13724  1.0000
  H   H1298     1.0  0.75623  0.67393  0.18353  1.0000
  H   H1299     1.0  0.71237  0.71422  0.17442  1.0000
  C   C1096     1.0  0.98845  0.56561  0.14327  1.0000
  H   H1300     1.0  0.59841  0.83210  0.03668  1.0000
  H   H1301     1.0  0.59626  0.99119  0.04169  1.0000
  H   H1302     1.0  0.93437  0.57329  0.14334  1.0000
  C   C1097     1.0  0.77412  0.68808  0.00820  1.0000
  C   C1098     1.0  0.74545  0.64753  0.99574  1.0000
  C   C1099     1.0  0.74483  0.67084  0.00662  1.0000
  H   H1303     1.0  0.64950  0.81840  0.00934  1.0000
  H   H1304     1.0  0.72189  0.67490  0.01401  1.0000
  C   C1100     1.0  0.70201  0.66146  0.09384  1.0000
  C   C1101     1.0  0.71303  0.65317  0.10829  1.0000
  C   C1102     1.0  0.73564  0.62603  0.11075  1.0000
  C   C1103     1.0  0.74612  0.60626  0.09890  1.0000
  C   C1104     1.0  0.73344  0.61342  0.08476  1.0000
  C   C1105     1.0  0.71209  0.64140  0.08210  1.0000
  H   H1305     1.0  0.70478  0.66829  0.11747  1.0000
  H   H1306     1.0  0.74516  0.62066  0.12172  1.0000
  H   H1307     1.0  0.74022  0.59723  0.07585  1.0000
  H   H1308     1.0  0.70286  0.64708  0.07106  1.0000
  C   C1106     1.0  0.81003  0.87919  0.06442  1.0000
  C   C1107     1.0  0.78551  0.90336  0.06058  1.0000
  C   C1108     1.0  0.75424  0.89340  0.05683  1.0000
  C   C1109     1.0  0.74733  0.85921  0.05682  1.0000
  C   C1110     1.0  0.77237  0.83507  0.06000  1.0000
  C   C1111     1.0  0.80373  0.84506  0.06374  1.0000
  H   H1309     1.0  0.79061  0.92986  0.06045  1.0000
  H   H1310     1.0  0.73536  0.91230  0.05405  1.0000
  H   H1311     1.0  0.76749  0.80868  0.05988  1.0000
  H   H1312     1.0  0.82265  0.82623  0.06659  1.0000
  C   C1112     1.0  0.75835  0.94840  0.13367  1.0000
  C   C1113     1.0  0.75230  0.92427  0.14632  1.0000
  C   C1114     1.0  0.72178  0.90681  0.14891  1.0000
  C   C1115     1.0  0.69684  0.91408  0.13908  1.0000
  C   C1116     1.0  0.70271  0.93843  0.12652  1.0000
  C   C1117     1.0  0.73350  0.95545  0.12377  1.0000
  H   H1313     1.0  0.77116  0.91911  0.15415  1.0000
  H   H1314     1.0  0.71716  0.88864  0.15882  1.0000
  H   H1315     1.0  0.68333  0.94436  0.11897  1.0000
  H   H1316     1.0  0.73756  0.97480  0.11427  1.0000
  H   H1317     1.0  0.71012  0.94360  0.07699  1.0000
  C   C1118     1.0  0.59451  0.95098  0.01259  1.0000
  H   H1318     1.0  0.56362  0.85894  0.02069  1.0000
  H   H1319     1.0  0.82740  0.65493  0.98044  1.0000
  H   H1320     1.0  0.95688  0.99727  0.05536  1.0000
  C   C1119     1.0  0.56007  0.76996  0.04584  1.0000
  C   C1120     1.0  0.56988  0.77146  0.03012  1.0000
  H   H1321     1.0  0.75418  0.74346  0.19284  1.0000
  H   H1322     1.0  0.57710  0.75928  0.05382  1.0000
  C   C1121     1.0  0.56046  0.94360  0.01287  1.0000
  H   H1323     1.0  0.79437  0.74357  0.11798  1.0000
  C   C1122     1.0  0.76040  0.76573  0.18438  1.0000
  H   H1324     1.0  0.78339  0.95579  0.17221  1.0000
  N   N69       1.0  0.63258  0.86261  0.02035  1.0000
  C   C1123     1.0  0.99334  0.94002  0.05859  1.0000
  N   N70       1.0  0.59571  0.01065  0.06365  1.0000
  C   C1124     1.0  0.94358  0.91653  0.04893  1.0000
  C   C1125     1.0  0.66469  0.59203  0.15844  1.0000
  Fe  Fe155     1.0  0.67544  0.80921  0.18849  1.0000
  H   H1325     1.0  0.73735  0.85782  0.18770  1.0000
  H   H1326     1.0  0.61700  0.94712  0.05713  1.0000
  H   H1327     1.0  0.78039  0.89992  0.19049  1.0000
  C   C1126     1.0  0.68675  0.95667  0.07469  1.0000
  H   H1328     1.0  0.90982  0.93830  0.07237  1.0000
  C   C1127     1.0  0.77525  0.64152  0.98632  1.0000
  H   H1329     1.0  0.82373  0.83533  0.18632  1.0000
  C   C1128     1.0  0.66361  0.94197  0.06680  1.0000
  C   C1129     1.0  0.53751  0.68955  0.17917  1.0000
  C   C1130     1.0  0.81705  0.83289  0.17499  1.0000
  H   H1330     1.0  0.69158  0.59369  0.15336  1.0000
  C   C1131     1.0  0.81356  0.86082  0.14953  1.0000
  H   H1331     1.0  0.55214  0.66635  0.17964  1.0000
  H   H1332     1.0  0.84557  0.77689  0.10864  1.0000
  H   H1333     1.0  0.54161  0.00467  0.06761  1.0000
  H   H1334     1.0  0.73837  0.76883  0.11676  1.0000
  H   H1335     1.0  0.55478  0.78613  0.00769  1.0000
  H   H1336     1.0  0.65647  0.89541  0.20160  1.0000
  Fe  Fe156     1.0  0.86813  0.01117  0.08178  1.0000
  H   H1337     1.0  0.72283  0.63388  0.99474  1.0000
  H   H1338     1.0  0.75022  0.76100  0.17366  1.0000
  H   H1339     1.0  0.67389  0.55849  0.18585  1.0000
  H   H1340     1.0  0.68570  0.85151  0.02150  1.0000
  C   C1132     1.0  0.93752  0.93990  0.07290  1.0000
  H   H1341     1.0  0.60593  0.82780  0.00892  1.0000
  H   H1342     1.0  0.83999  0.83657  0.09812  1.0000
  C   C1133     1.0  0.84929  0.54225  0.03253  1.0000
  C   C1134     1.0  0.82667  0.57645  0.01181  1.0000
  S   S318      1.0  0.83106  0.53995  0.16278  1.0000
  N   N71       1.0  0.95654  0.94281  0.05741  1.0000
  N   N72       1.0  0.60422  0.70052  0.13664  1.0000
  C   C1135     1.0  0.61903  0.69906  0.15132  1.0000
  C   C1136     1.0  0.62882  0.71726  0.12449  1.0000
  C   C1137     1.0  0.57337  0.72230  0.13753  1.0000
  C   C1138     1.0  0.59606  0.66579  0.13389  1.0000
  C   C1139     1.0  0.61655  0.64716  0.12343  1.0000
  C   C1140     1.0  0.56816  0.64869  0.14249  1.0000
  C   C1141     1.0  0.72168  0.96641  0.18622  1.0000
  H   H1343     1.0  0.80351  0.75217  0.20515  1.0000
  H   H1344     1.0  0.73538  0.54682  0.98210  1.0000
  H   H1345     1.0  0.64348  0.68483  0.15077  1.0000
  H   H1346     1.0  0.62421  0.72472  0.15429  1.0000
  H   H1347     1.0  0.60204  0.68656  0.16093  1.0000
  H   H1348     1.0  0.63325  0.74387  0.12635  1.0000
  H   H1349     1.0  0.62002  0.71732  0.11297  1.0000
  H   H1350     1.0  0.65427  0.70503  0.12422  1.0000
  H   H1351     1.0  0.55548  0.71519  0.14784  1.0000
  H   H1352     1.0  0.57943  0.74912  0.13834  1.0000
  H   H1353     1.0  0.55972  0.72143  0.12727  1.0000
  H   H1354     1.0  0.63852  0.65772  0.11651  1.0000
  H   H1355     1.0  0.55178  0.66059  0.15097  1.0000
  C   C1142     1.0  0.56544  0.99089  0.07009  1.0000
  N   N73       1.0  0.74742  0.99229  0.18064  1.0000
  H   H1356     1.0  0.85201  0.52886  0.00945  1.0000
  H   H1357     1.0  0.95460  0.91874  0.03676  1.0000
  H   H1358     1.0  0.54229  0.96355  0.01050  1.0000
  H   H1359     1.0  0.62469  0.85966  0.04492  1.0000
  C   C1143     1.0  0.84349  0.54738  0.01720  1.0000
  C   C1144     1.0  0.60819  0.89084  0.01814  1.0000
  C   C1145     1.0  0.61818  0.92512  0.01523  1.0000
  C   C1146     1.0  0.57317  0.88435  0.01855  1.0000
  C   C1147     1.0  0.58099  0.59826  0.12987  1.0000
  C   C1148     1.0  0.54976  0.91042  0.01594  1.0000
  C   C1149     1.0  0.61955  0.55309  0.17081  1.0000
  H   H1360     1.0  0.91562  0.91870  0.04875  1.0000
  N   N74       1.0  0.79706  0.77241  0.18199  1.0000
  H   H1361     1.0  0.69718  0.96599  0.16513  1.0000
  H   H1362     1.0  0.83587  0.78041  0.19636  1.0000
  H   H1363     1.0  0.81178  0.71968  0.18405  1.0000
  H   H1364     1.0  0.84241  0.74748  0.17307  1.0000
  H   H1365     1.0  0.53881  0.60342  0.14693  1.0000
  C   C1150     1.0  0.94885  0.97616  0.04938  1.0000
  H   H1366     1.0  0.82218  0.58064  0.99987  1.0000
  S   S319      1.0  0.84547  0.98915  0.06294  1.0000
  H   H1367     1.0  0.80506  0.73619  0.16524  1.0000
  C   C1151     1.0  0.62673  0.99231  0.06782  1.0000
  H   H1368     1.0  0.94537  0.91694  0.07998  1.0000
  N   N75       1.0  0.80963  0.62253  0.04750  1.0000
  C   C1152     1.0  0.81424  0.61290  0.06384  1.0000
  C   C1153     1.0  0.82905  0.65364  0.04236  1.0000
  C   C1154     1.0  0.77319  0.63029  0.04667  1.0000
  C   C1155     1.0  0.82101  0.59614  0.03741  1.0000
  C   C1156     1.0  0.81563  0.60043  0.02174  1.0000
  C   C1157     1.0  0.83834  0.56620  0.04255  1.0000
  H   H1369     1.0  0.81738  0.88300  0.14133  1.0000
  H   H1370     1.0  0.99248  0.58995  0.14704  1.0000
  H   H1371     1.0  0.57500  0.57264  0.12821  1.0000
  H   H1372     1.0  0.80403  0.63255  0.07125  1.0000
  H   H1373     1.0  0.80071  0.58925  0.06838  1.0000
  H   H1374     1.0  0.84133  0.60946  0.06565  1.0000
  H   H1375     1.0  0.82051  0.67457  0.04934  1.0000
  H   H1376     1.0  0.82592  0.66316  0.03032  1.0000
  H   H1377     1.0  0.85654  0.64925  0.04304  1.0000
  H   H1378     1.0  0.75782  0.60711  0.04927  1.0000
  H   H1379     1.0  0.76341  0.64875  0.05475  1.0000
  H   H1380     1.0  0.76789  0.64215  0.03526  1.0000
  H   H1381     1.0  0.80292  0.62258  0.01700  1.0000
  H   H1382     1.0  0.84369  0.56065  0.05426  1.0000
  H   H1383     1.0  0.86236  0.51955  0.03670  1.0000
  H   H1384     1.0  0.70516  0.54665  0.17099  1.0000
  H   H1385     1.0  0.79223  0.83206  0.13394  1.0000
  N   N76       1.0  0.72144  0.83360  0.10618  1.0000
  C   C1158     1.0  0.70332  0.81497  0.09598  1.0000
  C   C1159     1.0  0.70237  0.83075  0.12163  1.0000
  C   C1160     1.0  0.72141  0.86984  0.10020  1.0000
  C   C1161     1.0  0.75573  0.81883  0.10703  1.0000
  C   C1162     1.0  0.78566  0.83725  0.10186  1.0000
  C   C1163     1.0  0.75993  0.78462  0.11288  1.0000
  C   C1164     1.0  0.81760  0.82213  0.10248  1.0000
  C   C1165     1.0  0.79197  0.76984  0.11357  1.0000
  C   C1166     1.0  0.82076  0.78854  0.10833  1.0000
  H   H1386     1.0  0.71804  0.81471  0.08454  1.0000
  H   H1387     1.0  0.69883  0.78824  0.10060  1.0000
  H   H1388     1.0  0.67819  0.82655  0.09416  1.0000
  H   H1389     1.0  0.69850  0.80421  0.12654  1.0000
  H   H1390     1.0  0.67672  0.84245  0.12147  1.0000
  H   H1391     1.0  0.71572  0.84368  0.12973  1.0000
  H   H1392     1.0  0.73376  0.87377  0.08825  1.0000
  H   H1393     1.0  0.69529  0.88038  0.10001  1.0000
  H   H1394     1.0  0.73444  0.88536  0.10746  1.0000
  H   H1395     1.0  0.78525  0.86326  0.09701  1.0000
  H   H1396     1.0  0.99406  0.97929  0.07388  1.0000
  H   H1397     1.0  0.69703  0.91272  0.21831  1.0000
  C   C1167     1.0  0.80377  0.68254  0.99858  1.0000
  H   H1398     1.0  0.65728  0.92231  0.17500  1.0000
  H   H1399     1.0  0.64418  0.93256  0.01470  1.0000
  C   C1168     1.0  0.63101  0.83972  0.00829  1.0000
  H   H1400     1.0  0.64176  0.82206  0.03746  1.0000
  H   H1401     1.0  0.96208  0.97928  0.03758  1.0000
  C   C1169     1.0  0.80831  0.77557  0.19723  1.0000
  C   C1170     1.0  0.60894  0.61399  0.12145  1.0000
  C   C1171     1.0  0.67466  0.93054  0.18244  1.0000
  S   S320      1.0  0.65030  0.76136  0.18445  1.0000
  H   H1402     1.0  0.92124  0.97993  0.04866  1.0000
  C   C1172     1.0  0.72048  0.95023  0.20135  1.0000
  H   H1403     1.0  0.98788  0.99843  0.11382  1.0000
  H   H1404     1.0  0.66211  0.60852  0.16790  1.0000
  C   C1173     1.0  0.73107  0.83985  0.21166  1.0000
  H   H1405     1.0  0.94084  0.96208  0.07917  1.0000
  C   C1174     1.0  0.01618  0.54368  0.14054  1.0000
  H   H1406     1.0  0.60259  0.97689  0.01003  1.0000
  C   C1175     1.0  0.67411  0.91538  0.19738  1.0000
  C   C1176     1.0  0.53387  0.74994  0.18055  1.0000
  H   H1407     1.0  0.69874  0.00018  0.08522  1.0000
  H   H1408     1.0  0.74624  0.78771  0.18867  1.0000
  C   C1177     1.0  0.76986  0.88395  0.20041  1.0000
  H   H1409     1.0  0.63631  0.85335  0.99667  1.0000
  C   C1178     1.0  0.80434  0.65936  0.98765  1.0000
  H   H1410     1.0  0.79423  0.79614  0.20295  1.0000
  C   C1179     1.0  0.62384  0.84344  0.03550  1.0000
  N   N77       1.0  0.65519  0.55673  0.16403  1.0000
  C   C1180     1.0  0.56312  0.57641  0.17837  1.0000
  H   H1411     1.0  0.67719  0.88678  0.00831  1.0000
  H   H1412     1.0  0.74642  0.99125  0.15635  1.0000
  C   C1181     1.0  0.66819  0.87344  0.01965  1.0000
  H   H1413     1.0  0.83253  0.88396  0.16763  1.0000
  C   C1182     1.0  0.81488  0.74282  0.17581  1.0000
  C   C1183     1.0  0.95549  0.55628  0.14113  1.0000
  C   C1184     1.0  0.59667  0.58094  0.17195  1.0000
  H   H1414     1.0  0.78758  0.96482  0.19130  1.0000
  C   C1185     1.0  0.79453  0.80343  0.15584  1.0000
  S   S321      1.0  0.69956  0.81036  0.21036  1.0000
  Fe  Fe157     1.0  0.85773  0.53638  0.13921  1.0000
  C   C1186     1.0  0.82215  0.86129  0.16433  1.0000
  C   C1187     1.0  0.54743  0.78511  0.01987  1.0000
  H   H1415     1.0  0.56452  0.96642  0.06525  1.0000
  C   C1188     1.0  0.80326  0.80288  0.17100  1.0000
  H   H1416     1.0  0.78328  0.78184  0.15204  1.0000
  C   C1189     1.0  0.78145  0.97624  0.17990  1.0000
  C   C1190     1.0  0.79952  0.83206  0.14535  1.0000
  H   H1417     1.0  0.66898  0.91708  0.06313  1.0000
  H   H1418     1.0  0.60398  0.60645  0.16795  1.0000
  H   H1419     1.0  0.00578  0.90047  0.04329  1.0000
  H   H1420     1.0  0.56469  0.98556  0.08274  1.0000
  C   C1191     1.0  0.68022  0.98863  0.07936  1.0000
  H   H1421     1.0  0.64926  0.60271  0.14930  1.0000
  C   C1192     1.0  0.63399  0.95942  0.06341  1.0000
  H   H1422     1.0  0.94874  0.89078  0.05440  1.0000
  C   C1193     1.0  0.52766  0.78128  0.05124  1.0000
  C   C1194     1.0  0.98680  0.01296  0.10285  1.0000
  C   C1195     1.0  0.66142  0.53650  0.15084  1.0000
  C   C1196     1.0  0.74598  0.01885  0.19126  1.0000
  C   C1197     1.0  0.60671  0.52077  0.17656  1.0000
  H   H1423     1.0  0.91941  0.52731  0.00146  1.0000
  H   H1424     1.0  0.54589  0.59786  0.17909  1.0000
  C   C1198     1.0  0.65081  0.00640  0.07598  1.0000
  H   H1425     1.0  0.80165  0.99461  0.17545  1.0000
  Fe  Fe158     1.0  0.79520  0.00592  0.07387  1.0000
  C   C1199     1.0  0.69684  0.92534  0.20684  1.0000
  C   C1200     1.0  0.77974  0.88798  0.21486  1.0000
  H   H1426     1.0  0.75362  0.00921  0.20265  1.0000
  H   H1427     1.0  0.96533  0.54122  0.01623  1.0000
  H   H1428     1.0  0.64452  0.54472  0.14191  1.0000
  C   C1201     1.0  0.55146  0.54431  0.18388  1.0000
  C   C1202     1.0  0.95578  0.01694  0.09657  1.0000
  H   H1429     1.0  0.93320  0.00558  0.10272  1.0000
  C   C1203     1.0  0.00877  0.96121  0.06764  1.0000
  C   C1204     1.0  0.74306  0.00924  0.16518  1.0000
  S   S322      1.0  0.77559  0.61043  0.97356  1.0000
  C   C1205     1.0  0.95002  0.52487  0.13621  1.0000
  C   C1206     1.0  0.59644  0.01545  0.04676  1.0000
  S   S323      1.0  0.80771  0.92051  0.21679  1.0000
  C   C1207     1.0  0.72841  0.52211  0.97855  1.0000
  H   H1430     1.0  0.52315  0.90490  0.01607  1.0000
  H   H1431     1.0  0.68805  0.53850  0.14544  1.0000
  C   C1208     1.0  0.67803  0.54430  0.17562  1.0000
  H   H1432     1.0  0.52548  0.54084  0.18888  1.0000
  H   H1433     1.0  0.92054  0.52314  0.18522  1.0000
  H   H1434     1.0  0.01102  0.53823  0.96981  1.0000
  Fe  Fe159     1.0  0.63298  0.90651  0.44171  1.0000
  S   S324      1.0  0.63201  0.92765  0.41715  1.0000
  H   H1435     1.0  0.79896  0.81654  0.32256  1.0000
  Fe  Fe160     1.0  0.56079  0.92824  0.45005  1.0000
  S   S325      1.0  0.55480  0.95192  0.42645  1.0000
  H   H1436     1.0  0.94347  0.78375  0.28606  1.0000
  Fe  Fe161     1.0  0.58044  0.90480  0.41905  1.0000
  S   S326      1.0  0.55887  0.88042  0.40027  1.0000
  Fe  Fe162     1.0  0.60639  0.97252  0.42700  1.0000
  S   S327      1.0  0.68284  0.88292  0.44766  1.0000
  S   S328      1.0  0.58354  0.87982  0.44272  1.0000
  S   S329      1.0  0.61021  0.95278  0.45147  1.0000
  H   H1437     1.0  0.02025  0.79878  0.43810  1.0000
  H   H1438     1.0  0.60374  0.79575  0.39519  1.0000
  H   H1439     1.0  0.00337  0.75707  0.29998  1.0000
  Fe  Fe163     1.0  0.82764  0.92224  0.23976  1.0000
  S   S330      1.0  0.79987  0.90782  0.26298  1.0000
  H   H1440     1.0  0.67029  0.98511  0.46850  1.0000
  Fe  Fe164     1.0  0.89079  0.94138  0.25320  1.0000
  S   S331      1.0  0.86862  0.92771  0.27736  1.0000
  S   S332      1.0  0.94326  0.96139  0.24673  1.0000
  Fe  Fe165     1.0  0.84886  0.88238  0.26855  1.0000
  S   S333      1.0  0.84977  0.82905  0.28020  1.0000
  Fe  Fe166     1.0  0.82214  0.95463  0.26974  1.0000
  C   C1209     1.0  0.68724  0.86678  0.46667  1.0000
  S   S334      1.0  0.87502  0.89368  0.24483  1.0000
  S   S335      1.0  0.84589  0.97138  0.24609  1.0000
  Fe  Fe167     1.0  0.96757  0.73001  0.33392  1.0000
  S   S336      1.0  0.97081  0.69591  0.31524  1.0000
  S   S337      1.0  0.94220  0.78162  0.33267  1.0000
  H   H1441     1.0  0.98677  0.79848  0.30245  1.0000
  Fe  Fe168     1.0  0.97127  0.65283  0.33397  1.0000
  S   S338      1.0  0.93793  0.60663  0.33553  1.0000
  N   N78       1.0  0.78560  0.88454  0.31743  1.0000
  S   S339      1.0  0.96295  0.68723  0.35283  1.0000
  C   C1210     1.0  0.83982  0.81556  0.33607  1.0000
  H   H1442     1.0  0.54078  0.99407  0.45975  1.0000
  C   C1211     1.0  0.95168  0.56454  0.33319  1.0000
  N   N79       1.0  0.64256  0.78015  0.45217  1.0000
  H   H1443     1.0  0.83517  0.91303  0.33250  1.0000
  C   C1212     1.0  0.87622  0.81637  0.29454  1.0000
  C   C1213     1.0  0.87792  0.78212  0.30005  1.0000
  C   C1214     1.0  0.89876  0.77100  0.31146  1.0000
  C   C1215     1.0  0.91748  0.79425  0.31767  1.0000
  C   C1216     1.0  0.91554  0.82854  0.31227  1.0000
  C   C1217     1.0  0.89528  0.83957  0.30062  1.0000
  H   H1444     1.0  0.86314  0.76405  0.29543  1.0000
  H   H1445     1.0  0.89978  0.74457  0.31567  1.0000
  H   H1446     1.0  0.92932  0.84669  0.31731  1.0000
  H   H1447     1.0  0.89392  0.86602  0.29658  1.0000
  H   H1448     1.0  0.73674  0.01590  0.45677  1.0000
  H   H1449     1.0  0.76644  0.93381  0.30947  1.0000
  C   C1218     1.0  0.83530  0.88587  0.33322  1.0000
  H   H1450     1.0  0.94332  0.83117  0.27007  1.0000
  C   C1219     1.0  0.95815  0.98766  0.25913  1.0000
  H   H1451     1.0  0.73826  0.84900  0.46120  1.0000
  C   C1220     1.0  0.85985  0.86904  0.34145  1.0000
  H   H1452     1.0  0.93707  0.01855  0.29338  1.0000
  C   C1221     1.0  0.68885  0.96851  0.46248  1.0000
  C   C1222     1.0  0.74623  0.95004  0.45770  1.0000
  C   C1223     1.0  0.61580  0.75751  0.43045  1.0000
  H   H1453     1.0  0.88162  0.82101  0.34896  1.0000
  C   C1224     1.0  0.67947  0.78543  0.45147  1.0000
  C   C1225     1.0  0.76613  0.86700  0.22759  1.0000
  H   H1454     1.0  0.96394  0.74470  0.28299  1.0000
  H   H1455     1.0  0.77234  0.94948  0.46105  1.0000
  H   H1456     1.0  0.69069  0.97825  0.45014  1.0000
  H   H1457     1.0  0.77372  0.86966  0.23874  1.0000
  H   H1458     1.0  0.73114  0.82719  0.23593  1.0000
  C   C1226     1.0  0.54043  0.84004  0.40340  1.0000
  H   H1459     1.0  0.98443  0.77727  0.45940  1.0000
  H   H1460     1.0  0.96201  0.93069  0.29419  1.0000
  H   H1461     1.0  0.69397  0.76695  0.44464  1.0000
  N   N80       1.0  0.99673  0.78788  0.27899  1.0000
  C   C1227     1.0  0.53863  0.82111  0.41768  1.0000
  C   C1228     1.0  0.93975  0.99257  0.27313  1.0000
  H   H1462     1.0  0.90106  0.54526  0.33670  1.0000
  H   H1463     1.0  0.52883  0.84099  0.38013  1.0000
  H   H1464     1.0  0.54847  0.83111  0.42714  1.0000
  C   C1229     1.0  0.92760  0.53888  0.33463  1.0000
  C   C1230     1.0  0.81523  0.83206  0.32781  1.0000
  H   H1465     1.0  0.59277  0.74209  0.41136  1.0000
  C   C1231     1.0  0.98842  0.00483  0.25466  1.0000
  H   H1466     1.0  0.91651  0.97932  0.27671  1.0000
  C   C1232     1.0  0.96360  0.77195  0.27863  1.0000
  C   C1233     1.0  0.00477  0.78386  0.29505  1.0000
  C   C1234     1.0  0.98589  0.55596  0.33041  1.0000
  H   H1467     1.0  0.96664  0.60089  0.37949  1.0000
  C   C1235     1.0  0.52761  0.82649  0.39122  1.0000
  H   H1468     1.0  0.78167  0.93142  0.32777  1.0000
  H   H1469     1.0  0.81074  0.93190  0.31043  1.0000
  C   C1236     1.0  0.78628  0.92196  0.31633  1.0000
  H   H1470     1.0  0.74759  0.96308  0.44588  1.0000
  H   H1471     1.0  0.68700  0.81098  0.44615  1.0000
  H   H1472     1.0  0.94694  0.89024  0.26067  1.0000
  H   H1473     1.0  0.00101  0.92014  0.25809  1.0000
  H   H1474     1.0  0.95610  0.77375  0.26682  1.0000
  C   C1237     1.0  0.99467  0.89080  0.30240  1.0000
  H   H1475     1.0  0.77070  0.88766  0.29460  1.0000
  C   C1238     1.0  0.99725  0.82412  0.27327  1.0000
  C   C1239     1.0  0.86205  0.83399  0.34289  1.0000
  C   C1240     1.0  0.96790  0.84252  0.26925  1.0000
  H   H1476     1.0  0.94926  0.55586  0.36891  1.0000
  C   C1241     1.0  0.96800  0.53603  0.37020  1.0000
  C   C1242     1.0  0.78975  0.87490  0.30161  1.0000
  C   C1243     1.0  0.74196  0.84298  0.22597  1.0000
  H   H1477     1.0  0.67782  0.94290  0.46362  1.0000
  H   H1478     1.0  0.84229  0.78830  0.33687  1.0000
  H   H1479     1.0  0.60755  0.74169  0.46239  1.0000
  C   C1244     1.0  0.00059  0.76664  0.46773  1.0000
  H   H1480     1.0  0.74810  0.84623  0.32476  1.0000
  S   S340      1.0  0.79778  0.99026  0.28616  1.0000
  C   C1245     1.0  0.99588  0.52202  0.32944  1.0000
  H   H1481     1.0  0.00005  0.97567  0.29753  1.0000
  C   C1246     1.0  0.62793  0.81827  0.41209  1.0000
  C   C1247     1.0  0.63791  0.81413  0.42683  1.0000
  C   C1248     1.0  0.75185  0.87372  0.32485  1.0000
  H   H1482     1.0  0.00462  0.57545  0.32895  1.0000
  H   H1483     1.0  0.97763  0.87103  0.30083  1.0000
  H   H1484     1.0  0.73822  0.92377  0.45692  1.0000
  H   H1485     1.0  0.77811  0.01375  0.25608  1.0000
  H   H1486     1.0  0.63156  0.84219  0.40509  1.0000
  H   H1487     1.0  0.87755  0.88322  0.34662  1.0000
  C   C1249     1.0  0.60611  0.76188  0.41564  1.0000
  C   C1250     1.0  0.63219  0.78361  0.43650  1.0000
  H   H1488     1.0  0.74824  0.87936  0.33699  1.0000
  H   H1489     1.0  0.64849  0.72605  0.45483  1.0000
  H   H1490     1.0  0.78702  0.84742  0.30107  1.0000
  H   H1491     1.0  0.73116  0.88672  0.31892  1.0000
  H   H1492     1.0  0.98009  0.60396  0.35921  1.0000
  H   H1493     1.0  0.81525  0.88172  0.29585  1.0000
  C   C1251     1.0  0.96950  0.87674  0.26386  1.0000
  H   H1494     1.0  0.60971  0.73361  0.43694  1.0000
  H   H1495     1.0  0.64973  0.83532  0.43067  1.0000
  C   C1252     1.0  0.61227  0.79212  0.40648  1.0000
  C   C1253     1.0  0.81215  0.86776  0.32612  1.0000
  H   H1496     1.0  0.00437  0.57284  0.39770  1.0000
  H   H1497     1.0  0.53352  0.52211  0.38727  1.0000
  H   H1498     1.0  0.59667  0.80387  0.46131  1.0000
  C   C1254     1.0  0.63517  0.74665  0.46076  1.0000
  H   H1499     1.0  0.00435  0.75715  0.43653  1.0000
  C   C1255     1.0  0.00793  0.94998  0.30054  1.0000
  H   H1500     1.0  0.63144  0.83185  0.45627  1.0000
  C   C1256     1.0  0.98591  0.92440  0.29867  1.0000
  C   C1257     1.0  0.98891  0.60370  0.37072  1.0000
  C   C1258     1.0  0.95135  0.01493  0.28253  1.0000
  C   C1259     1.0  0.00208  0.54241  0.37227  1.0000
  H   H1501     1.0  0.00267  0.00123  0.24379  1.0000
  H   H1502     1.0  0.99915  0.62916  0.37131  1.0000
  H   H1503     1.0  0.01912  0.77395  0.25720  1.0000
  C   C1260     1.0  0.62455  0.80585  0.46110  1.0000
  C   C1261     1.0  0.00001  0.89365  0.26238  1.0000
  H   H1504     1.0  0.68819  0.78306  0.46308  1.0000
  Fe  Fe169     1.0  0.01957  0.68818  0.35124  1.0000
  C   C1262     1.0  0.52507  0.78853  0.41962  1.0000
  H   H1505     1.0  0.52449  0.77375  0.43062  1.0000
  N   N81       1.0  0.01462  0.57668  0.37324  1.0000
  C   C1263     1.0  0.73404  0.00222  0.46851  1.0000
  N   N82       1.0  0.72218  0.96728  0.46851  1.0000
  H   H1506     1.0  0.02046  0.74123  0.27275  1.0000
  S   S341      1.0  0.95833  0.87430  0.67860  1.0000
  H   H1507     1.0  0.77353  0.99740  0.61710  1.0000
  Fe  Fe170     1.0  0.64770  0.56211  0.57541  1.0000
  S   S342      1.0  0.68988  0.55748  0.59009  1.0000
  S   S343      1.0  0.64859  0.60314  0.55595  1.0000
  Fe  Fe171     1.0  0.64981  0.54793  0.60960  1.0000
  S   S344      1.0  0.64857  0.57839  0.62983  1.0000
  S   S345      1.0  0.60702  0.55674  0.59505  1.0000
  Fe  Fe172     1.0  0.76221  0.75195  0.55266  1.0000
  S   S346      1.0  0.81314  0.77366  0.55287  1.0000
  S   S347      1.0  0.74671  0.71237  0.57199  1.0000
  Fe  Fe173     1.0  0.74478  0.80253  0.52613  1.0000
  S   S348      1.0  0.79491  0.82836  0.52435  1.0000
  S   S349      1.0  0.69738  0.82056  0.51558  1.0000
  Fe  Fe174     1.0  0.81684  0.77530  0.52740  1.0000
  S   S350      1.0  0.86234  0.75382  0.51341  1.0000
  Fe  Fe175     1.0  0.78679  0.82390  0.55011  1.0000
  S   S351      1.0  0.79357  0.86147  0.56693  1.0000
  S   S352      1.0  0.76697  0.74997  0.52727  1.0000
  S   S353      1.0  0.73572  0.80175  0.55168  1.0000
  Fe  Fe176     1.0  0.83569  0.72662  0.66997  1.0000
  S   S354      1.0  0.79324  0.75800  0.68023  1.0000
  S   S355      1.0  0.89184  0.73733  0.66722  1.0000
  Fe  Fe177     1.0  0.78714  0.67272  0.66259  1.0000
  S   S356      1.0  0.74127  0.69962  0.67250  1.0000
  S   S357      1.0  0.78531  0.62505  0.65097  1.0000
  Fe  Fe178     1.0  0.76637  0.74601  0.66041  1.0000
  S   S358      1.0  0.73892  0.77936  0.64371  1.0000
  Fe  Fe179     1.0  0.77225  0.70828  0.69141  1.0000
  S   S359      1.0  0.81045  0.71858  0.64928  1.0000
  S   S360      1.0  0.81661  0.67757  0.68243  1.0000
  Fe  Fe180     1.0  0.65672  0.95869  0.61541  1.0000
  S   S361      1.0  0.61576  0.94407  0.63446  1.0000
  S   S362      1.0  0.66039  0.93575  0.59295  1.0000
  H   H1508     1.0  0.73874  0.91993  0.65674  1.0000
  Fe  Fe181     1.0  0.65728  0.94639  0.64949  1.0000
  S   S363      1.0  0.66668  0.90781  0.66894  1.0000
  C   C1264     1.0  0.69067  0.94614  0.51061  1.0000
  S   S364      1.0  0.69858  0.95684  0.63037  1.0000
  C   C1265     1.0  0.80120  0.55009  0.55615  1.0000
  H   H1509     1.0  0.79749  0.58515  0.52683  1.0000
  S   S365      1.0  0.98244  0.67821  0.54558  1.0000
  C   C1266     1.0  0.82820  0.97836  0.69742  1.0000
  H   H1510     1.0  0.83974  0.91289  0.62424  1.0000
  H   H1511     1.0  0.75690  0.90997  0.48101  1.0000
  C   C1267     1.0  0.89696  0.53469  0.55147  1.0000
  C   C1268     1.0  0.71978  0.81513  0.65098  1.0000
  C   C1269     1.0  0.70711  0.84037  0.64087  1.0000
  C   C1270     1.0  0.69034  0.86856  0.64640  1.0000
  C   C1271     1.0  0.68668  0.87191  0.66207  1.0000
  C   C1272     1.0  0.69989  0.84693  0.67219  1.0000
  C   C1273     1.0  0.71646  0.81848  0.66665  1.0000
  H   H1512     1.0  0.71022  0.83811  0.62874  1.0000
  H   H1513     1.0  0.67987  0.88746  0.63853  1.0000
  H   H1514     1.0  0.69721  0.84956  0.68431  1.0000
  H   H1515     1.0  0.72623  0.79901  0.67450  1.0000
  H   H1516     1.0  0.69596  0.69650  0.70107  1.0000
  S   S366      1.0  0.64814  0.00070  0.65319  1.0000
  H   H1517     1.0  0.54897  0.56309  0.57129  1.0000
  C   C1274     1.0  0.74644  0.55533  0.69461  1.0000
  H   H1518     1.0  0.75033  0.99921  0.56410  1.0000
  C   C1275     1.0  0.75525  0.87928  0.57459  1.0000
  C   C1276     1.0  0.75186  0.88796  0.58964  1.0000
  C   C1277     1.0  0.72237  0.90410  0.59564  1.0000
  C   C1278     1.0  0.69632  0.91237  0.58648  1.0000
  C   C1279     1.0  0.69932  0.90284  0.57157  1.0000
  C   C1280     1.0  0.72859  0.88615  0.56567  1.0000
  H   H1519     1.0  0.77213  0.88228  0.59667  1.0000
  H   H1520     1.0  0.72006  0.91052  0.60727  1.0000
  H   H1521     1.0  0.67912  0.90885  0.56447  1.0000
  H   H1522     1.0  0.73090  0.87951  0.55405  1.0000
  C   C1281     1.0  0.89552  0.73238  0.52240  1.0000
  C   C1282     1.0  0.92093  0.71554  0.51361  1.0000
  C   C1283     1.0  0.94789  0.69879  0.52047  1.0000
  C   C1284     1.0  0.94977  0.69912  0.53615  1.0000
  C   C1285     1.0  0.92418  0.71555  0.54491  1.0000
  C   C1286     1.0  0.89720  0.73201  0.53810  1.0000
  H   H1523     1.0  0.91983  0.71563  0.50145  1.0000
  H   H1524     1.0  0.96732  0.68597  0.51361  1.0000
  H   H1525     1.0  0.92537  0.71582  0.55706  1.0000
  H   H1526     1.0  0.87811  0.74498  0.54499  1.0000
  C   C1287     1.0  0.67270  0.63620  0.56042  1.0000
  C   C1288     1.0  0.68827  0.65893  0.54878  1.0000
  C   C1289     1.0  0.71050  0.68302  0.55228  1.0000
  C   C1290     1.0  0.71761  0.68393  0.56736  1.0000
  C   C1291     1.0  0.70175  0.66142  0.57898  1.0000
  C   C1292     1.0  0.67865  0.63826  0.57556  1.0000
  H   H1527     1.0  0.68369  0.65754  0.53705  1.0000
  H   H1528     1.0  0.72257  0.70034  0.54326  1.0000
  H   H1529     1.0  0.70732  0.66174  0.59064  1.0000
  H   H1530     1.0  0.66540  0.62201  0.58469  1.0000
  C   C1293     1.0  0.68714  0.59294  0.63446  1.0000
  C   C1294     1.0  0.68670  0.61922  0.64382  1.0000
  C   C1295     1.0  0.71681  0.63016  0.64846  1.0000
  C   C1296     1.0  0.74754  0.61435  0.64405  1.0000
  C   C1297     1.0  0.74802  0.58831  0.63454  1.0000
  C   C1298     1.0  0.71795  0.57784  0.62962  1.0000
  H   H1531     1.0  0.66284  0.63058  0.64778  1.0000
  H   H1532     1.0  0.71600  0.64998  0.65588  1.0000
  H   H1533     1.0  0.77166  0.57587  0.63112  1.0000
  H   H1534     1.0  0.71848  0.55734  0.62251  1.0000
  H   H1535     1.0  0.93101  0.77566  0.69954  1.0000
  C   C1299     1.0  0.65876  0.66976  0.71709  1.0000
  C   C1300     1.0  0.94950  0.98558  0.70184  1.0000
  H   H1536     1.0  0.65883  0.78213  0.63322  1.0000
  H   H1537     1.0  0.00261  0.55585  0.50968  1.0000
  H   H1538     1.0  0.93047  0.96946  0.69876  1.0000
  C   C1301     1.0  0.94027  0.83631  0.67504  1.0000
  C   C1302     1.0  0.96024  0.80922  0.67034  1.0000
  C   C1303     1.0  0.94495  0.77924  0.66776  1.0000
  C   C1304     1.0  0.90966  0.77600  0.66997  1.0000
  C   C1305     1.0  0.88966  0.80318  0.67459  1.0000
  C   C1306     1.0  0.90494  0.83329  0.67701  1.0000
  H   H1539     1.0  0.98743  0.81145  0.66858  1.0000
  H   H1540     1.0  0.96053  0.75834  0.66411  1.0000
  H   H1541     1.0  0.86249  0.80091  0.67637  1.0000
  H   H1542     1.0  0.88938  0.85419  0.68063  1.0000
  C   C1307     1.0  0.71312  0.71009  0.61753  1.0000
  C   C1308     1.0  0.66837  0.71872  0.63719  1.0000
  C   C1309     1.0  0.67353  0.75599  0.61274  1.0000
  C   C1310     1.0  0.68006  0.76242  0.59659  1.0000
  C   C1311     1.0  0.65920  0.81622  0.61325  1.0000
  C   C1312     1.0  0.67605  0.79468  0.58910  1.0000
  C   C1313     1.0  0.66560  0.82152  0.59740  1.0000
  H   H1543     1.0  0.72163  0.70971  0.60515  1.0000
  H   H1544     1.0  0.68504  0.73436  0.64283  1.0000
  H   H1545     1.0  0.68833  0.74252  0.58957  1.0000
  H   H1546     1.0  0.68087  0.79889  0.57675  1.0000
  H   H1547     1.0  0.66248  0.84651  0.59155  1.0000
  C   C1314     1.0  0.78755  0.97676  0.61234  1.0000
  C   C1315     1.0  0.74441  0.56911  0.55268  1.0000
  H   H1548     1.0  0.80409  0.54166  0.54450  1.0000
  C   C1316     1.0  0.86543  0.98216  0.67382  1.0000
  C   C1317     1.0  0.58079  0.53665  0.53731  1.0000
  H   H1549     1.0  0.79277  0.52744  0.56398  1.0000
  H   H1550     1.0  0.76659  0.61931  0.69388  1.0000
  H   H1551     1.0  0.75574  0.95679  0.57218  1.0000
  H   H1552     1.0  0.01525  0.79998  0.70469  1.0000
  H   H1553     1.0  0.77217  0.55539  0.69840  1.0000
  C   C1318     1.0  0.80618  0.95583  0.62212  1.0000
  N   N83       1.0  0.55590  0.55421  0.54764  1.0000
  C   C1319     1.0  0.77874  0.98732  0.66663  1.0000
  H   H1554     1.0  0.82651  0.55690  0.55892  1.0000
  C   C1320     1.0  0.66431  0.85456  0.49316  1.0000
  H   H1555     1.0  0.64358  0.85613  0.50208  1.0000
  H   H1556     1.0  0.60603  0.54875  0.53595  1.0000
  H   H1557     1.0  0.90432  0.64700  0.54032  1.0000
  C   C1321     1.0  0.80789  0.93528  0.67416  1.0000
  N   N84       1.0  0.80611  0.78434  0.60535  1.0000
  C   C1322     1.0  0.77282  0.79412  0.60001  1.0000
  C   C1323     1.0  0.83251  0.79161  0.59235  1.0000
  C   C1324     1.0  0.80537  0.74741  0.60978  1.0000
  C   C1325     1.0  0.81425  0.80234  0.61828  1.0000
  C   C1326     1.0  0.84318  0.79289  0.62585  1.0000
  C   C1327     1.0  0.79474  0.83011  0.62341  1.0000
  C   C1328     1.0  0.85110  0.80905  0.63822  1.0000
  C   C1329     1.0  0.80276  0.84600  0.63587  1.0000
  C   C1330     1.0  0.83078  0.83536  0.64332  1.0000
  H   H1558     1.0  0.77222  0.82086  0.59518  1.0000
  H   H1559     1.0  0.76692  0.77941  0.59062  1.0000
  H   H1560     1.0  0.75193  0.79004  0.60945  1.0000
  H   H1561     1.0  0.83313  0.81903  0.58832  1.0000
  H   H1562     1.0  0.82792  0.77797  0.58251  1.0000
  H   H1563     1.0  0.85814  0.78393  0.59535  1.0000
  H   H1564     1.0  0.78766  0.74145  0.62029  1.0000
  H   H1565     1.0  0.79699  0.73343  0.60064  1.0000
  H   H1566     1.0  0.83049  0.73660  0.61205  1.0000
  H   H1567     1.0  0.85984  0.77264  0.62240  1.0000
  H   H1568     1.0  0.77228  0.83907  0.61842  1.0000
  H   H1569     1.0  0.87294  0.80070  0.64400  1.0000
  H   H1570     1.0  0.78651  0.86606  0.63999  1.0000
  H   H1571     1.0  0.83670  0.84725  0.65314  1.0000
  H   H1572     1.0  0.74841  0.88294  0.50691  1.0000
  H   H1573     1.0  0.98718  0.94626  0.70231  1.0000
  N   N85       1.0  0.77683  0.57862  0.55769  1.0000
  N   N86       1.0  0.76758  0.99419  0.58660  1.0000
  C   C1331     1.0  0.74020  0.61578  0.69138  1.0000
  C   C1332     1.0  0.69039  0.58156  0.69585  1.0000
  C   C1333     1.0  0.79002  0.60910  0.54805  1.0000
  C   C1334     1.0  0.79293  0.64065  0.55390  1.0000
  C   C1335     1.0  0.79998  0.60793  0.53219  1.0000
  C   C1336     1.0  0.80576  0.66883  0.54448  1.0000
  C   C1337     1.0  0.81267  0.63634  0.52287  1.0000
  C   C1338     1.0  0.81568  0.66670  0.52902  1.0000
  H   H1574     1.0  0.86911  0.61933  0.54468  1.0000
  C   C1339     1.0  0.70987  0.91758  0.51458  1.0000
  C   C1340     1.0  0.69067  0.68367  0.71242  1.0000
  C   C1341     1.0  0.80591  0.97098  0.67371  1.0000
  C   C1342     1.0  0.78722  0.97134  0.59676  1.0000
  H   H1575     1.0  0.54811  0.59559  0.53059  1.0000
  C   C1343     1.0  0.82617  0.92346  0.60135  1.0000
  C   C1344     1.0  0.00633  0.99266  0.70813  1.0000
  C   C1345     1.0  0.77066  0.58328  0.57422  1.0000
  H   H1576     1.0  0.78483  0.64459  0.56565  1.0000
  H   H1577     1.0  0.78541  0.88986  0.66882  1.0000
  H   H1578     1.0  0.80734  0.69275  0.54915  1.0000
  H   H1579     1.0  0.93770  0.62093  0.55844  1.0000
  H   H1580     1.0  0.82520  0.68885  0.52177  1.0000
  H   H1581     1.0  0.64684  0.56908  0.66550  1.0000
  C   C1346     1.0  0.55695  0.59072  0.54212  1.0000
  C   C1347     1.0  0.82536  0.92914  0.61664  1.0000
  H   H1582     1.0  0.75070  0.55574  0.68195  1.0000
  Fe  Fe182     1.0  0.60965  0.99971  0.63633  1.0000
  H   H1583     1.0  0.75020  0.60225  0.57649  1.0000
  C   C1348     1.0  0.73399  0.90556  0.50379  1.0000
  H   H1584     1.0  0.53308  0.53275  0.59613  1.0000
  H   H1585     1.0  0.75463  0.58651  0.71867  1.0000
  H   H1586     1.0  0.74718  0.56310  0.54063  1.0000
  C   C1349     1.0  0.75497  0.96899  0.66056  1.0000
  H   H1587     1.0  0.72513  0.63817  0.69470  1.0000
  H   H1588     1.0  0.63721  0.88135  0.47570  1.0000
  N   N87       1.0  0.72551  0.58437  0.69956  1.0000
  C   C1350     1.0  0.80762  0.94424  0.59147  1.0000
  H   H1589     1.0  0.72056  0.97230  0.59666  1.0000
  H   H1590     1.0  0.96734  0.57710  0.53385  1.0000
  H   H1591     1.0  0.94500  0.59811  0.51899  1.0000
  N   N88       1.0  0.91733  0.59395  0.54164  1.0000
  H   H1592     1.0  0.71627  0.01757  0.47564  1.0000
  C   C1351     1.0  0.94906  0.59793  0.53122  1.0000
  C   C1352     1.0  0.89420  0.62263  0.53787  1.0000
  C   C1353     1.0  0.90142  0.56180  0.53965  1.0000
  C   C1354     1.0  0.66171  0.58576  0.70663  1.0000
  H   H1593     1.0  0.73347  0.54641  0.55978  1.0000
  H   H1594     1.0  0.79200  0.98226  0.56469  1.0000
  C   C1355     1.0  0.62890  0.58395  0.70262  1.0000
  C   C1356     1.0  0.56689  0.55024  0.56314  1.0000
  C   C1357     1.0  0.66068  0.86892  0.47824  1.0000
  H   H1595     1.0  0.80207  0.98212  0.70294  1.0000
  Fe  Fe183     1.0  0.01268  0.87921  0.68357  1.0000
  H   H1596     1.0  0.79389  0.59114  0.57871  1.0000
  H   H1597     1.0  0.96157  0.62204  0.53226  1.0000
  H   H1598     1.0  0.98840  0.77265  0.69706  1.0000
  C   C1358     1.0  0.92216  0.76467  0.71086  1.0000
  C   C1359     1.0  0.72794  0.58542  0.71614  1.0000
  H   H1599     1.0  0.74477  0.82415  0.48775  1.0000
  C   C1360     1.0  0.72136  0.83660  0.48513  1.0000
  C   C1361     1.0  0.69459  0.83840  0.49667  1.0000
  H   H1600     1.0  0.71717  0.68409  0.62303  1.0000
  H   H1601     1.0  0.66217  0.69640  0.60170  1.0000
  C   C1362     1.0  0.99253  0.53096  0.51283  1.0000
  N   N89       1.0  0.83075  0.98948  0.68080  1.0000
  H   H1602     1.0  0.80915  0.93793  0.57984  1.0000
  H   H1603     1.0  0.64165  0.72647  0.64019  1.0000
  H   H1604     1.0  0.82766  0.92109  0.67952  1.0000
  C   C1363     1.0  0.87616  0.52627  0.52300  1.0000
  H   H1605     1.0  0.99482  0.74879  0.50645  1.0000
  H   H1606     1.0  0.90504  0.53597  0.56263  1.0000
  N   N90       1.0  0.67748  0.72142  0.62036  1.0000
  H   H1607     1.0  0.73012  0.72706  0.62223  1.0000
  C   C1364     1.0  0.66337  0.78410  0.62090  1.0000
  H   H1608     1.0  0.67131  0.69245  0.64253  1.0000
  H   H1609     1.0  0.65134  0.83734  0.61966  1.0000
  H   H1610     1.0  0.96084  0.77246  0.48605  1.0000
  C   C1365     1.0  0.75754  0.93401  0.66127  1.0000
  H   H1611     1.0  0.83528  0.95138  0.69984  1.0000
  C   C1366     1.0  0.98664  0.76409  0.48305  1.0000
  C   C1367     1.0  0.65559  0.69789  0.61413  1.0000
  H   H1612     1.0  0.84534  0.99275  0.70338  1.0000
  H   H1613     1.0  0.84097  0.90254  0.59710  1.0000
  H   H1614     1.0  0.89401  0.57561  0.51568  1.0000
  H   H1615     1.0  0.71586  0.01186  0.58560  1.0000
  C   C1368     1.0  0.78396  0.91716  0.66804  1.0000
  C   C1369     1.0  0.92603  0.59623  0.55740  1.0000
  H   H1616     1.0  0.59808  0.57633  0.68483  1.0000
  H   H1617     1.0  0.54010  0.98553  0.62024  1.0000
  H   H1618     1.0  0.75899  0.00242  0.47303  1.0000
  S   S367      1.0  0.64759  0.01446  0.61604  1.0000
  H   H1619     1.0  0.70577  0.90434  0.52597  1.0000
  H   H1620     1.0  0.95695  0.53621  0.49603  1.0000
  H   H1621     1.0  0.72536  0.58991  0.55359  1.0000
  C   C1370     1.0  0.73850  0.92142  0.48885  1.0000
  C   C1371     1.0  0.73210  0.99740  0.59352  1.0000
  H   H1622     1.0  0.72982  0.01073  0.60397  1.0000
  C   C1372     1.0  0.00566  0.75066  0.49460  1.0000
  H   H1623     1.0  0.89031  0.62603  0.52557  1.0000
  H   H1624     1.0  0.65773  0.67161  0.61971  1.0000
  H   H1625     1.0  0.62858  0.70587  0.61582  1.0000
  H   H1626     1.0  0.73412  0.98203  0.65547  1.0000
  C   C1373     1.0  0.71762  0.85073  0.47014  1.0000
  H   H1627     1.0  0.57216  0.53675  0.52578  1.0000
  H   H1628     1.0  0.81975  0.63504  0.51075  1.0000
  S   S368      1.0  0.75593  0.69783  0.71677  1.0000
  C   C1374     1.0  0.89051  0.55662  0.52535  1.0000
  C   C1375     1.0  0.98170  0.97238  0.70385  1.0000
  H   H1629     1.0  0.74092  0.61601  0.67880  1.0000
  H   H1630     1.0  0.63979  0.67150  0.70917  1.0000
  H   H1631     1.0  0.90328  0.59397  0.56593  1.0000
  H   H1632     1.0  0.56867  0.52332  0.56779  1.0000
  C   C1376     1.0  0.52199  0.53938  0.54834  1.0000
  H   H1633     1.0  0.97295  0.81339  0.70239  1.0000
  H   H1634     1.0  0.80581  0.96049  0.63398  1.0000
  C   C1377     1.0  0.68399  0.57584  0.68087  1.0000
  H   H1635     1.0  0.88467  0.99710  0.67828  1.0000
  H   H1636     1.0  0.54152  0.60608  0.55018  1.0000
  Fe  Fe184     1.0  0.68630  0.01120  0.63283  1.0000
  C   C1378     1.0  0.69521  0.96247  0.49575  1.0000
  H   H1637     1.0  0.87509  0.75227  0.70305  1.0000
  H   H1638     1.0  0.86778  0.98837  0.66119  1.0000
  H   H1639     1.0  0.77502  0.01426  0.66581  1.0000
  H   H1640     1.0  0.59219  0.56118  0.56320  1.0000
  H   H1641     1.0  0.76235  0.55947  0.58124  1.0000
  H   H1642     1.0  0.64364  0.74490  0.47241  1.0000
  C   C1379     1.0  0.88964  0.75143  0.71277  1.0000
  H   H1643     1.0  0.58309  0.60073  0.54125  1.0000
  H   H1644     1.0  0.73441  0.53100  0.69932  1.0000
  H   H1645     1.0  0.67180  0.95533  0.51905  1.0000
  H   H1646     1.0  0.67961  0.98444  0.49321  1.0000
  H   H1647     1.0  0.66375  0.59085  0.71823  1.0000
  H   H1648     1.0  0.99810  0.72641  0.71752  1.0000
  H   H1649     1.0  0.87317  0.95537  0.67628  1.0000
  H   H1650     1.0  0.60748  0.58769  0.71103  1.0000
  H   H1651     1.0  0.94512  0.57670  0.56067  1.0000
  C   C1380     1.0  0.71891  0.95030  0.48432  1.0000
  C   C1381     1.0  0.62357  0.57773  0.68788  1.0000
  C   C1382     1.0  0.65106  0.57365  0.67703  1.0000
  H   H1652     1.0  0.86941  0.52228  0.51178  1.0000
  H   H1653     1.0  0.70437  0.57344  0.67189  1.0000
  H   H1654     1.0  0.63079  0.80348  0.47314  1.0000
  C   C1383     1.0  0.98882  0.79097  0.70569  1.0000
  C   C1384     1.0  0.76652  0.98253  0.57125  1.0000
  S   S369      1.0  0.02006  0.87949  0.70835  1.0000
  C   C1385     1.0  0.94180  0.01930  0.70385  1.0000
  C   C1386     1.0  0.96682  0.51976  0.50505  1.0000
  H   H1655     1.0  0.54873  0.70844  0.83451  1.0000
  C   C1387     1.0  0.97304  0.99324  0.89223  1.0000
  S   S370      1.0  0.00001  0.83634  0.87829  1.0000
  S   S371      1.0  0.98602  0.92571  0.89035  1.0000
  H   H1656     1.0  0.94978  0.62146  0.94083  1.0000
  C   C1388     1.0  0.55665  0.97545  0.80829  1.0000
  H   H1657     1.0  0.59777  0.92201  0.79930  1.0000
  C   C1389     1.0  0.97525  0.63235  0.94079  1.0000
  H   H1658     1.0  0.96137  0.61895  0.91287  1.0000
  Fe  Fe185     1.0  0.56940  0.62915  0.79305  1.0000
  S   S372      1.0  0.54528  0.64017  0.77136  1.0000
  S   S373      1.0  0.57006  0.66642  0.81071  1.0000
  Fe  Fe186     1.0  0.58951  0.55655  0.78653  1.0000
  S   S374      1.0  0.56766  0.56320  0.76409  1.0000
  Fe  Fe187     1.0  0.59138  0.61419  0.76072  1.0000
  H   H1659     1.0  0.88412  0.72376  0.75052  1.0000
  H   H1660     1.0  0.52066  0.99962  0.84672  1.0000
  C   C1390     1.0  0.94229  0.76324  0.72320  1.0000
  S   S375      1.0  0.61736  0.60594  0.78217  1.0000
  S   S376      1.0  0.54406  0.57933  0.79927  1.0000
  Fe  Fe188     1.0  0.82360  0.60007  0.95845  1.0000
  S   S377      1.0  0.81976  0.59254  0.93381  1.0000
  N   N91       1.0  0.93258  0.84848  0.92912  1.0000
  Fe  Fe189     1.0  0.89737  0.57804  0.95648  1.0000
  S   S378      1.0  0.89894  0.56845  0.93199  1.0000
  H   H1661     1.0  0.71842  0.55483  0.94238  1.0000
  Fe  Fe190     1.0  0.87066  0.61777  0.92942  1.0000
  S   S379      1.0  0.88780  0.65506  0.90896  1.0000
  H   H1662     1.0  0.01382  0.92974  0.93121  1.0000
  H   H1663     1.0  0.98132  0.65843  0.91145  1.0000
  S   S380      1.0  0.87207  0.62887  0.95371  1.0000
  S   S381      1.0  0.84941  0.55027  0.96369  1.0000
  H   H1664     1.0  0.61273  0.75480  0.74725  1.0000
  C   C1391     1.0  0.90443  0.87279  0.93225  1.0000
  S   S382      1.0  0.61113  0.63562  0.73684  1.0000
  H   H1665     1.0  0.96325  0.82296  0.72986  1.0000
  H   H1666     1.0  0.94710  0.98579  0.89539  1.0000
  H   H1667     1.0  0.85076  0.72641  0.72839  1.0000
  C   C1392     1.0  0.93862  0.84653  0.91242  1.0000
  C   C1393     1.0  0.54299  0.70233  0.81103  1.0000
  H   H1668     1.0  0.63635  0.68978  0.79475  1.0000
  H   H1669     1.0  0.97188  0.66010  0.93982  1.0000
  C   C1394     1.0  0.70788  0.66522  0.73736  1.0000
  C   C1395     1.0  0.67581  0.65137  0.74206  1.0000
  H   H1670     1.0  0.59987  0.73809  0.79156  1.0000
  H   H1671     1.0  0.66741  0.52973  0.79654  1.0000
  C   C1396     1.0  0.53767  0.71883  0.82438  1.0000
  H   H1672     1.0  0.72699  0.66328  0.74520  1.0000
  H   H1673     1.0  0.67034  0.63857  0.75343  1.0000
  C   C1397     1.0  0.60875  0.69735  0.76892  1.0000
  C   C1398     1.0  0.52866  0.71608  0.79798  1.0000
  H   H1674     1.0  0.91610  0.83744  0.90776  1.0000
  H   H1675     1.0  0.59006  0.71032  0.76184  1.0000
  H   H1676     1.0  0.53537  0.86030  0.81895  1.0000
  H   H1677     1.0  0.70484  0.72023  0.76661  1.0000
  C   C1399     1.0  0.96307  0.73789  0.91339  1.0000
  C   C1400     1.0  0.95566  0.73099  0.89896  1.0000
  C   C1401     1.0  0.93183  0.70615  0.89771  1.0000
  C   C1402     1.0  0.91536  0.68810  0.91085  1.0000
  C   C1403     1.0  0.92214  0.69584  0.92523  1.0000
  C   C1404     1.0  0.94591  0.72052  0.92648  1.0000
  H   H1678     1.0  0.96877  0.74418  0.88878  1.0000
  H   H1679     1.0  0.92665  0.70040  0.88653  1.0000
  H   H1680     1.0  0.90934  0.68255  0.93541  1.0000
  H   H1681     1.0  0.95142  0.72577  0.93769  1.0000
  H   H1682     1.0  0.59381  0.68474  0.77920  1.0000
  H   H1683     1.0  0.62137  0.67740  0.76235  1.0000
  H   H1684     1.0  0.68697  0.55086  0.95897  1.0000
  H   H1685     1.0  0.96212  0.91085  0.92287  1.0000
  H   H1686     1.0  0.71637  0.56283  0.72303  1.0000
  H   H1687     1.0  0.59757  0.76181  0.77345  1.0000
  H   H1688     1.0  0.89698  0.80751  0.93269  1.0000
  H   H1689     1.0  0.77855  0.55066  0.95940  1.0000
  H   H1690     1.0  0.66732  0.67951  0.77969  1.0000
  S   S383      1.0  0.99481  0.76632  0.91585  1.0000
  C   C1405     1.0  0.97541  0.89323  0.93029  1.0000
  H   H1691     1.0  0.98452  0.91491  0.84568  1.0000
  H   H1692     1.0  0.58268  0.97325  0.81060  1.0000
  C   C1406     1.0  0.98090  0.80130  0.73199  1.0000
  H   H1693     1.0  0.94536  0.87139  0.90603  1.0000
  C   C1407     1.0  0.98463  0.83793  0.94342  1.0000
  H   H1694     1.0  0.90840  0.89751  0.92530  1.0000
  H   H1695     1.0  0.98397  0.62469  0.95219  1.0000
  C   C1408     1.0  0.01444  0.84930  0.94803  1.0000
  H   H1696     1.0  0.00184  0.93679  0.81876  1.0000
  C   C1409     1.0  0.00095  0.58360  0.93052  1.0000
  H   H1697     1.0  0.95992  0.82889  0.90963  1.0000
  H   H1698     1.0  0.97579  0.57239  0.93009  1.0000
  C   C1410     1.0  0.76921  0.52668  0.95625  1.0000
  C   C1411     1.0  0.63982  0.75180  0.74685  1.0000
  Fe  Fe191     1.0  0.84843  0.54408  0.93879  1.0000
  C   C1412     1.0  0.89482  0.73529  0.73944  1.0000
  C   C1413     1.0  0.96387  0.85981  0.93455  1.0000
  H   H1699     1.0  0.57396  0.88561  0.83188  1.0000
  C   C1414     1.0  0.87597  0.73678  0.72703  1.0000
  C   C1415     1.0  0.56588  0.91155  0.82775  1.0000
  N   N92       1.0  0.99948  0.62102  0.92835  1.0000
  C   C1416     1.0  0.61534  0.74800  0.78080  1.0000
  C   C1417     1.0  0.01165  0.91250  0.84757  1.0000
  S   S384      1.0  0.94476  0.56816  0.96787  1.0000
  C   C1418     1.0  0.99805  0.96851  0.88931  1.0000
  H   H1700     1.0  0.72365  0.57595  0.95868  1.0000
  H   H1701     1.0  0.91758  0.81427  0.94915  1.0000
  H   H1702     1.0  0.90124  0.87738  0.94453  1.0000
  C   C1419     1.0  0.65501  0.73488  0.75936  1.0000
  H   H1703     1.0  0.97585  0.79119  0.74418  1.0000
  N   N93       1.0  0.63376  0.72050  0.77322  1.0000
  H   H1704     1.0  0.77376  0.52748  0.94362  1.0000
  C   C1420     1.0  0.65120  0.65362  0.73188  1.0000
  C   C1421     1.0  0.65324  0.70097  0.78465  1.0000
  H   H1705     1.0  0.63318  0.76660  0.78380  1.0000
  C   C1422     1.0  0.69090  0.73271  0.75781  1.0000
  H   H1706     1.0  0.67119  0.71713  0.78924  1.0000
  C   C1423     1.0  0.92125  0.81483  0.93648  1.0000
  H   H1707     1.0  0.87999  0.86354  0.92941  1.0000
  H   H1708     1.0  0.53256  0.70375  0.78762  1.0000
  H   H1709     1.0  0.58861  0.92744  0.82672  1.0000
  H   H1710     1.0  0.94133  0.74604  0.74751  1.0000
  N   N94       1.0  0.55028  0.91246  0.81321  1.0000
  H   H1711     1.0  0.93956  0.79456  0.93333  1.0000
  H   H1712     1.0  0.58728  0.87835  0.80341  1.0000
  H   H1713     1.0  0.73733  0.74280  0.74315  1.0000
  C   C1424     1.0  0.71006  0.74587  0.74439  1.0000
  C   C1425     1.0  0.92752  0.74822  0.73760  1.0000
  C   C1426     1.0  0.99533  0.52044  0.96554  1.0000
  H   H1714     1.0  0.97896  0.81165  0.94657  1.0000
  C   C1427     1.0  0.71449  0.55208  0.95511  1.0000
  C   C1428     1.0  0.96172  0.52897  0.96343  1.0000
  C   C1429     1.0  0.71543  0.68120  0.72249  1.0000
  H   H1715     1.0  0.01399  0.91561  0.85975  1.0000
  C   C1430     1.0  0.57646  0.90409  0.80090  1.0000
  H   H1716     1.0  0.54762  0.92058  0.83697  1.0000
  C   C1431     1.0  0.54372  0.00791  0.80478  1.0000
  C   C1432     1.0  0.00525  0.90431  0.93495  1.0000
  H   H1717     1.0  0.56565  0.90494  0.78978  1.0000
  N   N95       1.0  0.97747  0.77547  0.72138  1.0000
  H   H1718     1.0  0.00852  0.57420  0.94196  1.0000
  C   C1433     1.0  0.53617  0.94654  0.80911  1.0000
  C   C1434     1.0  0.98612  0.63092  0.91349  1.0000
  C   C1435     1.0  0.00071  0.74681  0.72496  1.0000
  H   H1719     1.0  0.01869  0.57315  0.92152  1.0000
  C   C1436     1.0  0.65924  0.76455  0.73343  1.0000
  N   N96       1.0  0.73296  0.52214  0.96167  1.0000
  H   H1720     1.0  0.99607  0.73571  0.73704  1.0000
  H   H1721     1.0  0.00702  0.81150  0.73058  1.0000
  Fe  Fe192     1.0  0.52388  0.58849  0.77658  1.0000
  C   C1437     1.0  0.69428  0.76139  0.73217  1.0000
  H   H1722     1.0  0.64707  0.77646  0.72384  1.0000
  H   H1723     1.0  0.98014  0.96390  0.85682  1.0000
  H   H1724     1.0  0.71543  0.60840  0.72037  1.0000
  H   H1725     1.0  0.00401  0.62360  0.90378  1.0000
  C   C1438     1.0  0.52459  0.88554  0.81534  1.0000
  C   C1439     1.0  0.98961  0.01592  0.85210  1.0000
  C   C1440     1.0  0.99643  0.98213  0.84990  1.0000
  H   H1726     1.0  0.70931  0.77035  0.72160  1.0000
  H   H1727     1.0  0.01934  0.88599  0.84583  1.0000
  H   H1728     1.0  0.01408  0.68861  0.92331  1.0000
