data_image0
_chemical_formula_structural       FeSHFeSHFeS3Fe2S2FeNFeS3C6HCHCH4C6H4CH2C3H5C2SHCH3SH2CHC4H4CH2SHC4HFeH4CHCH4NC9H3CH2CHSCSH2C2HFeSFeS3H2C6H4C6H2NC9H15CHC2NSHFeC2HCHFeHCHCSH2C2HC2NH4SHCHC3SH2CHNH2C3H3C2HC2H2CH3SCH4CHNHCH2CHC2H3C3H2C2H2CSHFeSFeCFeS2HFeS2FeS2Fe2SHSC2HCHSC4HCHC6H5CHC2HC3HCSH2CNC5SHFeH11NCH4C2HCH2CH2CH3CH3C3HNCH2CHCHCH2CHCH3CH5SFeS2FeS2FeSFeCS2HC2HCH5CHC2HC6H4C6H2CHC6H4SH2NCH6CHCHC2H5C2H2C4HCHCH2NC2HCHCH5CHC3H3C2H2CH3CNCSHCHCHCHCH2CHCHC2SHCHC2H2CHCHCNCHC3H6NHCH2CFeHFeS2FeCFeHS2H2CFeHFeS2FeCFeCS2HC2HCHSC6H4SHCSH3C6H3C5H2C6H3C6HCH2CH4NH6NH2C3H2C2HCH3CNC3FeC2H3NHC3H7CHCH5SHC2NC9H4CH2CH6NH2C5H4C2NC3H2CSC2NC6H13CH3S2HC3H7SCSCSH2C3H2CHC2HSCHNH6CSCH2S2CH2CFeH3SH2C2S2FeSFeSFe2S2FeSFeS3FeCFeS2FeHFeS3HFeSCFeSFe2SFeSFeHFeS2FeHFeNS2C2H4CH4C3SC2HC7H6C9H4C5H2CHCH3C6H2CHC6H5CH6CH2CH3CHCH5CH3SHCHC4H3C2HSC2HC2HC2H6NC2HC2SH5CS2CNC2H2C2H3CHNSH2CHC2H2C3H2SC3HNCHCH2CHCH5C3SH3CHSH7SCSHCS3CHCH3CH2Fe2S3FeS3FeSCHSFe2S2CH2C6H6C2NH2CH3C2SCH2CHNH2C2HCH2CH3CFeHFeHCSH2C3H4C3HCH3SCHCHCH2CH2CSC2HSH2FeS2FeS2FeSFeS3CHC3HC5H2C9H4C6H4C6H4C4HCHC6H10C2NC4HCH10CH3CH2SH4CH2CH2CH2CFeH2C4H5CH3CH3C2HC4NH2CNCH2C2NH2SH2C2H4C2H2C4NC2HC3SHC3HSH6SHSHCSH3FeSCFeS2FeSFeSFeS3FeSFeHSHS2FeHSFeHSH4S2HCHC2H2C7H4C7H2C6HC2HC6H4C4HCH5CH2C2H2NHCH3FeHC2H2FeH2CHNC5HCHSH9CHC4HCH2C2H2CHNH2CH2C3HCHCNHC2HCHCHCH5CH4CNHCH3S2CH3CFeHSCHCH3CHC2S2H3S2C2FeC3SH3CSHFe2HCHCHCHC2NHFeHS2HSFeS2FeSHFeSFeSHFe2S2FeSFeS4HFeS2FeSFeHS2HC2HFeS2FeCFeS3H4C2H2C5H2CSHC8H4FeCH2SC6H4C6H4S2HC6H4C4HCHCH6FeNC3HSH2C2H2CHCFeCSH4CHCHNC9H13C3H3CH2NCH2CHC2H5C2HNC9H12C2HCHNH3CHC2S2HSC4H2CH3FeCHC4S2CSHSFeSFeS2FeS2FeSFeS3H2CHS2HCHC2HC2HCH3FeSCH2C2H4C3H2C2H4C3FeH3C8H4C6H5C3H4C6H4C6H4NCNH3C3HCHSHC8H3C3H3CH2SH2CSCH2CHCHCH3NC2SCFeHCH2C3HSH3CHCHFeHC2SH2CH5CHNHCHC2H2C3HCFeH3C2H3SH2C2HCHNH3NH2CHCH2CHCH5NHCH2CH3C2H2NC3H2C3HFeH3C4H2NH5C3H7CH3CH2CFeH3CH2CHFeS2FeS2FeSFeS3C2H2FeSHC3H2C2HCH7C6H4C6H4C6H4C7H2CHCH2SC2H2C3HC2HC2NC9H16NH3CHFeCSHNHCHCNC2H2CH4CHCH3NCH2C5SHNHCH2NSC3HC2H2C2H5CH2CH2CHCH2C5SHC2H2C2H5C2H2CHCH3CNHSH5CHFeS2FeHFeHFeS4CS2H2FeSHFeS2FeS2Fe2S2Fe2H2SH2SC2SCH3CHCH3FeS2HSH2C6H4C6H2CH6CNC9H13C2NH2SHC2HC3H2CH5C2HCH4FeSFeS2HCHNH2C7H4C6H5C2HCHCH9CHCH2CH3SH2CNC6H6C2SHCH2C2HC3SH2NCSH4CH4CH3C2FeS2FeHFeSFeHS2FeHFeSHFeSC2FeS2FeSC2HC4H3C6H4C4HSHC2HSCHCHNHSH3SCHCH3C2HC3SHC3H3CH2CHSH2SCNHCH3CS2CH5CHC3HNCHFeCSFeSH5FeCS
_chemical_formula_sum              "Fe144 S288 H1296 N72 C1080"
_cell_length_a       72.8392
_cell_length_b       72.6026
_cell_length_c       35.9421
_cell_angle_alpha    90.7437
_cell_angle_beta     91.2147
_cell_angle_gamma    112.146

_space_group_name_H-M_alt    "P 1"
_space_group_IT_number       1

loop_
  _space_group_symop_operation_xyz
  'x, y, z'

loop_
  _atom_site_type_symbol
  _atom_site_label
  _atom_site_symmetry_multiplicity
  _atom_site_fract_x
  _atom_site_fract_y
  _atom_site_fract_z
  _atom_site_occupancy
  Fe  Fe1       1.0  0.08175  0.34246  0.03146  1.0000
  S   S1        1.0  0.09284  0.37476  0.05126  1.0000
  H   H1        1.0  0.12660  0.41472  0.35014  1.0000
  Fe  Fe2       1.0  0.12234  0.34009  0.05041  1.0000
  S   S2        1.0  0.13510  0.37186  0.06904  1.0000
  H   H2        1.0  0.10795  0.30740  0.17319  1.0000
  Fe  Fe3       1.0  0.10697  0.36517  0.10020  1.0000
  S   S3        1.0  0.11479  0.37728  0.16043  1.0000
  S   S4        1.0  0.10745  0.35335  0.48813  1.0000
  S   S5        1.0  0.09422  0.33287  0.08267  1.0000
  Fe  Fe4       1.0  0.11235  0.37963  0.45257  1.0000
  Fe  Fe5       1.0  0.09371  0.35336  0.38296  1.0000
  S   S6        1.0  0.08758  0.32520  0.41523  1.0000
  S   S7        1.0  0.08160  0.35030  0.32265  1.0000
  Fe  Fe6       1.0  0.07681  0.34006  0.46090  1.0000
  N   N1        1.0  0.09630  0.41248  0.34152  1.0000
  Fe  Fe7       1.0  0.11864  0.34129  0.43945  1.0000
  S   S8        1.0  0.14207  0.32814  0.45071  1.0000
  S   S9        1.0  0.08144  0.36748  0.42752  1.0000
  S   S10       1.0  0.12515  0.36833  0.40485  1.0000
  C   C1        1.0  0.16758  0.33987  0.44026  1.0000
  C   C2        1.0  0.18107  0.33149  0.45294  1.0000
  C   C3        1.0  0.20157  0.34085  0.44661  1.0000
  C   C4        1.0  0.20878  0.35873  0.42753  1.0000
  C   C5        1.0  0.19525  0.36699  0.41452  1.0000
  C   C6        1.0  0.17479  0.35761  0.42072  1.0000
  H   H3        1.0  0.16218  0.37816  0.47709  1.0000
  C   C7        1.0  0.02743  0.31046  0.00103  1.0000
  H   H4        1.0  0.10457  0.32227  0.22896  1.0000
  C   C8        1.0  0.00559  0.33972  0.04491  1.0000
  H   H5        1.0  0.06758  0.38827  0.28893  1.0000
  H   H6        1.0  0.13527  0.33170  0.33388  1.0000
  H   H7        1.0  0.17079  0.37157  0.00841  1.0000
  H   H8        1.0  0.12734  0.43346  0.29735  1.0000
  C   C9        1.0  0.09192  0.35658  0.27777  1.0000
  C   C10       1.0  0.11147  0.36974  0.27286  1.0000
  C   C11       1.0  0.11836  0.37540  0.23669  1.0000
  C   C12       1.0  0.10600  0.36775  0.20492  1.0000
  C   C13       1.0  0.08673  0.35399  0.20976  1.0000
  C   C14       1.0  0.07971  0.34862  0.24595  1.0000
  H   H9        1.0  0.12116  0.37589  0.29684  1.0000
  H   H10       1.0  0.13327  0.38610  0.23334  1.0000
  H   H11       1.0  0.07696  0.34808  0.18573  1.0000
  H   H12       1.0  0.06457  0.33843  0.24934  1.0000
  C   C15       1.0  0.20387  0.33449  0.01529  1.0000
  H   H13       1.0  0.16546  0.35413  0.18001  1.0000
  H   H14       1.0  0.03559  0.29234  0.03974  1.0000
  C   C16       1.0  0.16686  0.33031  0.04541  1.0000
  C   C17       1.0  0.18397  0.33528  0.06850  1.0000
  C   C18       1.0  0.20248  0.33769  0.05345  1.0000
  H   H15       1.0  0.99813  0.26551  0.46240  1.0000
  H   H16       1.0  0.10048  0.40971  0.19160  1.0000
  H   H17       1.0  0.18287  0.33698  0.09820  1.0000
  H   H18       1.0  0.16853  0.33851  0.23493  1.0000
  H   H19       1.0  0.15008  0.34896  0.13875  1.0000
  C   C19       1.0  0.09703  0.41163  0.30037  1.0000
  C   C20       1.0  0.11126  0.40548  0.35808  1.0000
  S   S11       1.0  0.05069  0.33114  0.00255  1.0000
  H   H20       1.0  0.07639  0.40140  0.38704  1.0000
  C   C21       1.0  0.07667  0.40001  0.35618  1.0000
  H   H21       1.0  0.09056  0.43945  0.34116  1.0000
  H   H22       1.0  0.13871  0.29968  0.18374  1.0000
  H   H23       1.0  0.19449  0.37152  0.02142  1.0000
  S   S12       1.0  0.10890  0.34658  0.99736  1.0000
  H   H24       1.0  0.16722  0.33936  0.30291  1.0000
  H   H25       1.0  0.11117  0.40578  0.38911  1.0000
  C   C22       1.0  0.98584  0.33481  0.03312  1.0000
  H   H26       1.0  0.12891  0.43224  0.22955  1.0000
  C   C23       1.0  0.99560  0.31201  0.08627  1.0000
  C   C24       1.0  0.08225  0.39837  0.23879  1.0000
  C   C25       1.0  0.11435  0.42372  0.28190  1.0000
  C   C26       1.0  0.11544  0.42317  0.24311  1.0000
  H   H27       1.0  0.10833  0.38992  0.34874  1.0000
  H   H28       1.0  0.14708  0.31299  0.14162  1.0000
  H   H29       1.0  0.07290  0.38390  0.34979  1.0000
  H   H30       1.0  0.21177  0.33429  0.45676  1.0000
  C   C27       1.0  0.09939  0.41057  0.22161  1.0000
  H   H31       1.0  0.14370  0.36012  0.17875  1.0000
  H   H32       1.0  0.09945  0.43421  0.38539  1.0000
  S   S13       1.0  0.14336  0.32455  0.06548  1.0000
  H   H33       1.0  0.20066  0.38083  0.39978  1.0000
  C   C28       1.0  0.08102  0.39872  0.27756  1.0000
  C   C29       1.0  0.16840  0.32758  0.00718  1.0000
  C   C30       1.0  0.01046  0.32831  0.07126  1.0000
  C   C31       1.0  0.10083  0.43325  0.35464  1.0000
  H   H34       1.0  0.00287  0.26413  0.03490  1.0000
  Fe  Fe8       1.0  0.11998  0.37826  0.01855  1.0000
  H   H35       1.0  0.11623  0.44331  0.34874  1.0000
  H   H36       1.0  0.06466  0.40436  0.34451  1.0000
  H   H37       1.0  0.10431  0.32329  0.29626  1.0000
  H   H38       1.0  0.16465  0.36419  0.41057  1.0000
  C   C32       1.0  0.00191  0.27864  0.48018  1.0000
  H   H39       1.0  0.11925  0.32122  0.13353  1.0000
  C   C33       1.0  0.98982  0.27826  0.99580  1.0000
  H   H40       1.0  0.16265  0.31954  0.18225  1.0000
  H   H41       1.0  0.01736  0.35206  0.03268  1.0000
  H   H42       1.0  0.21553  0.34148  0.07147  1.0000
  H   H43       1.0  0.07011  0.38803  0.22196  1.0000
  N   N2        1.0  0.13767  0.32891  0.18359  1.0000
  C   C34       1.0  0.11796  0.32237  0.16423  1.0000
  C   C35       1.0  0.14981  0.34887  0.16979  1.0000
  C   C36       1.0  0.14694  0.31469  0.17250  1.0000
  C   C37       1.0  0.13669  0.32982  0.22470  1.0000
  C   C38       1.0  0.15423  0.33495  0.24727  1.0000
  C   C39       1.0  0.11863  0.32575  0.24354  1.0000
  C   C40       1.0  0.15368  0.33557  0.28616  1.0000
  C   C41       1.0  0.11825  0.32636  0.28245  1.0000
  C   C42       1.0  0.13570  0.33123  0.30371  1.0000
  H   H44       1.0  0.11066  0.33319  0.16887  1.0000
  H   H45       1.0  0.02588  0.33181  0.07923  1.0000
  H   H46       1.0  0.22324  0.38259  0.31947  1.0000
  C   C43       1.0  0.02391  0.29335  0.02182  1.0000
  H   H47       1.0  0.99951  0.30295  0.10628  1.0000
  H   H48       1.0  0.18886  0.39307  0.03136  1.0000
  C   C44       1.0  0.18692  0.38107  0.01026  1.0000
  H   H49       1.0  0.22530  0.37902  0.99848  1.0000
  S   S14       1.0  0.13032  0.41036  0.47695  1.0000
  C   C45       1.0  0.00528  0.27737  0.01906  1.0000
  S   S15       1.0  0.22657  0.33688  0.99466  1.0000
  H   H50       1.0  0.17566  0.31772  0.46795  1.0000
  H   H51       1.0  0.03099  0.29303  0.45692  1.0000
  C   C46       1.0  0.02062  0.29427  0.47697  1.0000
  C   C47       1.0  0.18672  0.32934  0.99238  1.0000
  H   H52       1.0  0.98321  0.34413  0.01223  1.0000
  Fe  Fe9       1.0  0.14880  0.44401  0.77105  1.0000
  S   S16       1.0  0.13083  0.42043  0.81179  1.0000
  Fe  Fe10      1.0  0.14316  0.45207  0.68819  1.0000
  S   S17       1.0  0.11990  0.43786  0.64200  1.0000
  S   S18       1.0  0.15650  0.43283  0.71731  1.0000
  S   S19       1.0  0.13352  0.46175  0.74185  1.0000
  H   H53       1.0  0.01405  0.29474  0.86777  1.0000
  H   H54       1.0  0.09279  0.41180  0.58858  1.0000
  C   C48       1.0  0.13389  0.41637  0.85988  1.0000
  C   C49       1.0  0.11966  0.39979  0.87642  1.0000
  C   C50       1.0  0.12100  0.39613  0.91464  1.0000
  C   C51       1.0  0.13652  0.40918  0.93699  1.0000
  C   C52       1.0  0.15079  0.42578  0.92047  1.0000
  C   C53       1.0  0.14958  0.42931  0.88210  1.0000
  H   H55       1.0  0.10744  0.38967  0.85956  1.0000
  H   H56       1.0  0.10990  0.38331  0.92689  1.0000
  H   H57       1.0  0.16287  0.43597  0.93750  1.0000
  H   H58       1.0  0.16075  0.44201  0.86977  1.0000
  C   C54       1.0  0.12372  0.42963  0.59708  1.0000
  C   C55       1.0  0.14231  0.43636  0.58074  1.0000
  C   C56       1.0  0.14425  0.43012  0.54414  1.0000
  C   C57       1.0  0.12776  0.41672  0.52393  1.0000
  C   C58       1.0  0.10929  0.40966  0.54063  1.0000
  C   C59       1.0  0.10727  0.41640  0.57667  1.0000
  H   H59       1.0  0.15508  0.44675  0.59590  1.0000
  H   H60       1.0  0.15857  0.43585  0.53139  1.0000
  N   N3        1.0  0.07430  0.35492  0.60648  1.0000
  C   C60       1.0  0.06102  0.36417  0.59005  1.0000
  C   C61       1.0  0.08896  0.35533  0.57823  1.0000
  C   C62       1.0  0.06179  0.33386  0.61382  1.0000
  C   C63       1.0  0.08501  0.36514  0.64101  1.0000
  C   C64       1.0  0.09726  0.35729  0.66133  1.0000
  C   C65       1.0  0.08446  0.38343  0.65451  1.0000
  C   C66       1.0  0.10805  0.36701  0.69332  1.0000
  C   C67       1.0  0.09538  0.39304  0.68643  1.0000
  C   C68       1.0  0.10711  0.38487  0.70584  1.0000
  H   H61       1.0  0.06950  0.37945  0.58046  1.0000
  H   H62       1.0  0.05271  0.35572  0.56487  1.0000
  H   H63       1.0  0.04978  0.36463  0.61014  1.0000
  H   H64       1.0  0.09893  0.37088  0.57241  1.0000
  H   H65       1.0  0.08151  0.34828  0.55147  1.0000
  H   H66       1.0  0.09841  0.34713  0.58704  1.0000
  H   H67       1.0  0.05119  0.33286  0.63630  1.0000
  H   H68       1.0  0.05294  0.32613  0.58847  1.0000
  H   H69       1.0  0.07064  0.32495  0.62203  1.0000
  H   H70       1.0  0.09879  0.34370  0.65236  1.0000
  H   H71       1.0  0.07602  0.39089  0.64066  1.0000
  H   H72       1.0  0.11735  0.36081  0.70839  1.0000
  H   H73       1.0  0.09513  0.40724  0.69572  1.0000
  H   H74       1.0  0.11564  0.39254  0.73044  1.0000
  H   H75       1.0  0.14476  0.38502  0.57400  1.0000
  C   C69       1.0  0.04061  0.28447  0.93689  1.0000
  H   H76       1.0  0.20075  0.36393  0.95590  1.0000
  C   C70       1.0  0.00949  0.25657  0.92620  1.0000
  C   C71       1.0  0.00387  0.26661  0.89702  1.0000
  N   N4        1.0  0.17467  0.38130  0.53298  1.0000
  S   S20       1.0  0.17158  0.47909  0.68761  1.0000
  H   H77       1.0  0.21394  0.43041  0.95936  1.0000
  Fe  Fe11      1.0  0.16320  0.48733  0.74368  1.0000
  C   C72       1.0  0.99345  0.29672  0.52935  1.0000
  C   C73       1.0  0.01226  0.31225  0.52647  1.0000
  H   H78       1.0  0.01622  0.32515  0.54484  1.0000
  C   C74       1.0  0.15945  0.39392  0.58474  1.0000
  H   H79       1.0  0.14837  0.38494  0.51105  1.0000
  Fe  Fe12      1.0  0.18435  0.46028  0.72045  1.0000
  H   H80       1.0  0.17065  0.35544  0.56549  1.0000
  C   C75       1.0  0.22341  0.42295  0.96904  1.0000
  H   H81       1.0  0.21088  0.42828  0.62562  1.0000
  C   C76       1.0  0.02606  0.31112  0.50044  1.0000
  S   S21       1.0  0.17797  0.47005  0.77660  1.0000
  H   H82       1.0  0.14758  0.40570  0.62970  1.0000
  H   H83       1.0  0.21242  0.36175  0.85140  1.0000
  C   C77       1.0  0.98821  0.27964  0.50648  1.0000
  C   C78       1.0  0.17940  0.41805  0.63108  1.0000
  H   H84       1.0  0.14787  0.35717  0.54883  1.0000
  C   C79       1.0  0.19400  0.38274  0.51788  1.0000
  C   C80       1.0  0.99320  0.29558  0.97569  1.0000
  N   N5        1.0  0.12182  0.47305  0.85630  1.0000
  H   H85       1.0  0.14951  0.47103  0.87384  1.0000
  H   H86       1.0  0.18754  0.32643  0.96299  1.0000
  H   H87       1.0  0.12853  0.48398  0.91316  1.0000
  H   H88       1.0  0.10979  0.44104  0.84987  1.0000
  S   S22       1.0  0.21286  0.45848  0.70066  1.0000
  H   H89       1.0  0.08820  0.44878  0.81327  1.0000
  C   C81       1.0  0.18185  0.39994  0.95974  1.0000
  H   H90       1.0  0.19737  0.37873  0.91902  1.0000
  C   C82       1.0  0.19654  0.41852  0.61406  1.0000
  C   C83       1.0  0.16349  0.36013  0.54175  1.0000
  C   C84       1.0  0.16089  0.40571  0.61661  1.0000
  S   S23       1.0  0.05001  0.33081  0.49968  1.0000
  H   H91       1.0  0.04541  0.30982  0.90294  1.0000
  H   H92       1.0  0.99990  0.24213  0.93546  1.0000
  C   C85       1.0  0.02767  0.26542  0.94555  1.0000
  H   H93       1.0  0.11781  0.44974  0.89604  1.0000
  N   N6        1.0  0.19458  0.38950  0.97373  1.0000
  H   H94       1.0  0.05431  0.29159  0.95302  1.0000
  H   H95       1.0  0.18054  0.42746  0.65537  1.0000
  C   C86       1.0  0.22594  0.37057  0.86673  1.0000
  C   C87       1.0  0.23078  0.36348  0.89988  1.0000
  C   C88       1.0  0.03553  0.29474  0.90864  1.0000
  H   H96       1.0  0.22116  0.34924  0.91043  1.0000
  H   H97       1.0  0.20923  0.40792  0.57055  1.0000
  H   H98       1.0  0.03142  0.25776  0.96842  1.0000
  C   C89       1.0  0.01191  0.31141  0.97800  1.0000
  C   C90       1.0  0.21586  0.40243  0.97791  1.0000
  H   H99       1.0  0.99697  0.24924  0.82915  1.0000
  C   C91       1.0  0.19217  0.37297  0.94701  1.0000
  C   C92       1.0  0.01749  0.28598  0.88884  1.0000
  H   H100      1.0  0.09639  0.39974  0.52509  1.0000
  H   H101      1.0  0.21992  0.46905  0.77962  1.0000
  C   C93       1.0  0.19532  0.40670  0.58232  1.0000
  H   H102      1.0  0.18628  0.40631  0.93183  1.0000
  H   H103      1.0  0.17639  0.36254  0.94398  1.0000
  H   H104      1.0  0.09523  0.45104  0.87788  1.0000
  S   S24       1.0  0.13872  0.40546  0.98549  1.0000
  C   C94       1.0  0.17663  0.39398  0.56664  1.0000
  H   H105      1.0  0.16603  0.38961  0.95652  1.0000
  H   H106      1.0  0.20293  0.37812  0.53858  1.0000
  H   H107      1.0  0.16266  0.35003  0.51760  1.0000
  H   H108      1.0  0.98321  0.29774  0.54988  1.0000
  C   C95       1.0  0.11058  0.45288  0.87056  1.0000
  H   H109      1.0  0.01437  0.32460  0.96200  1.0000
  N   N7        1.0  0.98449  0.25804  0.87665  1.0000
  H   H110      1.0  0.19199  0.37280  0.49304  1.0000
  C   C96       1.0  0.98747  0.25770  0.83596  1.0000
  H   H111      1.0  0.99447  0.27285  0.82466  1.0000
  H   H112      1.0  0.20284  0.39806  0.50868  1.0000
  C   C97       1.0  0.16368  0.38713  0.50315  1.0000
  H   H113      1.0  0.15525  0.32311  0.98929  1.0000
  C   C98       1.0  0.22983  0.39448  0.99101  1.0000
  C   C99       1.0  0.08814  0.46843  0.77043  1.0000
  H   H114      1.0  0.18198  0.41198  0.97942  1.0000
  H   H115      1.0  0.14186  0.46329  0.82656  1.0000
  H   H116      1.0  0.17120  0.40313  0.49640  1.0000
  C   C100      1.0  0.11286  0.47767  0.82202  1.0000
  C   C101      1.0  0.09576  0.46365  0.80339  1.0000
  C   C102      1.0  0.14217  0.47427  0.84869  1.0000
  H   H117      1.0  0.07529  0.45745  0.75632  1.0000
  H   H118      1.0  0.10804  0.48814  0.89114  1.0000
  C   C103      1.0  0.09725  0.48711  0.75504  1.0000
  C   C104      1.0  0.12292  0.48769  0.88633  1.0000
  H   H119      1.0  0.15195  0.48920  0.83911  1.0000
  H   H120      1.0  0.11362  0.75610  0.19636  1.0000
  C   C105      1.0  0.03680  0.69045  0.48272  1.0000
  S   S25       1.0  0.09347  0.68270  0.03309  1.0000
  H   H121      1.0  0.17130  0.78988  0.13068  1.0000
  Fe  Fe13      1.0  0.12870  0.73807  0.01993  1.0000
  S   S26       1.0  0.13820  0.71637  0.05104  1.0000
  Fe  Fe14      1.0  0.12254  0.69516  0.00338  1.0000
  C   C106      1.0  0.01926  0.72406  0.45787  1.0000
  Fe  Fe15      1.0  0.10818  0.70644  0.07755  1.0000
  S   S27       1.0  0.09702  0.70410  0.13735  1.0000
  S   S28       1.0  0.09944  0.72923  0.04823  1.0000
  H   H122      1.0  0.06209  0.65650  0.45521  1.0000
  Fe  Fe16      1.0  0.12744  0.74062  0.42604  1.0000
  S   S29       1.0  0.14483  0.72223  0.40886  1.0000
  S   S30       1.0  0.14010  0.77341  0.44458  1.0000
  Fe  Fe17      1.0  0.08718  0.70570  0.41354  1.0000
  S   S31       1.0  0.10222  0.68548  0.39405  1.0000
  S   S32       1.0  0.05308  0.69295  0.41209  1.0000
  Fe  Fe18      1.0  0.12334  0.69817  0.44309  1.0000
  Fe  Fe19      1.0  0.12214  0.71123  0.36122  1.0000
  S   S33       1.0  0.13412  0.71007  0.30285  1.0000
  H   H123      1.0  0.22786  0.80999  0.17763  1.0000
  S   S34       1.0  0.10576  0.73076  0.37708  1.0000
  C   C107      1.0  0.03406  0.68375  0.44551  1.0000
  C   C108      1.0  0.01516  0.67033  0.43351  1.0000
  H   H124      1.0  0.01276  0.66512  0.40480  1.0000
  C   C109      1.0  0.20613  0.81503  0.43589  1.0000
  H   H125      1.0  0.20593  0.83422  0.01865  1.0000
  S   S35       1.0  0.10735  0.71725  0.46373  1.0000
  C   C110      1.0  0.16561  0.78919  0.44081  1.0000
  C   C111      1.0  0.17973  0.78186  0.42858  1.0000
  C   C112      1.0  0.19980  0.79468  0.42628  1.0000
  C   C113      1.0  0.15542  0.78785  0.12833  1.0000
  H   H126      1.0  0.00991  0.67251  0.03813  1.0000
  C   C114      1.0  0.05294  0.74721  0.47566  1.0000
  H   H127      1.0  0.17236  0.81145  0.99636  1.0000
  C   C115      1.0  0.10781  0.70584  0.18303  1.0000
  C   C116      1.0  0.12752  0.70792  0.18935  1.0000
  C   C117      1.0  0.13521  0.70907  0.22612  1.0000
  C   C118      1.0  0.12339  0.70823  0.25711  1.0000
  C   C119      1.0  0.10371  0.70626  0.25075  1.0000
  C   C120      1.0  0.09600  0.70507  0.21398  1.0000
  H   H128      1.0  0.13680  0.70837  0.16603  1.0000
  H   H129      1.0  0.15045  0.71060  0.23066  1.0000
  H   H130      1.0  0.09441  0.70558  0.27418  1.0000
  H   H131      1.0  0.08073  0.70343  0.20958  1.0000
  H   H132      1.0  0.11994  0.76813  0.09865  1.0000
  C   C121      1.0  0.13192  0.75635  0.24282  1.0000
  H   H133      1.0  0.08713  0.67013  0.46927  1.0000
  C   C122      1.0  0.21090  0.81247  0.05315  1.0000
  C   C123      1.0  0.19994  0.81902  0.02784  1.0000
  H   H134      1.0  0.09616  0.75997  0.42677  1.0000
  C   C124      1.0  0.17257  0.78625  0.02720  1.0000
  C   C125      1.0  0.18378  0.77953  0.05167  1.0000
  C   C126      1.0  0.16379  0.76793  0.19502  1.0000
  H   H135      1.0  0.00921  0.71350  0.43791  1.0000
  C   C127      1.0  0.07968  0.77935  0.46965  1.0000
  S   S36       1.0  0.12702  0.67489  0.48159  1.0000
  H   H136      1.0  0.09564  0.78749  0.46341  1.0000
  H   H137      1.0  0.21100  0.78735  0.08438  1.0000
  C   C128      1.0  0.20264  0.79265  0.06500  1.0000
  N   N8        1.0  0.03608  0.68730  0.09811  1.0000
  C   C129      1.0  0.03416  0.70453  0.07885  1.0000
  C   C130      1.0  0.04371  0.69408  0.13666  1.0000
  C   C131      1.0  0.05107  0.68173  0.07899  1.0000
  C   C132      1.0  0.01700  0.66992  0.09683  1.0000
  C   C133      1.0  0.01008  0.65736  0.12777  1.0000
  S   S37       1.0  0.14788  0.77100  0.01216  1.0000
  H   H138      1.0  0.13886  0.62290  0.48519  1.0000
  Fe  Fe20      1.0  0.08603  0.70592  0.00300  1.0000
  H   H139      1.0  0.15687  0.65641  0.46098  1.0000
  H   H140      1.0  0.02138  0.70775  0.08931  1.0000
  H   H141      1.0  0.04777  0.71826  0.08267  1.0000
  H   H142      1.0  0.03225  0.70220  0.04811  1.0000
  H   H143      1.0  0.03243  0.69707  0.15344  1.0000
  H   H144      1.0  0.05729  0.70797  0.13693  1.0000
  H   H145      1.0  0.04852  0.68312  0.15118  1.0000
  H   H146      1.0  0.04675  0.67741  0.04939  1.0000
  H   H147      1.0  0.06569  0.69433  0.07927  1.0000
  H   H148      1.0  0.05327  0.66899  0.09258  1.0000
  H   H149      1.0  0.01817  0.66005  0.15409  1.0000
  N   N9        1.0  0.07430  0.75751  0.46824  1.0000
  C   C134      1.0  0.07996  0.75226  0.43131  1.0000
  H   H150      1.0  0.07218  0.75661  0.40811  1.0000
  H   H151      1.0  0.16207  0.75390  0.12301  1.0000
  H   H152      1.0  0.18130  0.76655  0.24342  1.0000
  H   H153      1.0  0.03560  0.63108  0.47351  1.0000
  C   C135      1.0  0.12877  0.75922  0.20517  1.0000
  C   C136      1.0  0.14651  0.75262  0.11838  1.0000
  H   H154      1.0  0.16120  0.81542  0.46015  1.0000
  C   C137      1.0  0.12136  0.76562  0.12896  1.0000
  H   H155      1.0  0.13670  0.73733  0.12625  1.0000
  H   H156      1.0  0.15332  0.79976  0.14545  1.0000
  C   C138      1.0  0.19204  0.82242  0.44808  1.0000
  H   H157      1.0  0.11681  0.77655  0.14428  1.0000
  H   H158      1.0  0.07065  0.78385  0.44897  1.0000
  C   C139      1.0  0.17193  0.80955  0.45061  1.0000
  H   H159      1.0  0.98471  0.65365  0.44820  1.0000
  H   H160      1.0  0.06843  0.67930  0.48116  1.0000
  H   H161      1.0  0.21050  0.78875  0.41672  1.0000
  C   C140      1.0  0.98775  0.64746  0.06116  1.0000
  H   H162      1.0  0.15295  0.75604  0.28544  1.0000
  H   H163      1.0  0.11953  0.75122  0.26138  1.0000
  H   H164      1.0  0.17519  0.76630  0.42092  1.0000
  C   C141      1.0  0.99918  0.66377  0.45809  1.0000
  C   C142      1.0  0.16672  0.76486  0.23266  1.0000
  C   C143      1.0  0.15080  0.75905  0.25649  1.0000
  H   H165      1.0  0.11053  0.75027  0.13398  1.0000
  N   N10       1.0  0.14190  0.76781  0.13980  1.0000
  C   C144      1.0  0.03915  0.73415  0.44925  1.0000
  H   H166      1.0  0.15285  0.79055  0.09850  1.0000
  H   H167      1.0  0.17794  0.76428  0.06045  1.0000
  C   C145      1.0  0.14471  0.76522  0.18007  1.0000
  H   H168      1.0  0.17651  0.77199  0.17748  1.0000
  C   C146      1.0  0.18084  0.80604  0.01530  1.0000
  H   H169      1.0  0.14442  0.75404  0.08793  1.0000
  C   C147      1.0  0.99238  0.64059  0.12532  1.0000
  H   H170      1.0  0.00091  0.61963  0.49086  1.0000
  H   H171      1.0  0.04341  0.73083  0.42212  1.0000
  C   C148      1.0  0.00538  0.66426  0.06331  1.0000
  H   H172      1.0  0.98735  0.63120  0.14921  1.0000
  C   C149      1.0  0.16251  0.65155  0.48560  1.0000
  H   H173      1.0  0.19662  0.83801  0.45565  1.0000
  H   H174      1.0  0.07658  0.73600  0.42868  1.0000
  H   H175      1.0  0.06564  0.62738  0.48621  1.0000
  C   C150      1.0  0.07161  0.66558  0.47850  1.0000
  H   H176      1.0  0.10252  0.75848  0.49050  1.0000
  H   H177      1.0  0.04254  0.65791  0.99200  1.0000
  H   H178      1.0  0.20142  0.75642  0.85356  1.0000
  H   H179      1.0  0.21464  0.64951  0.57835  1.0000
  H   H180      1.0  0.04277  0.67637  0.87548  1.0000
  S   S38       1.0  0.16909  0.51824  0.76947  1.0000
  Fe  Fe21      1.0  0.16323  0.66140  0.76210  1.0000
  S   S39       1.0  0.18571  0.64843  0.77921  1.0000
  S   S40       1.0  0.14119  0.66858  0.79801  1.0000
  Fe  Fe22      1.0  0.17919  0.67048  0.68268  1.0000
  S   S41       1.0  0.20309  0.65863  0.69502  1.0000
  S   S42       1.0  0.18098  0.68744  0.62879  1.0000
  Fe  Fe23      1.0  0.17934  0.63299  0.72244  1.0000
  S   S43       1.0  0.17636  0.60186  0.70059  1.0000
  Fe  Fe24      1.0  0.20744  0.67481  0.74995  1.0000
  C   C151      1.0  0.08274  0.66864  0.54221  1.0000
  S   S44       1.0  0.15512  0.64427  0.70708  1.0000
  S   S45       1.0  0.18534  0.68838  0.73610  1.0000
  H   H181      1.0  0.16149  0.70866  0.51035  1.0000
  C   C152      1.0  0.02181  0.64657  0.56908  1.0000
  C   C153      1.0  0.01588  0.68316  0.95489  1.0000
  H   H182      1.0  0.07312  0.69165  0.90506  1.0000
  C   C154      1.0  0.15235  0.63269  0.49941  1.0000
  H   H183      1.0  0.02011  0.74140  0.54613  1.0000
  H   H184      1.0  0.02289  0.68992  0.53544  1.0000
  H   H185      1.0  0.09020  0.64192  0.50268  1.0000
  H   H186      1.0  0.16891  0.74804  0.95331  1.0000
  H   H187      1.0  0.05068  0.62265  0.91097  1.0000
  C   C155      1.0  0.18524  0.75388  0.90266  1.0000
  H   H188      1.0  0.16985  0.71450  0.95997  1.0000
  C   C156      1.0  0.00906  0.62989  0.88530  1.0000
  C   C157      1.0  0.04538  0.74986  0.51058  1.0000
  H   H189      1.0  0.19118  0.60835  0.60478  1.0000
  C   C158      1.0  0.14234  0.67185  0.84712  1.0000
  C   C159      1.0  0.14760  0.65937  0.87076  1.0000
  C   C160      1.0  0.14593  0.66087  0.90962  1.0000
  C   C161      1.0  0.13912  0.67490  0.92525  1.0000
  C   C162      1.0  0.13473  0.68795  0.90168  1.0000
  C   C163      1.0  0.13619  0.68633  0.86284  1.0000
  H   H190      1.0  0.15223  0.64807  0.85902  1.0000
  H   H191      1.0  0.14950  0.65077  0.92761  1.0000
  H   H192      1.0  0.13006  0.69921  0.91328  1.0000
  H   H193      1.0  0.13223  0.69616  0.84481  1.0000
  C   C164      1.0  0.16418  0.68460  0.59054  1.0000
  C   C165      1.0  0.14690  0.66760  0.58494  1.0000
  C   C166      1.0  0.13537  0.66509  0.55186  1.0000
  C   C167      1.0  0.14057  0.67982  0.52466  1.0000
  C   C168      1.0  0.15724  0.69726  0.53112  1.0000
  C   C169      1.0  0.16910  0.69949  0.56366  1.0000
  H   H194      1.0  0.14264  0.65617  0.60558  1.0000
  H   H195      1.0  0.12257  0.65150  0.54706  1.0000
  C   C170      1.0  0.19479  0.74665  0.87609  1.0000
  H   H196      1.0  0.18239  0.71272  0.56775  1.0000
  C   C171      1.0  0.17026  0.54112  0.74976  1.0000
  C   C172      1.0  0.17378  0.55779  0.77346  1.0000
  C   C173      1.0  0.17530  0.57636  0.75917  1.0000
  C   C174      1.0  0.17343  0.57857  0.72081  1.0000
  C   C175      1.0  0.16989  0.56187  0.69712  1.0000
  C   C176      1.0  0.16822  0.54327  0.71143  1.0000
  H   H197      1.0  0.17546  0.55641  0.80315  1.0000
  H   H198      1.0  0.17814  0.58902  0.77781  1.0000
  H   H199      1.0  0.16844  0.56333  0.66741  1.0000
  H   H200      1.0  0.16549  0.53065  0.69275  1.0000
  S   S46       1.0  0.11439  0.71730  0.97112  1.0000
  H   H201      1.0  0.01482  0.60470  0.90444  1.0000
  H   H202      1.0  0.07197  0.66839  0.95497  1.0000
  N   N11       1.0  0.07243  0.66188  0.89664  1.0000
  C   C177      1.0  0.07932  0.68315  0.88642  1.0000
  H   H203      1.0  0.19890  0.66999  0.55120  1.0000
  H   H204      1.0  0.21769  0.70503  0.89325  1.0000
  H   H205      1.0  0.08170  0.73582  0.49857  1.0000
  H   H206      1.0  0.19935  0.69379  0.81540  1.0000
  H   H207      1.0  0.07948  0.63653  0.88000  1.0000
  H   H208      1.0  0.05490  0.75967  0.53191  1.0000
  C   C178      1.0  0.05064  0.65129  0.89310  1.0000
  H   H209      1.0  0.99174  0.62929  0.55169  1.0000
  C   C179      1.0  0.04177  0.65353  0.55966  1.0000
  H   H210      1.0  0.07950  0.68228  0.54687  1.0000
  C   C180      1.0  0.18629  0.65878  0.53716  1.0000
  C   C181      1.0  0.08227  0.65205  0.87198  1.0000
  H   H211      1.0  0.22830  0.78641  0.52031  1.0000
  H   H212      1.0  0.05221  0.66308  0.58007  1.0000
  H   H213      1.0  0.07737  0.78480  0.49751  1.0000
  H   H214      1.0  0.09574  0.69064  0.88913  1.0000
  H   H215      1.0  0.07523  0.68482  0.85701  1.0000
  C   C182      1.0  0.15917  0.62670  0.53198  1.0000
  C   C183      1.0  0.04767  0.64829  0.52485  1.0000
  H   H216      1.0  0.09554  0.66927  0.93939  1.0000
  H   H217      1.0  0.99720  0.71809  0.49968  1.0000
  C   C184      1.0  0.00177  0.67090  0.49496  1.0000
  C   C185      1.0  0.02073  0.68418  0.50709  1.0000
  C   C186      1.0  0.01718  0.65003  0.87726  1.0000
  C   C187      1.0  0.02133  0.62029  0.89745  1.0000
  H   H218      1.0  0.21362  0.58064  0.71562  1.0000
  C   C188      1.0  0.17693  0.72353  0.93660  1.0000
  H   H219      1.0  0.19467  0.61356  0.55589  1.0000
  C   C189      1.0  0.18498  0.61311  0.57968  1.0000
  H   H220      1.0  0.09864  0.65988  0.87294  1.0000
  H   H221      1.0  0.17032  0.60101  0.57399  1.0000
  N   N12       1.0  0.18349  0.63276  0.58600  1.0000
  C   C190      1.0  0.20326  0.64673  0.59998  1.0000
  C   C191      1.0  0.17658  0.63943  0.55152  1.0000
  H   H222      1.0  0.20858  0.64083  0.62467  1.0000
  C   C192      1.0  0.03763  0.66070  0.88123  1.0000
  H   H223      1.0  0.00993  0.63011  0.98339  1.0000
  C   C193      1.0  0.12159  0.49662  0.80573  1.0000
  H   H224      1.0  0.13312  0.50301  0.87979  1.0000
  H   H225      1.0  0.99311  0.62187  0.88329  1.0000
  H   H226      1.0  0.22198  0.50275  0.78880  1.0000
  H   H227      1.0  0.00744  0.65754  0.86901  1.0000
  H   H228      1.0  0.08524  0.75808  0.52505  1.0000
  C   C194      1.0  0.03235  0.63566  0.50047  1.0000
  H   H229      1.0  0.20282  0.66126  0.60934  1.0000
  C   C195      1.0  0.04181  0.63075  0.90130  1.0000
  C   C196      1.0  0.01245  0.62883  0.51022  1.0000
  C   C197      1.0  0.16909  0.63080  0.61561  1.0000
  H   H230      1.0  0.17356  0.62555  0.64192  1.0000
  H   H231      1.0  0.17901  0.70168  0.82213  1.0000
  H   H232      1.0  0.20982  0.52001  0.79422  1.0000
  C   C198      1.0  0.01248  0.72659  0.49274  1.0000
  C   C199      1.0  0.01151  0.64494  0.97541  1.0000
  H   H233      1.0  0.18638  0.70141  0.91449  1.0000
  H   H234      1.0  0.07593  0.64587  0.94508  1.0000
  C   C200      1.0  0.19563  0.72745  0.87906  1.0000
  H   H235      1.0  0.20192  0.51432  0.72732  1.0000
  H   H236      1.0  0.15395  0.62012  0.60778  1.0000
  H   H237      1.0  0.16802  0.64534  0.62214  1.0000
  C   C201      1.0  0.07920  0.66125  0.93566  1.0000
  N   N13       1.0  0.20595  0.71941  0.85198  1.0000
  C   C202      1.0  0.03011  0.66076  0.98028  1.0000
  S   S47       1.0  0.05539  0.70091  0.97668  1.0000
  H   H238      1.0  0.07714  0.65169  0.84246  1.0000
  C   C203      1.0  0.99495  0.64802  0.96003  1.0000
  H   H239      1.0  0.09832  0.67385  0.53298  1.0000
  C   C204      1.0  0.22274  0.71626  0.87114  1.0000
  H   H240      1.0  0.08249  0.66124  0.56923  1.0000
  C   C205      1.0  0.22335  0.57558  0.73224  1.0000
  H   H241      1.0  0.01746  0.65100  0.59535  1.0000
  C   C206      1.0  0.99729  0.66730  0.94983  1.0000
  H   H242      1.0  0.01741  0.69798  0.94692  1.0000
  H   H243      1.0  0.22138  0.72594  0.80002  1.0000
  C   C207      1.0  0.18641  0.71614  0.91023  1.0000
  H   H244      1.0  0.18477  0.76857  0.89997  1.0000
  C   C208      1.0  0.17631  0.74235  0.93281  1.0000
  H   H245      1.0  0.07162  0.62858  0.53521  1.0000
  C   C209      1.0  0.00722  0.63422  0.54450  1.0000
  C   C210      1.0  0.21722  0.51507  0.72239  1.0000
  S   S48       1.0  0.13583  0.67527  0.97407  1.0000
  H   H246      1.0  0.22563  0.74715  0.82947  1.0000
  C   C211      1.0  0.19207  0.70006  0.83623  1.0000
  H   H247      1.0  0.20975  0.54610  0.71140  1.0000
  C   C212      1.0  0.02547  0.73958  0.51896  1.0000
  C   C213      1.0  0.21408  0.73265  0.82015  1.0000
  H   H248      1.0  0.20214  0.73535  0.80403  1.0000
  H   H249      1.0  0.12132  0.51559  0.76033  1.0000
  C   C214      1.0  0.03244  0.68007  0.97019  1.0000
  H   H250      1.0  0.98477  0.66999  0.93801  1.0000
  C   C215      1.0  0.22427  0.51877  0.78808  1.0000
  H   H251      1.0  0.13478  0.50798  0.81785  1.0000
  C   C216      1.0  0.11394  0.50117  0.77268  1.0000
  N   N14       1.0  0.06869  0.65496  0.51420  1.0000
  C   C217      1.0  0.08640  0.75226  0.49686  1.0000
  H   H252      1.0  0.18644  0.68853  0.85759  1.0000
  C   C218      1.0  0.17936  0.66458  0.50453  1.0000
  C   C219      1.0  0.22134  0.55566  0.73003  1.0000
  C   C220      1.0  0.07423  0.63742  0.50940  1.0000
  H   H253      1.0  0.22161  0.52088  0.69409  1.0000
  H   H254      1.0  0.15043  0.61218  0.54217  1.0000
  H   H255      1.0  0.21631  0.49939  0.72202  1.0000
  H   H256      1.0  0.09153  0.49062  0.72913  1.0000
  H   H257      1.0  0.18665  0.67958  0.49459  1.0000
  H   H258      1.0  0.23124  0.71076  0.85138  1.0000
  N   N15       1.0  0.23149  0.52741  0.75153  1.0000
  H   H259      1.0  0.05100  0.70116  0.49236  1.0000
  C   C221      1.0  0.30268  0.99102  0.41706  1.0000
  H   H260      1.0  0.42575  0.07272  0.13334  1.0000
  H   H261      1.0  0.37496  0.15116  0.41187  1.0000
  C   C222      1.0  0.40421  0.30089  0.46534  1.0000
  Fe  Fe25      1.0  0.29391  0.38455  0.02751  1.0000
  H   H262      1.0  0.46475  0.32244  0.04062  1.0000
  Fe  Fe26      1.0  0.28243  0.35758  0.09662  1.0000
  S   S49       1.0  0.27100  0.32983  0.05973  1.0000
  S   S50       1.0  0.27749  0.34901  0.15811  1.0000
  Fe  Fe27      1.0  0.29861  0.34440  0.02708  1.0000
  C   C223      1.0  0.31287  0.29335  0.01410  1.0000
  Fe  Fe28      1.0  0.25680  0.34676  0.02474  1.0000
  H   H263      1.0  0.44240  0.25179  0.36193  1.0000
  S   S51       1.0  0.31077  0.37142  0.06532  1.0000
  S   S52       1.0  0.26666  0.37353  0.06286  1.0000
  H   H264      1.0  0.43872  0.22690  0.37483  1.0000
  H   H265      1.0  0.41578  0.07396  0.06731  1.0000
  C   C224      1.0  0.33042  0.05217  0.44901  1.0000
  Fe  Fe29      1.0  0.30471  0.38530  0.46514  1.0000
  H   H266      1.0  0.40734  0.12026  0.46654  1.0000
  Fe  Fe30      1.0  0.29847  0.37116  0.38128  1.0000
  S   S53       1.0  0.27143  0.34434  0.39391  1.0000
  S   S54       1.0  0.31010  0.38173  0.32306  1.0000
  Fe  Fe31      1.0  0.26246  0.36505  0.43007  1.0000
  C   C225      1.0  0.43753  0.32432  0.46026  1.0000
  Fe  Fe32      1.0  0.28918  0.34142  0.44469  1.0000
  C   C226      1.0  0.41147  0.35793  0.39711  1.0000
  S   S55       1.0  0.28916  0.39211  0.41570  1.0000
  S   S56       1.0  0.31678  0.36684  0.42954  1.0000
  H   H267      1.0  0.39435  0.15441  0.35630  1.0000
  C   C227      1.0  0.31136  0.01115  0.42755  1.0000
  C   C228      1.0  0.38112  0.34422  0.43064  1.0000
  H   H268      1.0  0.45783  0.15000  0.18499  1.0000
  C   C229      1.0  0.42833  0.13428  0.10700  1.0000
  H   H269      1.0  0.23953  0.35864  0.32732  1.0000
  S   S57       1.0  0.46505  0.12791  0.25520  1.0000
  C   C230      1.0  0.28755  0.35832  0.20339  1.0000
  C   C231      1.0  0.30165  0.37755  0.20980  1.0000
  C   C232      1.0  0.30854  0.38431  0.24648  1.0000
  C   C233      1.0  0.30139  0.37205  0.27725  1.0000
  C   C234      1.0  0.28754  0.35271  0.27070  1.0000
  C   C235      1.0  0.28072  0.34592  0.23406  1.0000
  H   H270      1.0  0.30704  0.38733  0.18664  1.0000
  H   H271      1.0  0.31933  0.39927  0.25110  1.0000
  H   H272      1.0  0.28209  0.34295  0.29388  1.0000
  H   H273      1.0  0.26988  0.33098  0.22951  1.0000
  S   S58       1.0  0.45401  0.30200  0.32701  1.0000
  H   H274      1.0  0.44307  0.31493  0.47808  1.0000
  C   C236      1.0  0.40210  0.14602  0.05432  1.0000
  S   S59       1.0  0.37908  0.06855  0.99833  1.0000
  H   H275      1.0  0.25243  0.41425  0.25250  1.0000
  H   H276      1.0  0.39461  0.14669  0.02726  1.0000
  H   H277      1.0  0.41045  0.29125  0.48064  1.0000
  C   C237      1.0  0.45808  0.29078  0.11294  1.0000
  C   C238      1.0  0.44291  0.27415  0.09639  1.0000
  C   C239      1.0  0.43570  0.27480  0.05994  1.0000
  C   C240      1.0  0.44344  0.29223  0.03963  1.0000
  C   C241      1.0  0.45860  0.30891  0.05614  1.0000
  C   C242      1.0  0.25413  0.37131  0.32824  1.0000
  H   H278      1.0  0.43669  0.26062  0.11191  1.0000
  H   H279      1.0  0.42419  0.26179  0.04758  1.0000
  H   H280      1.0  0.34130  0.04552  0.45780  1.0000
  C   C243      1.0  0.45013  0.29254  0.37263  1.0000
  C   C244      1.0  0.46192  0.28785  0.43428  1.0000
  C   C245      1.0  0.44234  0.27805  0.44584  1.0000
  C   C246      1.0  0.42670  0.27501  0.42024  1.0000
  C   C247      1.0  0.43057  0.28257  0.38410  1.0000
  H   H281      1.0  0.41160  0.26699  0.42840  1.0000
  H   H282      1.0  0.41832  0.28050  0.36475  1.0000
  C   C248      1.0  0.45201  0.10122  0.39357  1.0000
  C   C249      1.0  0.43416  0.08721  0.40650  1.0000
  C   C250      1.0  0.42868  0.08774  0.44378  1.0000
  C   C251      1.0  0.44112  0.10219  0.46884  1.0000
  C   C252      1.0  0.45916  0.11599  0.45612  1.0000
  C   C253      1.0  0.46457  0.11558  0.41868  1.0000
  H   H283      1.0  0.42437  0.07596  0.38743  1.0000
  H   H284      1.0  0.41486  0.07690  0.45316  1.0000
  H   H285      1.0  0.40025  0.32910  0.05788  1.0000
  C   C254      1.0  0.45434  0.09648  0.12944  1.0000
  C   C255      1.0  0.46712  0.11041  0.10579  1.0000
  C   C256      1.0  0.46178  0.11048  0.06783  1.0000
  C   C257      1.0  0.44347  0.09700  0.05336  1.0000
  C   C258      1.0  0.43015  0.08403  0.07761  1.0000
  C   C259      1.0  0.43574  0.08351  0.11523  1.0000
  H   H286      1.0  0.41796  0.12044  0.09500  1.0000
  C   C260      1.0  0.28308  0.00730  0.46540  1.0000
  H   H287      1.0  0.27792  0.40746  0.34267  1.0000
  H   H288      1.0  0.46958  0.21034  0.30493  1.0000
  C   C261      1.0  0.38938  0.33327  0.45219  1.0000
  H   H289      1.0  0.24177  0.37449  0.15864  1.0000
  H   H290      1.0  0.44467  0.22372  0.30497  1.0000
  H   H291      1.0  0.43321  0.11947  0.15578  1.0000
  H   H292      1.0  0.33670  0.06798  0.45920  1.0000
  N   N16       1.0  0.25364  0.38852  0.30697  1.0000
  H   H293      1.0  0.46895  0.12714  0.47534  1.0000
  H   H294      1.0  0.44783  0.01263  0.01467  1.0000
  H   H295      1.0  0.42710  0.12296  0.41179  1.0000
  H   H296      1.0  0.45563  0.15000  0.32966  1.0000
  H   H297      1.0  0.45073  0.13803  0.37267  1.0000
  H   H298      1.0  0.47765  0.32109  0.10487  1.0000
  N   N17       1.0  0.46584  0.24208  0.34628  1.0000
  H   H299      1.0  0.44721  0.17850  0.02951  1.0000
  H   H300      1.0  0.45072  0.16264  0.36963  1.0000
  C   C262      1.0  0.40897  0.33426  0.44687  1.0000
  C   C263      1.0  0.31040  0.28811  0.48593  1.0000
  C   C264      1.0  0.32934  0.32346  0.49026  1.0000
  H   H301      1.0  0.45682  0.04645  0.14155  1.0000
  H   H302      1.0  0.38825  0.31386  0.01812  1.0000
  C   C265      1.0  0.46002  0.05080  0.11290  1.0000
  C   C266      1.0  0.41645  0.03707  0.02219  1.0000
  H   H303      1.0  0.45209  0.18427  0.09355  1.0000
  C   C267      1.0  0.46583  0.29498  0.39781  1.0000
  H   H304      1.0  0.32586  0.01933  0.41686  1.0000
  H   H305      1.0  0.38091  0.13389  0.46682  1.0000
  H   H306      1.0  0.42529  0.16787  0.32489  1.0000
  C   C268      1.0  0.42824  0.13911  0.02453  1.0000
  N   N18       1.0  0.31056  0.04113  0.46436  1.0000
  C   C269      1.0  0.27326  0.40499  0.31270  1.0000
  C   C270      1.0  0.41606  0.12949  0.41070  1.0000
  C   C271      1.0  0.38987  0.13550  0.44246  1.0000
  Fe  Fe33      1.0  0.47965  0.11942  0.30389  1.0000
  C   C272      1.0  0.46598  0.30818  0.09254  1.0000
  C   C273      1.0  0.41306  0.13910  0.37832  1.0000
  H   H307      1.0  0.29682  0.27578  0.47821  1.0000
  H   H308      1.0  0.26044  0.39980  0.00434  1.0000
  H   H309      1.0  0.39528  0.13034  0.06328  1.0000
  N   N19       1.0  0.43595  0.03561  0.01638  1.0000
  H   H310      1.0  0.47840  0.12639  0.40926  1.0000
  C   C274      1.0  0.42162  0.15229  0.31479  1.0000
  C   C275      1.0  0.44634  0.14805  0.35467  1.0000
  C   C276      1.0  0.41931  0.11936  0.32933  1.0000
  H   H311      1.0  0.30386  0.06758  0.46048  1.0000
  H   H312      1.0  0.32980  0.05249  0.41811  1.0000
  H   H313      1.0  0.40340  0.11280  0.32038  1.0000
  H   H314      1.0  0.42842  0.11891  0.30507  1.0000
  H   H315      1.0  0.42164  0.10917  0.35008  1.0000
  H   H316      1.0  0.47669  0.27373  0.33763  1.0000
  H   H317      1.0  0.37644  0.27842  0.02005  1.0000
  C   C277      1.0  0.45087  0.15070  0.15834  1.0000
  H   H318      1.0  0.30590  0.26176  0.01871  1.0000
  C   C278      1.0  0.31167  0.30770  0.48021  1.0000
  H   H319      1.0  0.27344  0.41941  0.30251  1.0000
  H   H320      1.0  0.28267  0.04525  0.46579  1.0000
  H   H321      1.0  0.40314  0.33351  0.17136  1.0000
  H   H322      1.0  0.43121  0.15299  0.29060  1.0000
  H   H323      1.0  0.42617  0.00688  0.04239  1.0000
  S   S60       1.0  0.46576  0.28900  0.15962  1.0000
  H   H324      1.0  0.40609  0.14612  0.30352  1.0000
  C   C279      1.0  0.24337  0.37709  0.18854  1.0000
  C   C280      1.0  0.38653  0.14515  0.41129  1.0000
  N   N20       1.0  0.38757  0.29763  0.06847  1.0000
  C   C281      1.0  0.38446  0.27909  0.04705  1.0000
  C   C282      1.0  0.36794  0.29799  0.07774  1.0000
  C   C283      1.0  0.39744  0.31456  0.04368  1.0000
  C   C284      1.0  0.39916  0.29813  0.10311  1.0000
  C   C285      1.0  0.41849  0.31267  0.11053  1.0000
  C   C286      1.0  0.39129  0.28342  0.13037  1.0000
  C   C287      1.0  0.42905  0.31248  0.14341  1.0000
  C   C288      1.0  0.40208  0.28329  0.16296  1.0000
  C   C289      1.0  0.42094  0.29777  0.16941  1.0000
  H   H325      1.0  0.37561  0.26547  0.06211  1.0000
  H   H326      1.0  0.35835  0.28423  0.09157  1.0000
  H   H327      1.0  0.39890  0.27802  0.04064  1.0000
  H   H328      1.0  0.36960  0.31090  0.09626  1.0000
  C   C290      1.0  0.47708  0.06714  0.10537  1.0000
  H   H329      1.0  0.35942  0.29907  0.05243  1.0000
  H   H330      1.0  0.41174  0.31433  0.03357  1.0000
  C   C291      1.0  0.24962  0.39938  0.24211  1.0000
  H   H331      1.0  0.47413  0.29024  0.45389  1.0000
  H   H332      1.0  0.42615  0.32391  0.09086  1.0000
  H   H333      1.0  0.37695  0.27156  0.12612  1.0000
  H   H334      1.0  0.44410  0.32317  0.14794  1.0000
  H   H335      1.0  0.39608  0.27157  0.18286  1.0000
  H   H336      1.0  0.42966  0.29720  0.19393  1.0000
  N   N21       1.0  0.42392  0.15277  0.05089  1.0000
  H   H337      1.0  0.44446  0.14242  0.02362  1.0000
  H   H338      1.0  0.39953  0.35693  0.12499  1.0000
  C   C292      1.0  0.40469  0.12777  0.44222  1.0000
  C   C293      1.0  0.43325  0.15243  0.08782  1.0000
  C   C294      1.0  0.38869  0.33403  0.16537  1.0000
  C   C295      1.0  0.44734  0.16977  0.10576  1.0000
  C   C296      1.0  0.24247  0.36164  0.21187  1.0000
  H   H339      1.0  0.41037  0.03177  0.04985  1.0000
  H   H340      1.0  0.41757  0.05271  0.01994  1.0000
  H   H341      1.0  0.47215  0.12068  0.04940  1.0000
  H   H342      1.0  0.34140  0.31247  0.19258  1.0000
  C   C297      1.0  0.24539  0.36497  0.25035  1.0000
  C   C298      1.0  0.45695  0.23854  0.30797  1.0000
  N   N22       1.0  0.42481  0.13983  0.34479  1.0000
  C   C299      1.0  0.45015  0.04675  0.04652  1.0000
  C   C300      1.0  0.39786  0.14695  0.37952  1.0000
  C   C301      1.0  0.30178  0.01993  0.45220  1.0000
  H   H343      1.0  0.37389  0.31140  0.20430  1.0000
  H   H344      1.0  0.24028  0.34714  0.19984  1.0000
  C   C302      1.0  0.43098  0.17280  0.03423  1.0000
  S   S61       1.0  0.45691  0.10080  0.34530  1.0000
  C   C303      1.0  0.25003  0.40623  0.99456  1.0000
  C   C304      1.0  0.46752  0.06377  0.03993  1.0000
  N   N23       1.0  0.33141  0.33706  0.14226  1.0000
  C   C305      1.0  0.32594  0.33223  0.10230  1.0000
  C   C306      1.0  0.31497  0.32335  0.16426  1.0000
  C   C307      1.0  0.33268  0.35760  0.15047  1.0000
  C   C308      1.0  0.35086  0.33568  0.15046  1.0000
  C   C309      1.0  0.36800  0.34797  0.13172  1.0000
  C   C310      1.0  0.35349  0.32235  0.17681  1.0000
  H   H345      1.0  0.28500  0.40167  0.29798  1.0000
  H   H346      1.0  0.24751  0.40789  0.18534  1.0000
  H   H347      1.0  0.29472  0.05017  0.42187  1.0000
  H   H348      1.0  0.32591  0.31736  0.09425  1.0000
  H   H349      1.0  0.31088  0.33202  0.09539  1.0000
  H   H350      1.0  0.33620  0.34329  0.08360  1.0000
  H   H351      1.0  0.31263  0.30751  0.15860  1.0000
  H   H352      1.0  0.30058  0.32475  0.15719  1.0000
  H   H353      1.0  0.31759  0.32673  0.19469  1.0000
  H   H354      1.0  0.34341  0.36883  0.13277  1.0000
  H   H355      1.0  0.31819  0.35908  0.14530  1.0000
  H   H356      1.0  0.33708  0.36197  0.18015  1.0000
  H   H357      1.0  0.36712  0.35839  0.11117  1.0000
  C   C311      1.0  0.41985  0.34695  0.41850  1.0000
  H   H358      1.0  0.42363  0.17261  0.00665  1.0000
  H   H359      1.0  0.27495  0.01284  0.48436  1.0000
  H   H360      1.0  0.43477  0.34853  0.41203  1.0000
  S   S62       1.0  0.48127  0.18196  0.24277  1.0000
  S   S63       1.0  0.32275  0.33417  0.00597  1.0000
  H   H361      1.0  0.42095  0.12326  0.03216  1.0000
  C   C312      1.0  0.39216  0.35658  0.40317  1.0000
  C   C313      1.0  0.38662  0.34719  0.13929  1.0000
  C   C314      1.0  0.37216  0.32158  0.18392  1.0000
  H   H362      1.0  0.47584  0.21673  0.21811  1.0000
  H   H363      1.0  0.44827  0.33989  0.46443  1.0000
  H   H364      1.0  0.40227  0.29619  0.43546  1.0000
  H   H365      1.0  0.46684  0.18207  0.15373  1.0000
  H   H366      1.0  0.48094  0.30279  0.38950  1.0000
  H   H367      1.0  0.45609  0.24793  0.40033  1.0000
  H   H368      1.0  0.36600  0.34297  0.43512  1.0000
  S   S64       1.0  0.46171  0.09302  0.17538  1.0000
  C   C315      1.0  0.24674  0.39588  0.20364  1.0000
  S   S65       1.0  0.27755  0.35965  0.48214  1.0000
  C   C316      1.0  0.45015  0.24212  0.37196  1.0000
  S   S66       1.0  0.43852  0.09610  0.00458  1.0000
  H   H369      1.0  0.29948  0.29291  0.02716  1.0000
  H   H370      1.0  0.39820  0.15546  0.07490  1.0000
  C   C317      1.0  0.43330  0.01431  0.01672  1.0000
  C   C318      1.0  0.44672  0.04070  0.08403  1.0000
  C   C319      1.0  0.29734  0.05143  0.45258  1.0000
  H   H371      1.0  0.41997  0.36746  0.37550  1.0000
  H   H372      1.0  0.38568  0.36501  0.38642  1.0000
  C   C320      1.0  0.45598  0.16878  0.14048  1.0000
  H   H373      1.0  0.38917  0.29741  0.47632  1.0000
  C   C321      1.0  0.43698  0.13353  0.14179  1.0000
  C   C322      1.0  0.31654  0.27570  0.00920  1.0000
  H   H374      1.0  0.33061  0.33855  0.48562  1.0000
  S   S67       1.0  0.29049  0.31181  0.46263  1.0000
  C   C323      1.0  0.24942  0.38411  0.26662  1.0000
  H   H375      1.0  0.26574  0.36618  0.31817  1.0000
  N   N24       1.0  0.41711  0.32222  0.46995  1.0000
  H   H376      1.0  0.43811  0.31940  0.43097  1.0000
  H   H377      1.0  0.38022  0.32374  0.47292  1.0000
  H   H378      1.0  0.45070  0.24989  0.30035  1.0000
  H   H379      1.0  0.42753  0.18372  0.05193  1.0000
  H   H380      1.0  0.43351  0.02838  0.09146  1.0000
  H   H381      1.0  0.24504  0.35242  0.26653  1.0000
  C   C324      1.0  0.32641  0.31141  0.00144  1.0000
  S   S68       1.0  0.23444  0.37193  0.42023  1.0000
  C   C325      1.0  0.47396  0.22710  0.35797  1.0000
  H   H382      1.0  0.25779  0.37525  0.35815  1.0000
  H   H383      1.0  0.47098  0.07014  0.01276  1.0000
  S   S69       1.0  0.30391  0.41528  0.00170  1.0000
  S   S70       1.0  0.48030  0.28411  0.25315  1.0000
  C   C326      1.0  0.47482  0.21189  0.33355  1.0000
  H   H384      1.0  0.40512  0.02805  0.00106  1.0000
  H   H385      1.0  0.46823  0.23966  0.28682  1.0000
  C   C327      1.0  0.23819  0.39460  0.32323  1.0000
  Fe  Fe34      1.0  0.48119  0.30912  0.29090  1.0000
  H   H386      1.0  0.24087  0.39773  0.35379  1.0000
  H   H387      1.0  0.23768  0.40828  0.31061  1.0000
  H   H388      1.0  0.42286  0.14006  0.99567  1.0000
  S   S71       1.0  0.43414  0.29406  0.99420  1.0000
  H   H389      1.0  0.42352  0.00573  0.99310  1.0000
  H   H390      1.0  0.48150  0.12043  0.11630  1.0000
  C   C328      1.0  0.48078  0.07365  0.06902  1.0000
  C   C329      1.0  0.33375  0.27594  0.99177  1.0000
  S   S72       1.0  0.31471  0.44764  0.77129  1.0000
  S   S73       1.0  0.36133  0.46497  0.74917  1.0000
  Fe  Fe35      1.0  0.33179  0.45769  0.71912  1.0000
  S   S74       1.0  0.31641  0.43780  0.66852  1.0000
  Fe  Fe36      1.0  0.34388  0.45725  0.80227  1.0000
  S   S75       1.0  0.34650  0.43518  0.84491  1.0000
  Fe  Fe37      1.0  0.40912  0.07955  0.97328  1.0000
  Fe  Fe38      1.0  0.39151  0.06770  0.89229  1.0000
  S   S76       1.0  0.36022  0.05544  0.91271  1.0000
  S   S77       1.0  0.40349  0.07028  0.83316  1.0000
  Fe  Fe39      1.0  0.37050  0.08331  0.94960  1.0000
  S   S78       1.0  0.35345  0.10392  0.95444  1.0000
  Fe  Fe40      1.0  0.37166  0.04161  0.95974  1.0000
  S   S79       1.0  0.43457  0.10372  0.51588  1.0000
  S   S80       1.0  0.40104  0.09583  0.92707  1.0000
  S   S81       1.0  0.40252  0.05242  0.93657  1.0000
  Fe  Fe41      1.0  0.40974  0.26900  0.96198  1.0000
  C   C330      1.0  0.23402  0.46459  0.73023  1.0000
  Fe  Fe42      1.0  0.38728  0.25709  0.88467  1.0000
  S   S82       1.0  0.36358  0.23035  0.90887  1.0000
  S   S83       1.0  0.38261  0.26742  0.82615  1.0000
  Fe  Fe43      1.0  0.36467  0.25076  0.95777  1.0000
  H   H391      1.0  0.29858  0.03606  0.51975  1.0000
  Fe  Fe44      1.0  0.38890  0.22520  0.93841  1.0000
  S   S84       1.0  0.39750  0.19795  0.94063  1.0000
  S   S85       1.0  0.38678  0.27757  0.93222  1.0000
  S   S86       1.0  0.41266  0.25130  0.91192  1.0000
  H   H392      1.0  0.32027  0.00112  0.98050  1.0000
  Fe  Fe45      1.0  0.36361  0.09030  0.53826  1.0000
  S   S87       1.0  0.39023  0.10321  0.57631  1.0000
  C   C331      1.0  0.34468  0.32056  0.61651  1.0000
  Fe  Fe46      1.0  0.36625  0.04870  0.53466  1.0000
  S   S88       1.0  0.39348  0.05894  0.57290  1.0000
  Fe  Fe47      1.0  0.31730  0.47900  0.77987  1.0000
  Fe  Fe48      1.0  0.37773  0.07452  0.60771  1.0000
  S   S89       1.0  0.36848  0.07326  0.66888  1.0000
  Fe  Fe49      1.0  0.40378  0.08682  0.53851  1.0000
  S   S90       1.0  0.35001  0.06248  0.57107  1.0000
  Fe  Fe50      1.0  0.40863  0.25934  0.52261  1.0000
  H   H393      1.0  0.31845  0.15764  0.49620  1.0000
  Fe  Fe51      1.0  0.39152  0.25028  0.60223  1.0000
  S   S91       1.0  0.36028  0.24241  0.58018  1.0000
  S   S92       1.0  0.39976  0.24393  0.66143  1.0000
  Fe  Fe52      1.0  0.36899  0.22567  0.53479  1.0000
  H   H394      1.0  0.27543  0.43979  0.81237  1.0000
  Fe  Fe53      1.0  0.37260  0.26912  0.54330  1.0000
  N   N25       1.0  0.32575  0.35895  0.57803  1.0000
  S   S93       1.0  0.39945  0.23220  0.55827  1.0000
  S   S94       1.0  0.40355  0.27808  0.56860  1.0000
  C   C332      1.0  0.35154  0.14896  0.61665  1.0000
  C   C333      1.0  0.33033  0.13502  0.50484  1.0000
  H   H395      1.0  0.29914  0.31995  0.55820  1.0000
  H   H396      1.0  0.35515  0.17244  0.94810  1.0000
  H   H397      1.0  0.44341  0.05866  0.97548  1.0000
  H   H398      1.0  0.26178  0.43757  0.89306  1.0000
  C   C334      1.0  0.34372  0.31165  0.98446  1.0000
  H   H399      1.0  0.36079  0.29457  0.96681  1.0000
  H   H400      1.0  0.28282  0.43287  0.91074  1.0000
  H   H401      1.0  0.37883  0.17830  0.53679  1.0000
  H   H402      1.0  0.28751  0.40503  0.82593  1.0000
  C   C335      1.0  0.36417  0.14627  0.52840  1.0000
  C   C336      1.0  0.26910  0.47023  0.73783  1.0000
  C   C337      1.0  0.32772  0.29736  0.88201  1.0000
  S   S95       1.0  0.32719  0.40829  0.50469  1.0000
  C   C338      1.0  0.32649  0.28429  0.50187  1.0000
  C   C339      1.0  0.27554  0.43548  0.88503  1.0000
  H   H403      1.0  0.25211  0.46075  0.68642  1.0000
  C   C340      1.0  0.34658  0.13058  0.51657  1.0000
  C   C341      1.0  0.38708  0.26017  0.78063  1.0000
  C   C342      1.0  0.38065  0.26795  0.74946  1.0000
  C   C343      1.0  0.38416  0.26302  0.71282  1.0000
  C   C344      1.0  0.39435  0.25036  0.70688  1.0000
  C   C345      1.0  0.40068  0.24250  0.73804  1.0000
  C   C346      1.0  0.39701  0.24728  0.77466  1.0000
  H   H404      1.0  0.37302  0.27799  0.75363  1.0000
  H   H405      1.0  0.37922  0.26922  0.68924  1.0000
  H   H406      1.0  0.40871  0.23281  0.73389  1.0000
  H   H407      1.0  0.40217  0.24126  0.79825  1.0000
  H   H408      1.0  0.38002  0.15766  0.85794  1.0000
  H   H409      1.0  0.36852  0.20761  0.62756  1.0000
  C   C347      1.0  0.25174  0.46476  0.71543  1.0000
  C   C348      1.0  0.34550  0.12828  0.61287  1.0000
  C   C349      1.0  0.26886  0.47579  0.77512  1.0000
  C   C350      1.0  0.39322  0.07026  0.78756  1.0000
  C   C351      1.0  0.40586  0.07464  0.75702  1.0000
  C   C352      1.0  0.39858  0.07525  0.72047  1.0000
  C   C353      1.0  0.37850  0.07161  0.71395  1.0000
  C   C354      1.0  0.36582  0.06715  0.74448  1.0000
  C   C355      1.0  0.37306  0.06630  0.78097  1.0000
  H   H410      1.0  0.42146  0.07762  0.76165  1.0000
  H   H411      1.0  0.40855  0.07873  0.69742  1.0000
  H   H412      1.0  0.35023  0.06416  0.73978  1.0000
  H   H413      1.0  0.36303  0.06253  0.80390  1.0000
  C   C356      1.0  0.36559  0.13013  0.95114  1.0000
  C   C357      1.0  0.38614  0.13902  0.94807  1.0000
  C   C358      1.0  0.39547  0.15974  0.94518  1.0000
  C   C359      1.0  0.38445  0.17198  0.94506  1.0000
  C   C360      1.0  0.36384  0.16319  0.94811  1.0000
  H   H414      1.0  0.41254  0.18294  0.86972  1.0000
  H   H415      1.0  0.39493  0.12998  0.94795  1.0000
  C   C361      1.0  0.34293  0.33868  0.60891  1.0000
  H   H416      1.0  0.31672  0.12315  0.49559  1.0000
  C   C362      1.0  0.26098  0.39278  0.90591  1.0000
  H   H417      1.0  0.33723  0.37282  0.63174  1.0000
  H   H418      1.0  0.35364  0.13651  0.82366  1.0000
  H   H419      1.0  0.36241  0.18852  0.59269  1.0000
  C   C363      1.0  0.33525  0.43034  0.88913  1.0000
  C   C364      1.0  0.33227  0.41209  0.90603  1.0000
  C   C365      1.0  0.32262  0.40723  0.94026  1.0000
  C   C366      1.0  0.31625  0.42080  0.95857  1.0000
  C   C367      1.0  0.31955  0.43920  0.94202  1.0000
  C   C368      1.0  0.32876  0.44387  0.90731  1.0000
  H   H420      1.0  0.33727  0.40153  0.89233  1.0000
  H   H421      1.0  0.32037  0.39308  0.95269  1.0000
  C   C369      1.0  0.25108  0.47540  0.79012  1.0000
  H   H422      1.0  0.33107  0.45803  0.89483  1.0000
  C   C370      1.0  0.32004  0.42972  0.62322  1.0000
  C   C371      1.0  0.33872  0.43556  0.60740  1.0000
  C   C372      1.0  0.34060  0.42893  0.57108  1.0000
  C   C373      1.0  0.32390  0.41629  0.55023  1.0000
  C   C374      1.0  0.30528  0.41020  0.56628  1.0000
  C   C375      1.0  0.30340  0.41691  0.60249  1.0000
  H   H423      1.0  0.35171  0.44508  0.62312  1.0000
  H   H424      1.0  0.35509  0.43361  0.55902  1.0000
  H   H425      1.0  0.29229  0.40052  0.55065  1.0000
  H   H426      1.0  0.28888  0.41227  0.61445  1.0000
  H   H427      1.0  0.25037  0.42836  0.82635  1.0000
  C   C376      1.0  0.31192  0.32099  0.57522  1.0000
  H   H428      1.0  0.33853  0.13564  0.95364  1.0000
  H   H429      1.0  0.27272  0.43519  0.98855  1.0000
  H   H430      1.0  0.36489  0.30586  0.90469  1.0000
  H   H431      1.0  0.41138  0.16634  0.94231  1.0000
  H   H432      1.0  0.30275  0.28909  0.57243  1.0000
  H   H433      1.0  0.32278  0.27670  0.81757  1.0000
  C   C377      1.0  0.37648  0.18794  0.68300  1.0000
  H   H434      1.0  0.44276  0.17573  0.86067  1.0000
  H   H435      1.0  0.36177  0.18053  0.69570  1.0000
  C   C378      1.0  0.37291  0.12911  0.65251  1.0000
  H   H436      1.0  0.38124  0.12125  0.66588  1.0000
  H   H437      1.0  0.35158  0.10238  0.62733  1.0000
  H   H438      1.0  0.24918  0.45024  0.96620  1.0000
  C   C379      1.0  0.32413  0.36953  0.61264  1.0000
  H   H439      1.0  0.37769  0.99217  0.63485  1.0000
  C   C380      1.0  0.24370  0.43459  0.97283  1.0000
  H   H440      1.0  0.40257  0.32537  0.52023  1.0000
  H   H441      1.0  0.28594  0.44990  0.87412  1.0000
  H   H442      1.0  0.30165  0.43026  0.84081  1.0000
  H   H443      1.0  0.43167  0.03410  0.95649  1.0000
  H   H444      1.0  0.33196  0.28878  0.60825  1.0000
  C   C381      1.0  0.41761  0.32811  0.50976  1.0000
  H   H445      1.0  0.28907  0.28744  0.94171  1.0000
  H   H446      1.0  0.26180  0.41459  0.79893  1.0000
  H   H447      1.0  0.31075  0.36054  0.62815  1.0000
  S   S96       1.0  0.36412  0.29642  0.53629  1.0000
  H   H448      1.0  0.34625  0.36357  0.53361  1.0000
  C   C382      1.0  0.33464  0.99558  0.50031  1.0000
  H   H449      1.0  0.34046  0.32580  0.85419  1.0000
  C   C383      1.0  0.25698  0.42622  0.98548  1.0000
  C   C384      1.0  0.24820  0.37463  0.91949  1.0000
  C   C385      1.0  0.34864  0.17042  0.51685  1.0000
  C   C386      1.0  0.33132  0.15465  0.50515  1.0000
  H   H450      1.0  0.28271  0.47037  0.72609  1.0000
  H   H451      1.0  0.31978  0.05836  0.51546  1.0000
  H   H452      1.0  0.29421  0.34896  0.56632  1.0000
  C   C387      1.0  0.44240  0.04304  0.97860  1.0000
  C   C388      1.0  0.30021  0.29556  0.92211  1.0000
  H   H453      1.0  0.40694  0.18717  0.64340  1.0000
  S   S97       1.0  0.37771  0.07575  0.49882  1.0000
  C   C389      1.0  0.32945  0.31695  0.87315  1.0000
  C   C390      1.0  0.23363  0.46963  0.76781  1.0000
  H   H454      1.0  0.37686  0.14304  0.53756  1.0000
  C   C391      1.0  0.42665  0.14536  0.84272  1.0000
  C   C392      1.0  0.34737  0.29406  0.97966  1.0000
  H   H455      1.0  0.40151  0.20809  0.62983  1.0000
  C   C393      1.0  0.36922  0.11260  0.79171  1.0000
  C   C394      1.0  0.36856  0.10031  0.85392  1.0000
  H   H456      1.0  0.35479  0.10043  0.78415  1.0000
  H   H457      1.0  0.37076  0.12557  0.77412  1.0000
  H   H458      1.0  0.38097  0.10718  0.78343  1.0000
  H   H459      1.0  0.37955  0.09372  0.84677  1.0000
  H   H460      1.0  0.35370  0.08822  0.84952  1.0000
  H   H461      1.0  0.40755  0.11610  0.82590  1.0000
  N   N26       1.0  0.27110  0.41903  0.85707  1.0000
  C   C395      1.0  0.32670  0.33950  0.58731  1.0000
  C   C396      1.0  0.26421  0.42556  0.82224  1.0000
  H   H462      1.0  0.25081  0.47952  0.81909  1.0000
  C   C397      1.0  0.25669  0.40036  0.87194  1.0000
  C   C398      1.0  0.30861  0.35719  0.55313  1.0000
  S   S98       1.0  0.28332  0.35845  0.98812  1.0000
  H   H463      1.0  0.32298  0.38410  0.60661  1.0000
  H   H464      1.0  0.30850  0.37202  0.54603  1.0000
  H   H465      1.0  0.29374  0.32203  0.92710  1.0000
  H   H466      1.0  0.31928  0.00159  0.54655  1.0000
  H   H467      1.0  0.29569  0.41080  0.87330  1.0000
  C   C399      1.0  0.31375  0.30296  0.58331  1.0000
  S   S99       1.0  0.38756  0.24282  0.98975  1.0000
  S   S100      1.0  0.36339  0.00966  0.98166  1.0000
  C   C400      1.0  0.33887  0.26900  0.88075  1.0000
  N   N27       1.0  0.34148  0.28885  0.86604  1.0000
  C   C401      1.0  0.31248  0.28677  0.90668  1.0000
  C   C402      1.0  0.23862  0.38875  0.85281  1.0000
  H   H468      1.0  0.35756  0.32026  0.63179  1.0000
  H   H469      1.0  0.35755  0.37540  0.57700  1.0000
  C   C403      1.0  0.34401  0.37138  0.55892  1.0000
  C   C404      1.0  0.36525  0.16624  0.52824  1.0000
  H   H470      1.0  0.32391  0.25767  0.87362  1.0000
  H   H471      1.0  0.43990  0.14216  0.83907  1.0000
  H   H472      1.0  0.35458  0.35207  0.61950  1.0000
  C   C405      1.0  0.31728  0.32568  0.88921  1.0000
  H   H473      1.0  0.35388  0.12782  0.87070  1.0000
  N   N28       1.0  0.37071  0.11810  0.83186  1.0000
  S   S101      1.0  0.34354  0.10509  0.51488  1.0000
  H   H474      1.0  0.39240  0.15747  0.67317  1.0000
  H   H475      1.0  0.33922  0.11134  0.83468  1.0000
  C   C406      1.0  0.33019  0.30275  0.60352  1.0000
  H   H476      1.0  0.37046  0.10416  0.88415  1.0000
  C   C407      1.0  0.37913  0.14980  0.65644  1.0000
  C   C408      1.0  0.35614  0.11839  0.63075  1.0000
  H   H477      1.0  0.39602  0.18723  0.59819  1.0000
  H   H478      1.0  0.34747  0.18517  0.63350  1.0000
  C   C409      1.0  0.35369  0.12381  0.84057  1.0000
  C   C410      1.0  0.40799  0.13049  0.83540  1.0000
  C   C411      1.0  0.39029  0.13406  0.84029  1.0000
  H   H479      1.0  0.34333  0.38573  0.54985  1.0000
  H   H480      1.0  0.37308  0.29578  0.86548  1.0000
  S   S102      1.0  0.33783  0.25342  0.98599  1.0000
  C   C412      1.0  0.39589  0.19153  0.62800  1.0000
  C   C413      1.0  0.36289  0.19114  0.62332  1.0000
  C   C414      1.0  0.36863  0.16039  0.63862  1.0000
  H   H481      1.0  0.36655  0.31670  0.85971  1.0000
  N   N29       1.0  0.37569  0.18233  0.64296  1.0000
  C   C415      1.0  0.30278  0.31504  0.91383  1.0000
  H   H482      1.0  0.34834  0.27999  0.81226  1.0000
  C   C416      1.0  0.36231  0.30240  0.87438  1.0000
  H   H483      1.0  0.34136  0.30107  0.81151  1.0000
  H   H484      1.0  0.38757  0.18404  0.69930  1.0000
  C   C417      1.0  0.33832  0.28660  0.82508  1.0000
  H   H485      1.0  0.42386  0.31942  0.52788  1.0000
  C   C418      1.0  0.39250  0.15351  0.85265  1.0000
  H   H486      1.0  0.25195  0.36902  0.94522  1.0000
  H   H487      1.0  0.33276  0.11989  0.59513  1.0000
  H   H488      1.0  0.27452  0.40060  0.92197  1.0000
  H   H489      1.0  0.34962  0.26314  0.86886  1.0000
  H   H490      1.0  0.31931  0.34090  0.88308  1.0000
  C   C419      1.0  0.35447  0.14234  0.95122  1.0000
  C   C420      1.0  0.42829  0.16424  0.85481  1.0000
  C   C421      1.0  0.28971  0.41615  0.84890  1.0000
  S   S103      1.0  0.34593  0.48856  0.81349  1.0000
  H   H491      1.0  0.30905  0.34958  0.52621  1.0000
  H   H492      1.0  0.34282  0.15563  0.60127  1.0000
  H   H493      1.0  0.31492  0.44992  0.95609  1.0000
  C   C422      1.0  0.41126  0.16831  0.85963  1.0000
  H   H494      1.0  0.35428  0.32554  0.97458  1.0000
  S   S104      1.0  0.43819  0.27060  0.49275  1.0000
  H   H495      1.0  0.38080  0.20430  0.68717  1.0000
  H   H496      1.0  0.34129  0.26963  0.91145  1.0000
  H   H497      1.0  0.45702  0.04236  0.97229  1.0000
  H   H498      1.0  0.31004  0.27186  0.91540  1.0000
  H   H499      1.0  0.42674  0.34418  0.51440  1.0000
  H   H500      1.0  0.35801  0.99387  0.57890  1.0000
  H   H501      1.0  0.38144  0.47865  0.65865  1.0000
  S   S105      1.0  0.29057  0.48340  0.80349  1.0000
  C   C423      1.0  0.31918  0.99080  0.52544  1.0000
  S   S106      1.0  0.35493  0.01903  0.50125  1.0000
  H   H502      1.0  0.32246  0.03462  0.51539  1.0000
  C   C424      1.0  0.31289  0.04256  0.50548  1.0000
  S   S107      1.0  0.33228  0.48875  0.72568  1.0000
  S   S108      1.0  0.34789  0.19463  0.51667  1.0000
  S   S109      1.0  0.37846  0.25164  0.49579  1.0000
  C   C425      1.0  0.34388  0.30009  0.51319  1.0000
  H   H503      1.0  0.32520  0.26914  0.50628  1.0000
  C   C426      1.0  0.37147  0.48696  0.66199  1.0000
  H   H504      1.0  0.23413  0.39323  0.82674  1.0000
  H   H505      1.0  0.35593  0.47590  0.65907  1.0000
  H   H506      1.0  0.35838  0.33204  0.51646  1.0000
  C   C427      1.0  0.34514  0.31968  0.50737  1.0000
  H   H507      1.0  0.35680  0.48163  0.59434  1.0000
  H   H508      1.0  0.38288  0.48692  0.59073  1.0000
  Fe  Fe54      1.0  0.30175  0.87008  0.02378  1.0000
  Fe  Fe55      1.0  0.29765  0.88053  0.10662  1.0000
  S   S110      1.0  0.26973  0.88559  0.09382  1.0000
  S   S111      1.0  0.31166  0.88192  0.16461  1.0000
  S   S112      1.0  0.32132  0.86357  0.48203  1.0000
  Fe  Fe56      1.0  0.28581  0.90173  0.04318  1.0000
  S   S113      1.0  0.28770  0.93272  0.02560  1.0000
  S   S114      1.0  0.28830  0.85195  0.07339  1.0000
  S   S115      1.0  0.31417  0.89823  0.05851  1.0000
  Fe  Fe57      1.0  0.28091  0.90612  0.46068  1.0000
  S   S116      1.0  0.30740  0.90623  0.43002  1.0000
  C   C428      1.0  0.31690  0.96847  0.13121  1.0000
  H   H509      1.0  0.28368  0.93824  0.10476  1.0000
  S   S117      1.0  0.28102  0.86033  0.40471  1.0000
  Fe  Fe58      1.0  0.29996  0.87586  0.45471  1.0000
  Fe  Fe59      1.0  0.28543  0.89058  0.38332  1.0000
  S   S118      1.0  0.28482  0.90121  0.32362  1.0000
  S   S119      1.0  0.25897  0.89171  0.41328  1.0000
  C   C429      1.0  0.31769  0.94548  0.26279  1.0000
  H   H510      1.0  0.34609  0.98468  0.45373  1.0000
  H   H511      1.0  0.31862  0.95144  0.45042  1.0000
  C   C430      1.0  0.29122  0.89397  0.27992  1.0000
  C   C431      1.0  0.30485  0.88471  0.27667  1.0000
  C   C432      1.0  0.31083  0.88100  0.24118  1.0000
  C   C433      1.0  0.30293  0.88606  0.20858  1.0000
  C   C434      1.0  0.28881  0.89470  0.21182  1.0000
  C   C435      1.0  0.28319  0.89884  0.24727  1.0000
  H   H512      1.0  0.31124  0.88099  0.30152  1.0000
  H   H513      1.0  0.32179  0.87434  0.23904  1.0000
  H   H514      1.0  0.28263  0.89871  0.18709  1.0000
  H   H515      1.0  0.27275  0.90614  0.24950  1.0000
  H   H516      1.0  0.28002  0.81641  0.19629  1.0000
  H   H517      1.0  0.31902  0.94402  0.29265  1.0000
  C   C436      1.0  0.25331  0.81962  0.29215  1.0000
  C   C437      1.0  0.31766  0.93606  0.12162  1.0000
  N   N30       1.0  0.30864  0.94765  0.14392  1.0000
  H   H518      1.0  0.25113  0.86060  0.22649  1.0000
  H   H519      1.0  0.35945  0.97156  0.00982  1.0000
  C   C438      1.0  0.32828  0.95439  0.01701  1.0000
  H   H520      1.0  0.29147  0.97103  0.99778  1.0000
  H   H521      1.0  0.24768  0.86389  0.29284  1.0000
  H   H522      1.0  0.31469  0.96926  0.10050  1.0000
  C   C439      1.0  0.32716  0.93699  0.23870  1.0000
  C   C440      1.0  0.25649  0.84583  0.16523  1.0000
  S   S120      1.0  0.27453  0.87635  0.48767  1.0000
  C   C441      1.0  0.30604  0.95528  0.24845  1.0000
  H   H523      1.0  0.31197  0.92016  0.12976  1.0000
  H   H524      1.0  0.30978  0.97786  0.14459  1.0000
  C   C442      1.0  0.34462  0.97152  0.00715  1.0000
  H   H525      1.0  0.33585  0.92897  0.25003  1.0000
  N   N31       1.0  0.25811  0.82965  0.18827  1.0000
  H   H526      1.0  0.33189  0.93023  0.18336  1.0000
  H   H527      1.0  0.25913  0.84371  0.13543  1.0000
  C   C443      1.0  0.32464  0.93780  0.20014  1.0000
  C   C444      1.0  0.25171  0.84868  0.24347  1.0000
  H   H528      1.0  0.31415  0.93625  0.09136  1.0000
  C   C445      1.0  0.28697  0.93919  0.13533  1.0000
  H   H529      1.0  0.29862  0.96176  0.26740  1.0000
  H   H530      1.0  0.31049  0.98446  0.39917  1.0000
  C   C446      1.0  0.31239  0.94722  0.18454  1.0000
  H   H531      1.0  0.29434  0.96408  0.20019  1.0000
  H   H532      1.0  0.24149  0.84648  0.16638  1.0000
  H   H533      1.0  0.27825  0.96319  0.42420  1.0000
  C   C447      1.0  0.30354  0.95634  0.20993  1.0000
  Fe  Fe60      1.0  0.25544  0.86192  0.43688  1.0000
  H   H534      1.0  0.33412  0.94225  0.12463  1.0000
  Fe  Fe61      1.0  0.26042  0.85721  0.05856  1.0000
  H   H535      1.0  0.33070  0.94150  0.02710  1.0000
  C   C448      1.0  0.25032  0.83625  0.30601  1.0000
  S   S121      1.0  0.27359  0.87388  0.00635  1.0000
  H   H536      1.0  0.26784  0.86049  0.17363  1.0000
  H   H537      1.0  0.25830  0.80451  0.24468  1.0000
  C   C449      1.0  0.33425  0.98117  0.47335  1.0000
  C   C450      1.0  0.31871  0.96224  0.47150  1.0000
  C   C451      1.0  0.24955  0.85073  0.28173  1.0000
  H   H538      1.0  0.33312  0.97547  0.13766  1.0000
  H   H539      1.0  0.27916  0.94830  0.14727  1.0000
  H   H540      1.0  0.26657  0.82715  0.47529  1.0000
  H   H541      1.0  0.28000  0.92390  0.14620  1.0000
  C   C452      1.0  0.25496  0.83198  0.22840  1.0000
  C   C453      1.0  0.28449  0.97899  0.43110  1.0000
  C   C454      1.0  0.30894  0.95399  0.01362  1.0000
  H   H542      1.0  0.26077  0.97755  0.46667  1.0000
  C   C455      1.0  0.27822  0.82945  0.18338  1.0000
  H   H543      1.0  0.28978  0.84304  0.19623  1.0000
  H   H544      1.0  0.28175  0.82908  0.15341  1.0000
  H   H545      1.0  0.34915  0.94736  0.48947  1.0000
  S   S122      1.0  0.23408  0.82865  0.07343  1.0000
  C   C456      1.0  0.27471  0.98712  0.45520  1.0000
  H   H546      1.0  0.25402  0.80846  0.31128  1.0000
  C   C457      1.0  0.25566  0.81748  0.25398  1.0000
  H   H547      1.0  0.23597  0.80001  0.47887  1.0000
  C   C458      1.0  0.30630  0.97106  0.00052  1.0000
  H   H548      1.0  0.24877  0.83803  0.33569  1.0000
  H   H549      1.0  0.24464  0.80901  0.14255  1.0000
  C   C459      1.0  0.24317  0.81066  0.17317  1.0000
  H   H550      1.0  0.24460  0.79744  0.18606  1.0000
  H   H551      1.0  0.35078  0.92411  0.47894  1.0000
  C   C460      1.0  0.34198  0.98858  0.99383  1.0000
  S   S123      1.0  0.23185  0.83014  0.43285  1.0000
  C   C461      1.0  0.40257  0.53440  0.61341  1.0000
  C   C462      1.0  0.46010  0.86455  0.79973  1.0000
  H   H552      1.0  0.42602  0.56172  0.59824  1.0000
  S   S124      1.0  0.38468  0.52638  0.74111  1.0000
  H   H553      1.0  0.37209  0.91817  0.54614  1.0000
  H   H554      1.0  0.38710  0.70914  0.71529  1.0000
  Fe  Fe62      1.0  0.36250  0.81950  0.74444  1.0000
  S   S125      1.0  0.35454  0.84664  0.75173  1.0000
  S   S126      1.0  0.39043  0.81516  0.76721  1.0000
  Fe  Fe63      1.0  0.32080  0.79381  0.71470  1.0000
  S   S127      1.0  0.31008  0.81878  0.71918  1.0000
  S   S128      1.0  0.30090  0.76381  0.68949  1.0000
  Fe  Fe64      1.0  0.33900  0.83788  0.69521  1.0000
  S   S129      1.0  0.33728  0.86192  0.65645  1.0000
  Fe  Fe65      1.0  0.32592  0.82584  0.77506  1.0000
  S   S130      1.0  0.30648  0.83196  0.81852  1.0000
  S   S131      1.0  0.34900  0.81232  0.68625  1.0000
  S   S132      1.0  0.33462  0.79928  0.77208  1.0000
  C   C463      1.0  0.28547  0.81564  0.61661  1.0000
  H   H555      1.0  0.32145  0.91598  0.56563  1.0000
  C   C464      1.0  0.30346  0.90249  0.86065  1.0000
  C   C465      1.0  0.24491  0.82507  0.53713  1.0000
  C   C466      1.0  0.34073  0.91859  0.94217  1.0000
  H   H556      1.0  0.33402  0.72876  0.69686  1.0000
  C   C467      1.0  0.32014  0.90550  0.88467  1.0000
  C   C468      1.0  0.35324  0.96415  0.55958  1.0000
  C   C469      1.0  0.35555  0.93665  0.49979  1.0000
  C   C470      1.0  0.42756  0.85480  0.82613  1.0000
  C   C471      1.0  0.25088  0.52576  0.74480  1.0000
  H   H557      1.0  0.28769  0.88927  0.80944  1.0000
  H   H558      1.0  0.36223  0.52416  0.61985  1.0000
  C   C472      1.0  0.33395  0.89721  0.87273  1.0000
  C   C473      1.0  0.27756  0.82079  0.58442  1.0000
  C   C474      1.0  0.36080  0.98044  0.58428  1.0000
  C   C475      1.0  0.31888  0.85532  0.93978  1.0000
  C   C476      1.0  0.30019  0.85064  0.92278  1.0000
  C   C477      1.0  0.29669  0.84337  0.88575  1.0000
  C   C478      1.0  0.31174  0.84056  0.86539  1.0000
  C   C479      1.0  0.33043  0.84515  0.88243  1.0000
  C   C480      1.0  0.33398  0.85258  0.91944  1.0000
  H   H559      1.0  0.28840  0.85256  0.93812  1.0000
  H   H560      1.0  0.28221  0.83992  0.87271  1.0000
  H   H561      1.0  0.34213  0.84308  0.86703  1.0000
  H   H562      1.0  0.34848  0.85613  0.93242  1.0000
  C   C481      1.0  0.33038  0.85942  0.60846  1.0000
  C   C482      1.0  0.31883  0.86971  0.59466  1.0000
  C   C483      1.0  0.31492  0.87006  0.55617  1.0000
  C   C484      1.0  0.32328  0.86086  0.53087  1.0000
  C   C485      1.0  0.33446  0.85020  0.54468  1.0000
  C   C486      1.0  0.33778  0.84925  0.58330  1.0000
  H   H563      1.0  0.31306  0.87764  0.61391  1.0000
  H   H564      1.0  0.30594  0.87795  0.54613  1.0000
  H   H565      1.0  0.34096  0.84298  0.52538  1.0000
  H   H566      1.0  0.34686  0.84144  0.59349  1.0000
  C   C487      1.0  0.41461  0.81953  0.75041  1.0000
  C   C488      1.0  0.42126  0.82901  0.71686  1.0000
  C   C489      1.0  0.44081  0.83278  0.70559  1.0000
  C   C490      1.0  0.45397  0.82707  0.72748  1.0000
  C   C491      1.0  0.44722  0.81731  0.76076  1.0000
  C   C492      1.0  0.42770  0.81361  0.77212  1.0000
  H   H567      1.0  0.41144  0.83367  0.69981  1.0000
  H   H568      1.0  0.44576  0.84028  0.67973  1.0000
  H   H569      1.0  0.45701  0.81264  0.77779  1.0000
  H   H570      1.0  0.42278  0.80632  0.79818  1.0000
  C   C493      1.0  0.28225  0.74573  0.71490  1.0000
  C   C494      1.0  0.26712  0.73031  0.69541  1.0000
  C   C495      1.0  0.25263  0.71506  0.71456  1.0000
  C   C496      1.0  0.28280  0.74574  0.75385  1.0000
  H   H571      1.0  0.26659  0.73016  0.66530  1.0000
  C   C497      1.0  0.26372  0.80613  0.56055  1.0000
  H   H572      1.0  0.29435  0.75753  0.76920  1.0000
  C   C498      1.0  0.40980  0.54359  0.74929  1.0000
  C   C499      1.0  0.41633  0.56207  0.73142  1.0000
  C   C500      1.0  0.43606  0.57605  0.73626  1.0000
  C   C501      1.0  0.44973  0.57176  0.75901  1.0000
  C   C502      1.0  0.44324  0.55321  0.77665  1.0000
  C   C503      1.0  0.42348  0.53928  0.77197  1.0000
  H   H573      1.0  0.40602  0.56563  0.71362  1.0000
  H   H574      1.0  0.44067  0.59012  0.72234  1.0000
  H   H575      1.0  0.45357  0.54957  0.79423  1.0000
  H   H576      1.0  0.41887  0.52520  0.78586  1.0000
  H   H577      1.0  0.25755  0.53356  0.71903  1.0000
  H   H578      1.0  0.36424  0.52073  0.66884  1.0000
  H   H579      1.0  0.31213  0.87505  0.79059  1.0000
  H   H580      1.0  0.25751  0.55821  0.79438  1.0000
  H   H581      1.0  0.24890  0.78490  0.49447  1.0000
  H   H582      1.0  0.29609  0.82712  0.63438  1.0000
  C   C504      1.0  0.37009  0.72746  0.72453  1.0000
  C   C505      1.0  0.30321  0.95746  0.49652  1.0000
  N   N32       1.0  0.35228  0.75114  0.73647  1.0000
  C   C506      1.0  0.35402  0.76737  0.71047  1.0000
  C   C507      1.0  0.33373  0.73403  0.72598  1.0000
  C   C508      1.0  0.35004  0.75778  0.77475  1.0000
  C   C509      1.0  0.37040  0.74652  0.73511  1.0000
  H   H583      1.0  0.34150  0.87999  0.83058  1.0000
  C   C510      1.0  0.40583  0.73885  0.73258  1.0000
  H   H584      1.0  0.35630  0.76325  0.68149  1.0000
  H   H585      1.0  0.34044  0.77087  0.71001  1.0000
  H   H586      1.0  0.36651  0.78150  0.71824  1.0000
  H   H587      1.0  0.32572  0.94607  0.93961  1.0000
  H   H588      1.0  0.32046  0.73818  0.72707  1.0000
  H   H589      1.0  0.33097  0.72146  0.74527  1.0000
  H   H590      1.0  0.36185  0.77239  0.78274  1.0000
  H   H591      1.0  0.33568  0.75974  0.77769  1.0000
  H   H592      1.0  0.35052  0.74677  0.79562  1.0000
  H   H593      1.0  0.33528  0.94497  0.89430  1.0000
  C   C511      1.0  0.40661  0.75767  0.74306  1.0000
  H   H594      1.0  0.29103  0.90551  0.93156  1.0000
  H   H595      1.0  0.23288  0.81747  0.55670  1.0000
  H   H596      1.0  0.24764  0.77373  0.55508  1.0000
  C   C512      1.0  0.42155  0.54930  0.61696  1.0000
  H   H597      1.0  0.30905  0.93690  0.90093  1.0000
  H   H598      1.0  0.25486  0.83928  0.55069  1.0000
  S   S133      1.0  0.23631  0.69506  0.77838  1.0000
  H   H599      1.0  0.37198  0.94408  0.49913  1.0000
  H   H600      1.0  0.37115  0.93296  0.60491  1.0000
  H   H601      1.0  0.35653  0.71515  0.71697  1.0000
  H   H602      1.0  0.26067  0.59291  0.79716  1.0000
  C   C513      1.0  0.33116  0.88674  0.83879  1.0000
  H   H603      1.0  0.44917  0.56035  0.64854  1.0000
  H   H604      1.0  0.35431  0.92669  0.92644  1.0000
  C   C514      1.0  0.46824  0.86035  0.83343  1.0000
  H   H605      1.0  0.32053  0.90925  0.51696  1.0000
  H   H606      1.0  0.24940  0.50997  0.74135  1.0000
  C   C515      1.0  0.30356  0.97189  0.52342  1.0000
  H   H607      1.0  0.34443  0.96548  0.53611  1.0000
  H   H608      1.0  0.28239  0.83640  0.57834  1.0000
  C   C516      1.0  0.37537  0.96222  0.62255  1.0000
  Fe  Fe66      1.0  0.36130  0.49603  0.75838  1.0000
  H   H609      1.0  0.41937  0.73595  0.73157  1.0000
  H   H610      1.0  0.32085  0.93302  0.53060  1.0000
  C   C517      1.0  0.32265  0.98820  0.99065  1.0000
  C   C518      1.0  0.25345  0.71478  0.75346  1.0000
  C   C519      1.0  0.44009  0.86192  0.79647  1.0000
  C   C520      1.0  0.37189  0.97950  0.61570  1.0000
  H   H611      1.0  0.29169  0.96838  0.54297  1.0000
  H   H612      1.0  0.34201  0.92700  0.96886  1.0000
  H   H613      1.0  0.37252  0.50440  0.57484  1.0000
  H   H614      1.0  0.42515  0.84492  0.88243  1.0000
  H   H615      1.0  0.26932  0.73013  0.80309  1.0000
  C   C521      1.0  0.32316  0.93697  0.91344  1.0000
  H   H616      1.0  0.30684  0.91372  0.97182  1.0000
  H   H617      1.0  0.26179  0.53199  0.76819  1.0000
  H   H618      1.0  0.42078  0.76946  0.75005  1.0000
  C   C522      1.0  0.38920  0.76145  0.74449  1.0000
  H   H619      1.0  0.40645  0.50645  0.68705  1.0000
  H   H620      1.0  0.34070  0.90375  0.94989  1.0000
  H   H621      1.0  0.30406  0.89063  0.94885  1.0000
  C   C523      1.0  0.36800  0.94588  0.59775  1.0000
  C   C524      1.0  0.41003  0.51776  0.66621  1.0000
  H   H622      1.0  0.34996  0.90098  0.52401  1.0000
  C   C525      1.0  0.32705  0.92165  0.53777  1.0000
  C   C526      1.0  0.38762  0.72378  0.72340  1.0000
  C   C527      1.0  0.31454  0.88388  0.81614  1.0000
  C   C528      1.0  0.37184  0.49369  0.59703  1.0000
  N   N33       1.0  0.34902  0.92970  0.53776  1.0000
  H   H623      1.0  0.28209  0.83771  0.51496  1.0000
  H   H624      1.0  0.39280  0.53587  0.59165  1.0000
  C   C529      1.0  0.30073  0.89178  0.82699  1.0000
  N   N34       1.0  0.32246  0.91661  0.92047  1.0000
  C   C530      1.0  0.24978  0.58248  0.77823  1.0000
  H   H625      1.0  0.29223  0.90814  0.86802  1.0000
  H   H626      1.0  0.38383  0.96149  0.64730  1.0000
  C   C531      1.0  0.43505  0.85061  0.85954  1.0000
  C   C532      1.0  0.30535  0.90620  0.94409  1.0000
  N   N35       1.0  0.25566  0.81210  0.52658  1.0000
  H   H627      1.0  0.43403  0.86471  0.77027  1.0000
  H   H628      1.0  0.35004  0.90602  0.57260  1.0000
  S   S134      1.0  0.47505  0.58868  0.76621  1.0000
  H   H629      1.0  0.46868  0.86940  0.77507  1.0000
  H   H630      1.0  0.34675  0.89810  0.88943  1.0000
  C   C533      1.0  0.43466  0.54853  0.64512  1.0000
  C   C534      1.0  0.42895  0.53276  0.66952  1.0000
  H   H631      1.0  0.46016  0.84986  0.88972  1.0000
  H   H632      1.0  0.41190  0.85211  0.82284  1.0000
  H   H633      1.0  0.28599  0.79180  0.65103  1.0000
  H   H634      1.0  0.43900  0.53254  0.69210  1.0000
  C   C535      1.0  0.23749  0.58895  0.75630  1.0000
  C   C536      1.0  0.26858  0.73020  0.77301  1.0000
  H   H635      1.0  0.39057  0.77627  0.75289  1.0000
  H   H636      1.0  0.28147  0.81470  0.49543  1.0000
  C   C537      1.0  0.35689  0.94650  0.56506  1.0000
  C   C538      1.0  0.45509  0.85342  0.86332  1.0000
  C   C539      1.0  0.35564  0.91309  0.54565  1.0000
  C   C540      1.0  0.23366  0.54854  0.75199  1.0000
  N   N36       1.0  0.37564  0.50313  0.63476  1.0000
  C   C541      1.0  0.27981  0.79577  0.62607  1.0000
  C   C542      1.0  0.39615  0.51820  0.63809  1.0000
  H   H637      1.0  0.23873  0.60430  0.75819  1.0000
  C   C543      1.0  0.36136  0.51292  0.64109  1.0000
  C   C544      1.0  0.24162  0.79500  0.50430  1.0000
  C   C545      1.0  0.24791  0.56259  0.77626  1.0000
  S   S135      1.0  0.47863  0.83275  0.71194  1.0000
  H   H638      1.0  0.26181  0.76554  0.61125  1.0000
  C   C546      1.0  0.25816  0.78596  0.57115  1.0000
  C   C547      1.0  0.26617  0.78097  0.60348  1.0000
  C   C548      1.0  0.27213  0.82334  0.50210  1.0000
  H   H639      1.0  0.34574  0.50197  0.64053  1.0000
  S   S136      1.0  0.28320  0.93377  0.49523  1.0000
  H   H640      1.0  0.24105  0.70330  0.69919  1.0000
  H   H641      1.0  0.23327  0.73036  0.88428  1.0000
  H   H642      1.0  0.23798  0.82925  0.51236  1.0000
  H   H643      1.0  0.37319  0.49301  0.69096  1.0000
  H   H644      1.0  0.23485  0.52634  0.81131  1.0000
  H   H645      1.0  0.48009  0.72262  0.72166  1.0000
  S   S137      1.0  0.32419  0.86510  0.98595  1.0000
  H   H646      1.0  0.56178  0.42703  0.22277  1.0000
  S   S138      1.0  0.50791  0.14484  0.21410  1.0000
  H   H647      1.0  0.71767  0.14114  0.46681  1.0000
  C   C549      1.0  0.58492  0.31345  0.28871  1.0000
  S   S139      1.0  0.50490  0.14930  0.30633  1.0000
  H   H648      1.0  0.67976  0.08285  0.13422  1.0000
  H   H649      1.0  0.70799  0.03981  0.99812  1.0000
  H   H650      1.0  0.73130  0.99262  0.03444  1.0000
  Fe  Fe67      1.0  0.52023  0.13561  0.26604  1.0000
  S   S140      1.0  0.55291  0.14159  0.28199  1.0000
  C   C550      1.0  0.55060  0.42605  0.27778  1.0000
  Fe  Fe68      1.0  0.66009  0.13919  0.21957  1.0000
  S   S141      1.0  0.67025  0.11363  0.21176  1.0000
  S   S142      1.0  0.62818  0.13480  0.20224  1.0000
  Fe  Fe69      1.0  0.70128  0.16750  0.24559  1.0000
  S   S143      1.0  0.71420  0.14413  0.24081  1.0000
  Fe  Fe70      1.0  0.69735  0.13564  0.18595  1.0000
  S   S144      1.0  0.71675  0.12932  0.14257  1.0000
  Fe  Fe71      1.0  0.68642  0.12383  0.26685  1.0000
  S   S145      1.0  0.68746  0.09952  0.30478  1.0000
  S   S146      1.0  0.68617  0.16065  0.18908  1.0000
  S   S147      1.0  0.67452  0.14783  0.27652  1.0000
  Fe  Fe72      1.0  0.69487  0.47469  0.25159  1.0000
  S   S148      1.0  0.71907  0.46558  0.27546  1.0000
  Fe  Fe73      1.0  0.65161  0.46182  0.22597  1.0000
  H   H651      1.0  0.57146  0.29976  0.29298  1.0000
  S   S149      1.0  0.62251  0.43615  0.20686  1.0000
  H   H652      1.0  0.59775  0.09299  0.37217  1.0000
  S   S150      1.0  0.68013  0.46829  0.19463  1.0000
  S   S151      1.0  0.66646  0.46616  0.28287  1.0000
  Fe  Fe74      1.0  0.51290  0.29417  0.26326  1.0000
  H   H653      1.0  0.60089  0.10868  0.31672  1.0000
  S   S152      1.0  0.52896  0.27382  0.27806  1.0000
  Fe  Fe75      1.0  0.51974  0.33805  0.25545  1.0000
  H   H654      1.0  0.63596  0.47937  0.30883  1.0000
  S   S153      1.0  0.54467  0.36841  0.27114  1.0000
  H   H655      1.0  0.56176  0.29937  0.23037  1.0000
  H   H656      1.0  0.63717  0.11950  0.30938  1.0000
  H   H657      1.0  0.67694  0.01241  0.07577  1.0000
  H   H658      1.0  0.64621  0.07740  0.33214  1.0000
  S   S154      1.0  0.51353  0.31774  0.30489  1.0000
  S   S155      1.0  0.52064  0.31442  0.21442  1.0000
  H   H659      1.0  0.60585  0.47452  0.36322  1.0000
  C   C551      1.0  0.59232  0.18761  0.24574  1.0000
  H   H660      1.0  0.60889  0.07319  0.25335  1.0000
  C   C552      1.0  0.69139  0.10897  0.03989  1.0000
  C   C553      1.0  0.56434  0.43405  0.25025  1.0000
  H   H661      1.0  0.71632  0.47955  0.34807  1.0000
  H   H662      1.0  0.56914  0.32093  0.20290  1.0000
  C   C554      1.0  0.63380  0.10580  0.29185  1.0000
  C   C555      1.0  0.60168  0.41652  0.22556  1.0000
  C   C556      1.0  0.58671  0.40398  0.20091  1.0000
  C   C557      1.0  0.56965  0.38864  0.21413  1.0000
  C   C558      1.0  0.56702  0.38584  0.25242  1.0000
  C   C559      1.0  0.58206  0.39826  0.27706  1.0000
  C   C560      1.0  0.59935  0.41328  0.26381  1.0000
  H   H663      1.0  0.58825  0.40626  0.17127  1.0000
  H   H664      1.0  0.55822  0.37947  0.19469  1.0000
  H   H665      1.0  0.58022  0.39639  0.30674  1.0000
  H   H666      1.0  0.61067  0.42255  0.28325  1.0000
  C   C561      1.0  0.62698  0.20048  0.26501  1.0000
  C   C562      1.0  0.71153  0.11867  0.09704  1.0000
  C   C563      1.0  0.68838  0.07399  0.12720  1.0000
  C   C564      1.0  0.58189  0.45033  0.25844  1.0000
  C   C565      1.0  0.70566  0.10310  0.02313  1.0000
  C   C566      1.0  0.58605  0.45940  0.29452  1.0000
  C   C567      1.0  0.69425  0.11666  0.07675  1.0000
  H   H667      1.0  0.48413  0.18725  0.32584  1.0000
  H   H668      1.0  0.61906  0.34107  0.29558  1.0000
  C   C568      1.0  0.69068  0.10121  0.35378  1.0000
  C   C569      1.0  0.68576  0.11481  0.37521  1.0000
  C   C570      1.0  0.68694  0.11445  0.41436  1.0000
  C   C571      1.0  0.69352  0.10086  0.43231  1.0000
  C   C572      1.0  0.69897  0.08767  0.41082  1.0000
  C   C573      1.0  0.69730  0.08769  0.37175  1.0000
  H   H669      1.0  0.68051  0.12520  0.36170  1.0000
  C   C574      1.0  0.61312  0.07117  0.28256  1.0000
  C   C575      1.0  0.57451  0.31351  0.22507  1.0000
  H   H670      1.0  0.58663  0.30956  0.21352  1.0000
  C   C576      1.0  0.57326  0.13842  0.25977  1.0000
  C   C577      1.0  0.59141  0.14338  0.27982  1.0000
  C   C578      1.0  0.60829  0.14214  0.26301  1.0000
  C   C579      1.0  0.60725  0.13593  0.22572  1.0000
  C   C580      1.0  0.58906  0.13069  0.20585  1.0000
  C   C581      1.0  0.57217  0.13187  0.22270  1.0000
  H   H671      1.0  0.59247  0.14856  0.30845  1.0000
  H   H672      1.0  0.62209  0.14627  0.27879  1.0000
  H   H673      1.0  0.58803  0.12584  0.17702  1.0000
  H   H674      1.0  0.55838  0.12802  0.20685  1.0000
  C   C582      1.0  0.51668  0.24836  0.26580  1.0000
  C   C583      1.0  0.52385  0.23426  0.27971  1.0000
  C   C584      1.0  0.51367  0.21381  0.27157  1.0000
  C   C585      1.0  0.49617  0.20740  0.24973  1.0000
  H   H675      1.0  0.53743  0.41287  0.27163  1.0000
  C   C586      1.0  0.49958  0.24193  0.24296  1.0000
  H   H676      1.0  0.53711  0.23911  0.29731  1.0000
  H   H677      1.0  0.51905  0.20301  0.28301  1.0000
  H   H678      1.0  0.59699  0.30836  0.28104  1.0000
  H   H679      1.0  0.62223  0.46182  0.27312  1.0000
  H   H680      1.0  0.59596  0.09708  0.27182  1.0000
  C   C587      1.0  0.68441  0.06285  0.09387  1.0000
  H   H681      1.0  0.58455  0.35424  0.20684  1.0000
  H   H682      1.0  0.49365  0.08691  0.06361  1.0000
  C   C588      1.0  0.57156  0.45107  0.32189  1.0000
  C   C589      1.0  0.68916  0.01887  0.05601  1.0000
  H   H683      1.0  0.72687  0.47303  0.19698  1.0000
  H   H684      1.0  0.65416  0.07194  0.39611  1.0000
  N   N37       1.0  0.58131  0.32607  0.25945  1.0000
  H   H685      1.0  0.61125  0.48679  0.24699  1.0000
  C   C590      1.0  0.69594  0.05165  0.08355  1.0000
  H   H686      1.0  0.67724  0.05536  0.01697  1.0000
  H   H687      1.0  0.60314  0.20071  0.29956  1.0000
  H   H688      1.0  0.57688  0.18419  0.25204  1.0000
  Fe  Fe76      1.0  0.48744  0.30598  0.20668  1.0000
  H   H689      1.0  0.70735  0.08385  0.17600  1.0000
  C   C591      1.0  0.49056  0.19937  0.38161  1.0000
  C   C592      1.0  0.56507  0.33202  0.27194  1.0000
  H   H690      1.0  0.54349  0.42812  0.33486  1.0000
  H   H691      1.0  0.49419  0.25265  0.23127  1.0000
  Fe  Fe77      1.0  0.49141  0.15656  0.25444  1.0000
  H   H692      1.0  0.63789  0.20736  0.28695  1.0000
  H   H693      1.0  0.58549  0.17419  0.19112  1.0000
  C   C593      1.0  0.61699  0.34983  0.27303  1.0000
  H   H694      1.0  0.68262  0.12466  0.43081  1.0000
  N   N38       1.0  0.65360  0.19862  0.22331  1.0000
  C   C594      1.0  0.66074  0.18725  0.25002  1.0000
  C   C595      1.0  0.65700  0.19260  0.18518  1.0000
  C   C596      1.0  0.66592  0.22010  0.22856  1.0000
  C   C597      1.0  0.63253  0.19493  0.23023  1.0000
  C   C598      1.0  0.48311  0.19836  0.34532  1.0000
  H   H695      1.0  0.66118  0.03375  0.04151  1.0000
  C   C599      1.0  0.72569  0.11264  0.08035  1.0000
  H   H696      1.0  0.68327  0.12132  0.08923  1.0000
  S   S156      1.0  0.49550  0.10526  0.26692  1.0000
  H   H697      1.0  0.65156  0.17107  0.24730  1.0000
  H   H698      1.0  0.67647  0.18932  0.24531  1.0000
  H   H699      1.0  0.66016  0.19186  0.27942  1.0000
  H   H700      1.0  0.64920  0.17627  0.18010  1.0000
  H   H701      1.0  0.67300  0.19591  0.18065  1.0000
  H   H702      1.0  0.65198  0.20062  0.16354  1.0000
  H   H703      1.0  0.66596  0.22545  0.25767  1.0000
  H   H704      1.0  0.68178  0.22339  0.22231  1.0000
  H   H705      1.0  0.66049  0.22927  0.21005  1.0000
  C   C600      1.0  0.62121  0.46772  0.30142  1.0000
  H   H706      1.0  0.64667  0.37161  0.28248  1.0000
  C   C601      1.0  0.71559  0.06385  0.14154  1.0000
  C   C602      1.0  0.61009  0.08832  0.37571  1.0000
  C   C603      1.0  0.64172  0.07634  0.39032  1.0000
  C   C604      1.0  0.55415  0.43460  0.31345  1.0000
  H   H707      1.0  0.56976  0.34241  0.29651  1.0000
  C   C605      1.0  0.63694  0.07943  0.35368  1.0000
  H   H708      1.0  0.55185  0.31891  0.27970  1.0000
  H   H709      1.0  0.63104  0.10937  0.26272  1.0000
  C   C606      1.0  0.59889  0.09455  0.30154  1.0000
  C   C607      1.0  0.63094  0.07941  0.41961  1.0000
  H   H710      1.0  0.58524  0.08255  0.31132  1.0000
  H   H711      1.0  0.60105  0.05800  0.29373  1.0000
  C   C608      1.0  0.62096  0.08550  0.34516  1.0000
  H   H712      1.0  0.72371  0.04763  0.03846  1.0000
  N   N39       1.0  0.61659  0.08918  0.30612  1.0000
  H   H713      1.0  0.56004  0.33975  0.24987  1.0000
  H   H714      1.0  0.64746  0.10237  0.29166  1.0000
  C   C609      1.0  0.61421  0.37457  0.21614  1.0000
  H   H715      1.0  0.62658  0.06749  0.28071  1.0000
  H   H716      1.0  0.58860  0.32141  0.31620  1.0000
  C   C610      1.0  0.61512  0.08531  0.41233  1.0000
  C   C611      1.0  0.63306  0.36741  0.26582  1.0000
  C   C612      1.0  0.59889  0.34417  0.25188  1.0000
  H   H717      1.0  0.60680  0.08771  0.43530  1.0000
  C   C613      1.0  0.61697  0.18540  0.20360  1.0000
  H   H718      1.0  0.61317  0.38434  0.19431  1.0000
  C   C614      1.0  0.71165  0.05248  0.10848  1.0000
  N   N40       1.0  0.69246  0.03992  0.04825  1.0000
  H   H719      1.0  0.57349  0.45671  0.35022  1.0000
  C   C615      1.0  0.59798  0.35718  0.22335  1.0000
  C   C616      1.0  0.70400  0.07463  0.15082  1.0000
  H   H720      1.0  0.61950  0.17991  0.17692  1.0000
  C   C617      1.0  0.71009  0.04824  0.02494  1.0000
  H   H721      1.0  0.64401  0.39351  0.23220  1.0000
  C   C618      1.0  0.63165  0.37976  0.23748  1.0000
  H   H722      1.0  0.72120  0.04456  0.10227  1.0000
  C   C619      1.0  0.60716  0.19681  0.27254  1.0000
  H   H723      1.0  0.49436  0.26240  0.32927  1.0000
  H   H724      1.0  0.59255  0.45512  0.23658  1.0000
  H   H725      1.0  0.72783  0.06451  0.15991  1.0000
  H   H726      1.0  0.70102  0.07704  0.35535  1.0000
  H   H727      1.0  0.70397  0.07709  0.42430  1.0000
  C   C620      1.0  0.59722  0.18197  0.21136  1.0000
  H   H728      1.0  0.61856  0.45530  0.32104  1.0000
  H   H729      1.0  0.67253  0.06366  0.07638  1.0000
  H   H730      1.0  0.67812  0.10773  0.02417  1.0000
  H   H731      1.0  0.70263  0.01717  0.06798  1.0000
  C   C621      1.0  0.72273  0.10480  0.04375  1.0000
  N   N41       1.0  0.60535  0.47576  0.30312  1.0000
  H   H732      1.0  0.68532  0.00939  0.03015  1.0000
  C   C622      1.0  0.67512  0.04003  0.02583  1.0000
  H   H733      1.0  0.67289  0.03097  0.99963  1.0000
  H   H734      1.0  0.71308  0.06401  0.01842  1.0000
  H   H735      1.0  0.48839  0.26668  0.37597  1.0000
  S   S157      1.0  0.71885  0.19846  0.26928  1.0000
  S   S158      1.0  0.48683  0.33096  0.24431  1.0000
  C   C623      1.0  0.48929  0.22156  0.23522  1.0000
  H   H736      1.0  0.48696  0.07534  0.12807  1.0000
  H   H737      1.0  0.72908  0.16826  0.31313  1.0000
  H   H738      1.0  0.49570  0.21480  0.43455  1.0000
  C   C624      1.0  0.60665  0.48512  0.34064  1.0000
  Fe  Fe78      1.0  0.48200  0.11552  0.21814  1.0000
  H   H739      1.0  0.72825  0.13435  0.32400  1.0000
  S   S159      1.0  0.69453  0.10070  0.48155  1.0000
  C   C625      1.0  0.48980  0.21398  0.40634  1.0000
  H   H740      1.0  0.63503  0.07737  0.44803  1.0000
  C   C626      1.0  0.69094  0.00359  0.48958  1.0000
  H   H741      1.0  0.49713  0.18893  0.39044  1.0000
  H   H742      1.0  0.72590  0.16134  0.07271  1.0000
  H   H743      1.0  0.68866  0.01748  0.49035  1.0000
  C   C627      1.0  0.48174  0.22773  0.39475  1.0000
  H   H744      1.0  0.48183  0.23904  0.41473  1.0000
  C   C628      1.0  0.48201  0.26205  0.34742  1.0000
  C   C629      1.0  0.71793  0.08767  0.73251  1.0000
  S   S160      1.0  0.71294  0.05216  0.92162  1.0000
  S   S161      1.0  0.70364  0.06211  0.55354  1.0000
  H   H745      1.0  0.70210  0.00730  0.94106  1.0000
  H   H746      1.0  0.71058  0.99399  0.58056  1.0000
  H   H747      1.0  0.72215  0.01304  0.61448  1.0000
  S   S162      1.0  0.70183  0.09412  0.97628  1.0000
  S   S163      1.0  0.72611  0.05206  0.81315  1.0000
  C   C630      1.0  0.70243  0.99712  0.96252  1.0000
  C   C631      1.0  0.69203  0.00512  0.65981  1.0000
  Fe  Fe79      1.0  0.71386  0.08791  0.51455  1.0000
  C   C632      1.0  0.68621  0.01290  0.59723  1.0000
  C   C633      1.0  0.71955  0.07981  0.76755  1.0000
  C   C634      1.0  0.72467  0.06121  0.70166  1.0000
  S   S164      1.0  0.72822  0.02443  0.52369  1.0000
  H   H748      1.0  0.67784  0.00597  0.66895  1.0000
  H   H749      1.0  0.69688  0.02833  0.60352  1.0000
  H   H750      1.0  0.71752  0.08708  0.79272  1.0000
  C   C635      1.0  0.70896  0.00308  0.50281  1.0000
  S   S165      1.0  0.71851  0.08925  0.65623  1.0000
  H   H751      1.0  0.67100  0.01249  0.60179  1.0000
  Fe  Fe80      1.0  0.72311  0.08338  0.94559  1.0000
  Fe  Fe81      1.0  0.72492  0.08228  0.59683  1.0000
  H   H752      1.0  0.71466  0.10100  0.73101  1.0000
  C   C636      1.0  0.72052  0.07847  0.69941  1.0000
  H   H753      1.0  0.68748  0.01042  0.56698  1.0000
  C   C637      1.0  0.72351  0.06245  0.76983  1.0000
  H   H754      1.0  0.70357  0.02035  0.66395  1.0000
  C   C638      1.0  0.72591  0.05312  0.73669  1.0000
  H   H755      1.0  0.72700  0.05421  0.67645  1.0000
  C   C639      1.0  0.71872  0.00240  0.98746  1.0000
  C   C640      1.0  0.71014  0.99807  0.61035  1.0000
  N   N42       1.0  0.69051  0.99814  0.62039  1.0000
  H   H756      1.0  0.69633  0.99536  0.67883  1.0000
  Fe  Fe82      1.0  0.73033  0.05661  0.53383  1.0000
  H   H757      1.0  0.72906  0.03973  0.73819  1.0000
  S   S166      1.0  0.70030  0.50715  0.25148  1.0000
  S   S167      1.0  0.69657  0.52674  0.15661  1.0000
  H   H758      1.0  0.67766  0.49724  0.37731  1.0000
  S   S168      1.0  0.66507  0.51903  0.32118  1.0000
  Fe  Fe83      1.0  0.65733  0.87280  0.05336  1.0000
  S   S169      1.0  0.62831  0.86420  0.08173  1.0000
  S   S170      1.0  0.67377  0.85172  0.05747  1.0000
  Fe  Fe84      1.0  0.65675  0.91336  0.02878  1.0000
  S   S171      1.0  0.62736  0.90684  0.05597  1.0000
  H   H759      1.0  0.71544  0.56233  0.11605  1.0000
  Fe  Fe85      1.0  0.64024  0.89563  0.10445  1.0000
  S   S172      1.0  0.63909  0.90718  0.16376  1.0000
  Fe  Fe86      1.0  0.61830  0.87612  0.03057  1.0000
  S   S173      1.0  0.67013  0.90392  0.07863  1.0000
  H   H760      1.0  0.59708  0.49738  0.27420  1.0000
  Fe  Fe87      1.0  0.60973  0.68756  0.02527  1.0000
  Fe  Fe88      1.0  0.63197  0.70411  0.10129  1.0000
  S   S174      1.0  0.65799  0.72527  0.07072  1.0000
  S   S175      1.0  0.63819  0.71123  0.16427  1.0000
  Fe  Fe89      1.0  0.63587  0.73154  0.03402  1.0000
  S   S176      1.0  0.63037  0.75929  0.01750  1.0000
  Fe  Fe90      1.0  0.65432  0.69926  0.03189  1.0000
  S   S177      1.0  0.68251  0.69414  0.01635  1.0000
  S   S178      1.0  0.61003  0.71163  0.06583  1.0000
  S   S179      1.0  0.62933  0.67772  0.06389  1.0000
  S   S180      1.0  0.64193  0.71529  0.48950  1.0000
  H   H761      1.0  0.61586  0.73616  0.16943  1.0000
  Fe  Fe91      1.0  0.63057  0.88034  0.38465  1.0000
  S   S181      1.0  0.66206  0.89741  0.40449  1.0000
  S   S182      1.0  0.62126  0.86855  0.32451  1.0000
  Fe  Fe92      1.0  0.65633  0.87290  0.44604  1.0000
  S   S183      1.0  0.67785  0.85743  0.45597  1.0000
  Fe  Fe93      1.0  0.64936  0.91215  0.44733  1.0000
  H   H762      1.0  0.65235  0.77340  0.11260  1.0000
  S   S184      1.0  0.62582  0.85531  0.42449  1.0000
  S   S185      1.0  0.61775  0.89614  0.42497  1.0000
  H   H763      1.0  0.64686  0.57469  0.00666  1.0000
  C   C641      1.0  0.68603  0.67231  0.00076  1.0000
  C   C642      1.0  0.66977  0.56459  0.05463  1.0000
  H   H764      1.0  0.61878  0.76975  0.09373  1.0000
  Fe  Fe94      1.0  0.61952  0.70196  0.38865  1.0000
  S   S186      1.0  0.65215  0.71169  0.40199  1.0000
  S   S187      1.0  0.60606  0.69082  0.33006  1.0000
  Fe  Fe95      1.0  0.64328  0.69125  0.45085  1.0000
  C   C643      1.0  0.57210  0.86446  0.20347  1.0000
  Fe  Fe96      1.0  0.64742  0.73481  0.43936  1.0000
  S   S188      1.0  0.66976  0.76673  0.44565  1.0000
  S   S189      1.0  0.61061  0.68034  0.43601  1.0000
  S   S190      1.0  0.61527  0.72612  0.42371  1.0000
  H   H765      1.0  0.70782  0.49878  0.33575  1.0000
  H   H766      1.0  0.65766  0.56272  0.14683  1.0000
  H   H767      1.0  0.62340  0.50464  0.28246  1.0000
  H   H768      1.0  0.54971  0.85788  0.13847  1.0000
  C   C644      1.0  0.64610  0.76409  0.13699  1.0000
  C   C645      1.0  0.67375  0.83172  0.45210  1.0000
  H   H769      1.0  0.72371  0.68000  0.46411  1.0000
  H   H770      1.0  0.69840  0.95325  0.48680  1.0000
  C   C646      1.0  0.67022  0.79144  0.44668  1.0000
  C   C647      1.0  0.65430  0.79678  0.43535  1.0000
  C   C648      1.0  0.65602  0.81691  0.43825  1.0000
  C   C649      1.0  0.63267  0.78729  0.16256  1.0000
  C   C650      1.0  0.65995  0.55755  0.11955  1.0000
  H   H771      1.0  0.64079  0.78553  0.42406  1.0000
  H   H772      1.0  0.64369  0.82092  0.42990  1.0000
  C   C651      1.0  0.59218  0.89976  0.24365  1.0000
  S   S191      1.0  0.65771  0.94584  0.45833  1.0000
  H   H773      1.0  0.59950  0.76376  0.12715  1.0000
  C   C652      1.0  0.59056  0.90008  0.20483  1.0000
  C   C653      1.0  0.68777  0.80638  0.46005  1.0000
  C   C654      1.0  0.62878  0.70519  0.20999  1.0000
  C   C655      1.0  0.61041  0.69014  0.21660  1.0000
  C   C656      1.0  0.60372  0.68607  0.25340  1.0000
  C   C657      1.0  0.61519  0.69698  0.28416  1.0000
  C   C658      1.0  0.63351  0.71214  0.27750  1.0000
  C   C659      1.0  0.64023  0.71615  0.24074  1.0000
  H   H774      1.0  0.60136  0.68158  0.19340  1.0000
  H   H775      1.0  0.58950  0.67436  0.25805  1.0000
  H   H776      1.0  0.64251  0.72079  0.30066  1.0000
  H   H777      1.0  0.65446  0.72785  0.23610  1.0000
  Fe  Fe97      1.0  0.68371  0.50061  0.19620  1.0000
  C   C660      1.0  0.65742  0.53770  0.11416  1.0000
  H   H778      1.0  0.58811  0.86931  0.09538  1.0000
  H   H779      1.0  0.65786  0.76818  0.15931  1.0000
  S   S192      1.0  0.58012  0.66882  0.99602  1.0000
  C   C661      1.0  0.62837  0.87951  0.28034  1.0000
  C   C662      1.0  0.62362  0.86715  0.24811  1.0000
  C   C663      1.0  0.62751  0.87525  0.21226  1.0000
  C   C664      1.0  0.63596  0.89589  0.20816  1.0000
  C   C665      1.0  0.64108  0.90819  0.24041  1.0000
  C   C666      1.0  0.63749  0.90008  0.27627  1.0000
  H   H780      1.0  0.61649  0.85123  0.25091  1.0000
  H   H781      1.0  0.62340  0.86557  0.18785  1.0000
  H   H782      1.0  0.64758  0.92417  0.23763  1.0000
  H   H783      1.0  0.64115  0.90981  0.30068  1.0000
  C   C667      1.0  0.66166  0.82604  0.04632  1.0000
  C   C668      1.0  0.64214  0.81824  0.03223  1.0000
  C   C669      1.0  0.63290  0.79778  0.02353  1.0000
  C   C670      1.0  0.64294  0.78484  0.02929  1.0000
  C   C671      1.0  0.66240  0.79256  0.04373  1.0000
  C   C672      1.0  0.67174  0.81310  0.05207  1.0000
  H   H784      1.0  0.70330  0.62952  0.35635  1.0000
  H   H785      1.0  0.70123  0.60650  0.01391  1.0000
  H   H786      1.0  0.67038  0.78281  0.04791  1.0000
  H   H787      1.0  0.66970  0.53800  0.02424  1.0000
  S   S193      1.0  0.72959  0.64540  0.49089  1.0000
  S   S194      1.0  0.70156  0.54214  0.48657  1.0000
  H   H788      1.0  0.58136  0.85355  0.13460  1.0000
  C   C673      1.0  0.67666  0.52583  0.36608  1.0000
  C   C674      1.0  0.68105  0.51217  0.38801  1.0000
  C   C675      1.0  0.68888  0.51752  0.42457  1.0000
  C   C676      1.0  0.69263  0.53664  0.43961  1.0000
  C   C677      1.0  0.68831  0.55035  0.41761  1.0000
  C   C678      1.0  0.68014  0.54487  0.38123  1.0000
  H   H789      1.0  0.56805  0.85045  0.25699  1.0000
  H   H790      1.0  0.69180  0.50670  0.44160  1.0000
  H   H791      1.0  0.69084  0.56501  0.42893  1.0000
  H   H792      1.0  0.67647  0.55544  0.36479  1.0000
  C   C679      1.0  0.70323  0.53041  0.10904  1.0000
  C   C680      1.0  0.69940  0.51462  0.08344  1.0000
  C   C681      1.0  0.70412  0.51847  0.04566  1.0000
  C   C682      1.0  0.71287  0.53808  0.03302  1.0000
  H   H793      1.0  0.62112  0.49786  0.34549  1.0000
  C   C683      1.0  0.71233  0.55001  0.09650  1.0000
  H   H794      1.0  0.59016  0.75138  0.99365  1.0000
  C   C684      1.0  0.58398  0.88194  0.26232  1.0000
  H   H795      1.0  0.58581  0.90120  0.09476  1.0000
  H   H796      1.0  0.69070  0.83622  0.27711  1.0000
  H   H797      1.0  0.64928  0.83431  0.12678  1.0000
  H   H798      1.0  0.65352  0.52758  0.13722  1.0000
  H   H799      1.0  0.59805  0.91429  0.19225  1.0000
  H   H800      1.0  0.60830  0.74520  0.11035  1.0000
  Fe  Fe98      1.0  0.60976  0.70537  0.47254  1.0000
  N   N43       1.0  0.67661  0.57909  0.02442  1.0000
  C   C685      1.0  0.63980  0.80291  0.13681  1.0000
  C   C686      1.0  0.66678  0.54415  0.04995  1.0000
  C   C687      1.0  0.66107  0.58696  0.01499  1.0000
  H   H801      1.0  0.63073  0.75380  0.20326  1.0000
  S   S195      1.0  0.64679  0.88283  0.00094  1.0000
  H   H802      1.0  0.69247  0.49947  0.09258  1.0000
  H   H803      1.0  0.62522  0.78207  0.22149  1.0000
  C   C688      1.0  0.72876  0.53917  0.34904  1.0000
  C   C689      1.0  0.64093  0.82756  0.18362  1.0000
  H   H804      1.0  0.59476  0.49108  0.34411  1.0000
  H   H805      1.0  0.64312  0.74846  0.12805  1.0000
  C   C690      1.0  0.58754  0.90196  0.12569  1.0000
  H   H806      1.0  0.70660  0.59051  0.04636  1.0000
  C   C691      1.0  0.66584  0.57080  0.09021  1.0000
  Fe  Fe99      1.0  0.67091  0.49848  0.27833  1.0000
  C   C692      1.0  0.70304  0.97005  0.01726  1.0000
  S   S196      1.0  0.65157  0.66507  0.46850  1.0000
  H   H807      1.0  0.69162  0.84420  0.21161  1.0000
  H   H808      1.0  0.70075  0.50615  0.02598  1.0000
  H   H809      1.0  0.60380  0.90876  0.13185  1.0000
  H   H810      1.0  0.61786  0.79199  0.01227  1.0000
  C   C693      1.0  0.55724  0.87363  0.13042  1.0000
  H   H811      1.0  0.60588  0.75242  0.19111  1.0000
  C   C694      1.0  0.57397  0.86432  0.24228  1.0000
  H   H812      1.0  0.56449  0.85036  0.18919  1.0000
  N   N44       1.0  0.64659  0.65982  0.33547  1.0000
  C   C695      1.0  0.65698  0.68120  0.32763  1.0000
  C   C696      1.0  0.63310  0.65007  0.30336  1.0000
  C   C697      1.0  0.63400  0.65834  0.36816  1.0000
  C   C698      1.0  0.66149  0.65071  0.34137  1.0000
  C   C699      1.0  0.66482  0.64335  0.37635  1.0000
  C   C700      1.0  0.67401  0.65000  0.31208  1.0000
  C   C701      1.0  0.67972  0.63580  0.38142  1.0000
  C   C702      1.0  0.68880  0.64229  0.31741  1.0000
  C   C703      1.0  0.69167  0.63525  0.35205  1.0000
  H   H813      1.0  0.66477  0.68361  0.30080  1.0000
  H   H814      1.0  0.64646  0.68900  0.32584  1.0000
  H   H815      1.0  0.66821  0.68881  0.35001  1.0000
  H   H816      1.0  0.64090  0.65232  0.27658  1.0000
  H   H817      1.0  0.62130  0.65627  0.29946  1.0000
  H   H818      1.0  0.62565  0.63378  0.30746  1.0000
  H   H819      1.0  0.64291  0.66687  0.39258  1.0000
  H   H820      1.0  0.62246  0.66461  0.36257  1.0000
  H   H821      1.0  0.62605  0.64263  0.37622  1.0000
  H   H822      1.0  0.65632  0.64351  0.40053  1.0000
  H   H823      1.0  0.67269  0.65575  0.28500  1.0000
  H   H824      1.0  0.68220  0.63060  0.40854  1.0000
  H   H825      1.0  0.69826  0.64200  0.29470  1.0000
  C   C704      1.0  0.69495  0.59593  0.03678  1.0000
  C   C705      1.0  0.58839  0.86932  0.12644  1.0000
  C   C706      1.0  0.71727  0.55383  0.05885  1.0000
  H   H826      1.0  0.65900  0.51561  0.07556  1.0000
  H   H827      1.0  0.60058  0.91331  0.25934  1.0000
  H   H828      1.0  0.71767  0.68537  0.01091  1.0000
  C   C707      1.0  0.61298  0.76111  0.11912  1.0000
  H   H829      1.0  0.66180  0.98668  0.46575  1.0000
  H   H830      1.0  0.68313  0.87232  0.19012  1.0000
  N   N45       1.0  0.57848  0.88200  0.14229  1.0000
  C   C708      1.0  0.68696  0.96463  0.99180  1.0000
  H   H831      1.0  0.62879  0.76583  0.47596  1.0000
  H   H832      1.0  0.55534  0.87377  0.09957  1.0000
  C   C709      1.0  0.68952  0.82623  0.46269  1.0000
  H   H833      1.0  0.64386  0.84289  0.19150  1.0000
  C   C710      1.0  0.61974  0.75172  0.17998  1.0000
  C   C711      1.0  0.58035  0.88236  0.18349  1.0000
  H   H834      1.0  0.71044  0.87835  0.34612  1.0000
  H   H835      1.0  0.68687  0.81904  0.06288  1.0000
  H   H836      1.0  0.63423  0.82802  0.02765  1.0000
  H   H837      1.0  0.63220  0.81664  0.23827  1.0000
  H   H838      1.0  0.64224  0.79990  0.10823  1.0000
  C   C712      1.0  0.63429  0.81269  0.20989  1.0000
  C   C713      1.0  0.64386  0.82270  0.14722  1.0000
  H   H839      1.0  0.70351  0.95970  0.03830  1.0000
  N   N46       1.0  0.68102  0.85630  0.33687  1.0000
  C   C714      1.0  0.66087  0.85208  0.35091  1.0000
  C   C715      1.0  0.68660  0.83924  0.34673  1.0000
  C   C716      1.0  0.69521  0.87423  0.35676  1.0000
  C   C717      1.0  0.68122  0.86003  0.29641  1.0000
  C   C718      1.0  0.67610  0.87581  0.28281  1.0000
  C   C719      1.0  0.68670  0.84858  0.26957  1.0000
  C   C720      1.0  0.67685  0.88013  0.24496  1.0000
  C   C721      1.0  0.68731  0.85301  0.23169  1.0000
  C   C722      1.0  0.68253  0.86883  0.21946  1.0000
  H   H840      1.0  0.64947  0.83953  0.33512  1.0000
  H   H841      1.0  0.65987  0.84827  0.38089  1.0000
  H   H842      1.0  0.65647  0.86507  0.34873  1.0000
  H   H843      1.0  0.70194  0.84169  0.33830  1.0000
  H   H844      1.0  0.67604  0.82504  0.33399  1.0000
  H   H845      1.0  0.68636  0.83702  0.37740  1.0000
  H   H846      1.0  0.69100  0.88736  0.35390  1.0000
  H   H847      1.0  0.69594  0.87185  0.38724  1.0000
  H   H848      1.0  0.60418  0.87474  0.13620  1.0000
  H   H849      1.0  0.67149  0.88499  0.30142  1.0000
  H   H850      1.0  0.69242  0.60494  0.05984  1.0000
  H   H851      1.0  0.67300  0.89236  0.23534  1.0000
  C   C723      1.0  0.71677  0.49447  0.35688  1.0000
  C   C724      1.0  0.63026  0.79282  0.19975  1.0000
  H   H852      1.0  0.70329  0.83745  0.47317  1.0000
  C   C725      1.0  0.70769  0.65042  0.48362  1.0000
  H   H853      1.0  0.54910  0.88230  0.14307  1.0000
  N   N47       1.0  0.62792  0.76640  0.15024  1.0000
  H   H854      1.0  0.58599  0.88170  0.29230  1.0000
  H   H855      1.0  0.58064  0.91229  0.13603  1.0000
  H   H856      1.0  0.70907  0.49277  0.38377  1.0000
  C   C726      1.0  0.70545  0.67255  0.99970  1.0000
  H   H857      1.0  0.65811  0.59536  0.03864  1.0000
  C   C727      1.0  0.66057  0.53098  0.07934  1.0000
  C   C728      1.0  0.67353  0.65994  0.47324  1.0000
  S   S197      1.0  0.66693  0.94090  0.99176  1.0000
  S   S198      1.0  0.58853  0.85706  0.00279  1.0000
  H   H858      1.0  0.66761  0.58604  0.09574  1.0000
  S   S199      1.0  0.65424  0.49384  0.22320  1.0000
  C   C729      1.0  0.67811  0.96765  0.47448  1.0000
  C   C730      1.0  0.72830  0.55754  0.35982  1.0000
  C   C731      1.0  0.67196  0.64120  0.48619  1.0000
  C   C732      1.0  0.70925  0.66908  0.47026  1.0000
  H   H859      1.0  0.72217  0.53304  0.32218  1.0000
  H   H860      1.0  0.69375  0.68829  0.45499  1.0000
  C   C733      1.0  0.69228  0.67384  0.46504  1.0000
  H   H861      1.0  0.72439  0.56894  0.04977  1.0000
  H   H862      1.0  0.70022  0.80258  0.46863  1.0000
  H   H863      1.0  0.72151  0.56506  0.34146  1.0000
  Fe  Fe100     1.0  0.61604  0.87262  0.46671  1.0000
  C   C734      1.0  0.67568  0.98603  0.47561  1.0000
  H   H864      1.0  0.69315  0.56476  0.99458  1.0000
  C   C735      1.0  0.60934  0.49177  0.27549  1.0000
  C   C736      1.0  0.69621  0.96718  0.48736  1.0000
  C   C737      1.0  0.71881  0.98878  0.01498  1.0000
  C   C738      1.0  0.68890  0.63643  0.49131  1.0000
  S   S200      1.0  0.64667  0.88911  0.49095  1.0000
  S   S201      1.0  0.63462  0.70777  0.99184  1.0000
  C   C739      1.0  0.72793  0.59654  0.69597  1.0000
  S   S202      1.0  0.53620  0.67339  0.73044  1.0000
  H   H865      1.0  0.50270  0.67608  0.66084  1.0000
  S   S203      1.0  0.52755  0.62630  0.74246  1.0000
  Fe  Fe101     1.0  0.53445  0.65357  0.77934  1.0000
  S   S204      1.0  0.56117  0.66306  0.82040  1.0000
  Fe  Fe102     1.0  0.52707  0.64583  0.69434  1.0000
  S   S205      1.0  0.54005  0.64331  0.63764  1.0000
  S   S206      1.0  0.53260  0.85811  0.74356  1.0000
  Fe  Fe103     1.0  0.53249  0.80590  0.75644  1.0000
  S   S207      1.0  0.56007  0.83365  0.76457  1.0000
  S   S208      1.0  0.53936  0.77864  0.76946  1.0000
  Fe  Fe104     1.0  0.54055  0.84563  0.79570  1.0000
  S   S209      1.0  0.55073  0.86721  0.84580  1.0000
  Fe  Fe105     1.0  0.55017  0.84386  0.71179  1.0000
  S   S210      1.0  0.57284  0.86400  0.67195  1.0000
  S   S211      1.0  0.51325  0.81742  0.79080  1.0000
  S   S212      1.0  0.52383  0.81532  0.70129  1.0000
  H   H866      1.0  0.54694  0.89242  0.60903  1.0000
  H   H867      1.0  0.50106  0.56567  0.86897  1.0000
  C   C740      1.0  0.60163  0.85633  0.84642  1.0000
  H   H868      1.0  0.62761  0.90777  0.94767  1.0000
  S   S213      1.0  0.71231  0.57935  0.90783  1.0000
  S   S214      1.0  0.69788  0.62118  0.94155  1.0000
  H   H869      1.0  0.52603  0.70542  0.68730  1.0000
  C   C741      1.0  0.61064  0.85822  0.88158  1.0000
  H   H870      1.0  0.65488  0.77934  0.56826  1.0000
  C   C742      1.0  0.49905  0.87719  0.86862  1.0000
  C   C743      1.0  0.62700  0.79017  0.53101  1.0000
  H   H871      1.0  0.50118  0.88473  0.79588  1.0000
  C   C744      1.0  0.61664  0.89204  0.83968  1.0000
  C   C745      1.0  0.50593  0.74757  0.74151  1.0000
  H   H872      1.0  0.58223  0.63098  0.89716  1.0000
  C   C746      1.0  0.52607  0.85373  0.54668  1.0000
  H   H873      1.0  0.49917  0.67218  0.61178  1.0000
  H   H874      1.0  0.53533  0.87085  0.65544  1.0000
  H   H875      1.0  0.52554  0.71573  0.83404  1.0000
  Fe  Fe106     1.0  0.49509  0.62074  0.74994  1.0000
  S   S215      1.0  0.70637  0.59387  0.54329  1.0000
  C   C747      1.0  0.52405  0.85641  0.64534  1.0000
  H   H876      1.0  0.60252  0.72714  0.97385  1.0000
  H   H877      1.0  0.56722  0.88346  0.50238  1.0000
  C   C748      1.0  0.52948  0.59355  0.91835  1.0000
  C   C749      1.0  0.60458  0.87319  0.82558  1.0000
  H   H878      1.0  0.64081  0.93810  0.65634  1.0000
  H   H879      1.0  0.51672  0.87173  0.80847  1.0000
  H   H880      1.0  0.65911  0.80790  0.53283  1.0000
  H   H881      1.0  0.50338  0.82658  0.59912  1.0000
  C   C750      1.0  0.68141  0.70415  0.84415  1.0000
  C   C751      1.0  0.52756  0.70867  0.59310  1.0000
  C   C752      1.0  0.64201  0.93086  0.86586  1.0000
  H   H882      1.0  0.56779  0.76135  0.90216  1.0000
  H   H883      1.0  0.56473  0.73618  0.98224  1.0000
  C   C753      1.0  0.55607  0.87860  0.52352  1.0000
  C   C754      1.0  0.49047  0.84331  0.84707  1.0000
  H   H884      1.0  0.71082  0.64154  0.56249  1.0000
  H   H885      1.0  0.57602  0.76073  0.96389  1.0000
  H   H886      1.0  0.49241  0.87204  0.89597  1.0000
  H   H887      1.0  0.49659  0.87502  0.59148  1.0000
  C   C755      1.0  0.49492  0.72724  0.73371  1.0000
  C   C756      1.0  0.49736  0.83847  0.60297  1.0000
  C   C757      1.0  0.69377  0.64030  0.96744  1.0000
  Fe  Fe107     1.0  0.71791  0.57252  0.51505  1.0000
  H   H888      1.0  0.70240  0.63098  0.66115  1.0000
  H   H889      1.0  0.72314  0.71990  0.85444  1.0000
  H   H890      1.0  0.71924  0.63357  0.60378  1.0000
  C   C758      1.0  0.64938  0.94704  0.63414  1.0000
  C   C759      1.0  0.62260  0.87699  0.89606  1.0000
  C   C760      1.0  0.56265  0.86401  0.88767  1.0000
  C   C761      1.0  0.57365  0.88087  0.90982  1.0000
  C   C762      1.0  0.58240  0.87900  0.94426  1.0000
  C   C763      1.0  0.57997  0.86018  0.95737  1.0000
  C   C764      1.0  0.56885  0.84330  0.93536  1.0000
  C   C765      1.0  0.56047  0.84519  0.90048  1.0000
  H   H891      1.0  0.57519  0.89546  0.90045  1.0000
  H   H892      1.0  0.60784  0.84515  0.89825  1.0000
  H   H893      1.0  0.56657  0.82865  0.94547  1.0000
  H   H894      1.0  0.55190  0.83206  0.88401  1.0000
  C   C766      1.0  0.57786  0.86015  0.62479  1.0000
  C   C767      1.0  0.59356  0.87507  0.60745  1.0000
  C   C768      1.0  0.59767  0.87311  0.56973  1.0000
  C   C769      1.0  0.58592  0.85628  0.54870  1.0000
  C   C770      1.0  0.57035  0.84126  0.56612  1.0000
  C   C771      1.0  0.56642  0.84308  0.60399  1.0000
  H   H895      1.0  0.60253  0.88830  0.62326  1.0000
  H   H896      1.0  0.60963  0.88482  0.55670  1.0000
  H   H897      1.0  0.56115  0.82821  0.55008  1.0000
  H   H898      1.0  0.55447  0.83135  0.61693  1.0000
  H   H899      1.0  0.61328  0.91706  0.91743  1.0000
  C   C772      1.0  0.52214  0.71897  0.75726  1.0000
  C   C773      1.0  0.53309  0.73921  0.76507  1.0000
  C   C774      1.0  0.52503  0.75358  0.75750  1.0000
  H   H900      1.0  0.52663  0.62581  0.83326  1.0000
  H   H901      1.0  0.59712  0.87164  0.79859  1.0000
  H   H902      1.0  0.52851  0.70807  0.76351  1.0000
  H   H903      1.0  0.54789  0.74377  0.77729  1.0000
  C   C775      1.0  0.56569  0.66497  0.86948  1.0000
  C   C776      1.0  0.58547  0.67291  0.88299  1.0000
  C   C777      1.0  0.59006  0.67439  0.92151  1.0000
  C   C778      1.0  0.57491  0.66778  0.94720  1.0000
  C   C779      1.0  0.55510  0.65989  0.93376  1.0000
  C   C780      1.0  0.55047  0.65864  0.89517  1.0000
  H   H904      1.0  0.59733  0.67779  0.86342  1.0000
  H   H905      1.0  0.60532  0.68036  0.93137  1.0000
  H   H906      1.0  0.54324  0.65470  0.95336  1.0000
  H   H907      1.0  0.53519  0.65274  0.88541  1.0000
  C   C781      1.0  0.55567  0.66142  0.60703  1.0000
  C   C782      1.0  0.56000  0.65512  0.57223  1.0000
  C   C783      1.0  0.57141  0.66895  0.54627  1.0000
  C   C784      1.0  0.57844  0.68937  0.55453  1.0000
  C   C785      1.0  0.57444  0.69568  0.58964  1.0000
  C   C786      1.0  0.56338  0.68180  0.61590  1.0000
  H   H908      1.0  0.55424  0.63941  0.56506  1.0000
  H   H909      1.0  0.57419  0.66381  0.51937  1.0000
  H   H910      1.0  0.57970  0.71141  0.59638  1.0000
  H   H911      1.0  0.56069  0.68681  0.64288  1.0000
  N   N48       1.0  0.48929  0.86271  0.83792  1.0000
  C   C787      1.0  0.68014  0.61637  0.59866  1.0000
  N   N49       1.0  0.58490  0.73832  0.93821  1.0000
  H   H912      1.0  0.63347  0.69946  0.85452  1.0000
  H   H913      1.0  0.49496  0.85922  0.78009  1.0000
  H   H914      1.0  0.66555  0.61020  0.61208  1.0000
  C   C788      1.0  0.56877  0.73187  0.90937  1.0000
  C   C789      1.0  0.55985  0.71189  0.89586  1.0000
  C   C790      1.0  0.56157  0.74582  0.89372  1.0000
  H   H915      1.0  0.59192  0.84181  0.83566  1.0000
  C   C791      1.0  0.53758  0.72024  0.85462  1.0000
  H   H916      1.0  0.52908  0.57633  0.82223  1.0000
  S   S216      1.0  0.48907  0.68752  0.73096  1.0000
  H   H917      1.0  0.53895  0.85157  0.49395  1.0000
  C   C792      1.0  0.64431  0.80793  0.53075  1.0000
  C   C793      1.0  0.68560  0.69796  0.87967  1.0000
  C   C794      1.0  0.66279  0.70468  0.83540  1.0000
  C   C795      1.0  0.71154  0.64321  0.59336  1.0000
  C   C796      1.0  0.55822  0.88993  0.55603  1.0000
  C   C797      1.0  0.72000  0.70403  0.86065  1.0000
  C   C798      1.0  0.65860  0.67239  0.56864  1.0000
  C   C799      1.0  0.64613  0.93939  0.59777  1.0000
  H   H918      1.0  0.68463  0.68915  0.53893  1.0000
  H   H919      1.0  0.50893  0.61937  0.86961  1.0000
  H   H920      1.0  0.52253  0.67475  0.63421  1.0000
  C   C800      1.0  0.52444  0.58904  0.81705  1.0000
  C   C801      1.0  0.50053  0.70838  0.63160  1.0000
  C   C802      1.0  0.52784  0.86494  0.58028  1.0000
  H   H921      1.0  0.54613  0.70953  0.65676  1.0000
  H   H922      1.0  0.53555  0.72803  0.66284  1.0000
  H   H923      1.0  0.54100  0.75094  0.85485  1.0000
  C   C803      1.0  0.60288  0.75360  0.92282  1.0000
  H   H924      1.0  0.62792  0.93263  0.85788  1.0000
  H   H925      1.0  0.69134  0.66938  0.91902  1.0000
  S   S217      1.0  0.59024  0.70754  0.52065  1.0000
  H   H926      1.0  0.67933  0.63406  0.66393  1.0000
  H   H927      1.0  0.65984  0.70940  0.80817  1.0000
  C   C804      1.0  0.54551  0.73574  0.55134  1.0000
  S   S218      1.0  0.71770  0.54210  0.98477  1.0000
  C   C805      1.0  0.60736  0.81100  0.52220  1.0000
  H   H928      1.0  0.49292  0.86782  0.63944  1.0000
  H   H929      1.0  0.60750  0.74786  0.89727  1.0000
  C   C806      1.0  0.51027  0.68037  0.63389  1.0000
  H   H930      1.0  0.50498  0.72479  0.63205  1.0000
  C   C807      1.0  0.54007  0.86055  0.51888  1.0000
  H   H931      1.0  0.53473  0.74031  0.60385  1.0000
  C   C808      1.0  0.68676  0.97837  0.96462  1.0000
  H   H932      1.0  0.57786  0.70995  0.96473  1.0000
  H   H933      1.0  0.63469  0.65301  0.60046  1.0000
  H   H934      1.0  0.53702  0.60110  0.80448  1.0000
  N   N50       1.0  0.51773  0.70224  0.62893  1.0000
  C   C809      1.0  0.53570  0.72919  0.58457  1.0000
  C   C810      1.0  0.50297  0.71288  0.74175  1.0000
  S   S219      1.0  0.49417  0.63828  0.69912  1.0000
  C   C811      1.0  0.54621  0.74003  0.86672  1.0000
  Fe  Fe108     1.0  0.50653  0.82910  0.73627  1.0000
  H   H935      1.0  0.48701  0.83379  0.62662  1.0000
  C   C812      1.0  0.56759  0.62019  0.90287  1.0000
  H   H936      1.0  0.59473  0.77946  0.52509  1.0000
  H   H937      1.0  0.64934  0.92862  0.84028  1.0000
  C   C813      1.0  0.71148  0.98475  0.50134  1.0000
  C   C814      1.0  0.54426  0.59989  0.94648  1.0000
  C   C815      1.0  0.69380  0.63965  0.64993  1.0000
  H   H938      1.0  0.72531  0.98408  0.51139  1.0000
  S   S220      1.0  0.58917  0.85395  0.50017  1.0000
  H   H939      1.0  0.72758  0.61044  0.78767  1.0000
  H   H940      1.0  0.60058  0.76741  0.91548  1.0000
  H   H941      1.0  0.61564  0.75821  0.94317  1.0000
  C   C816      1.0  0.50415  0.87279  0.61729  1.0000
  H   H942      1.0  0.55552  0.72710  0.50038  1.0000
  C   C817      1.0  0.51350  0.61359  0.84405  1.0000
  H   H943      1.0  0.66558  0.90989  0.88052  1.0000
  Fe  Fe109     1.0  0.50359  0.66504  0.73820  1.0000
  H   H944      1.0  0.66549  0.59742  0.99141  1.0000
  C   C818      1.0  0.70192  0.67571  0.89657  1.0000
  C   C819      1.0  0.53198  0.71177  0.66014  1.0000
  S   S221      1.0  0.50226  0.64725  0.78972  1.0000
  H   H945      1.0  0.53809  0.69094  0.85866  1.0000
  H   H946      1.0  0.69577  0.66611  0.87133  1.0000
  C   C820      1.0  0.64996  0.65677  0.59266  1.0000
  H   H947      1.0  0.50616  0.84446  0.84961  1.0000
  H   H948      1.0  0.72438  0.65726  0.98213  1.0000
  H   H949      1.0  0.65188  0.94537  0.87879  1.0000
  H   H950      1.0  0.68626  0.58171  0.96764  1.0000
  H   H951      1.0  0.67740  0.61432  0.56800  1.0000
  C   C821      1.0  0.66077  0.64576  0.60601  1.0000
  H   H952      1.0  0.66539  0.97105  0.67079  1.0000
  N   N51       1.0  0.69143  0.63761  0.60882  1.0000
  H   H953      1.0  0.72129  0.65875  0.60121  1.0000
  C   C822      1.0  0.62458  0.82807  0.52252  1.0000
  H   H954      1.0  0.59928  0.75619  0.56063  1.0000
  C   C823      1.0  0.59055  0.72189  0.95192  1.0000
  C   C824      1.0  0.68054  0.64989  0.59510  1.0000
  H   H955      1.0  0.68827  0.60680  0.60757  1.0000
  H   H956      1.0  0.61637  0.74483  0.57062  1.0000
  C   C825      1.0  0.61531  0.75958  0.56608  1.0000
  C   C826      1.0  0.55292  0.61413  0.87463  1.0000
  C   C827      1.0  0.49878  0.57953  0.86173  1.0000
  H   H957      1.0  0.56445  0.70030  0.90564  1.0000
  C   C828      1.0  0.66363  0.96609  0.64204  1.0000
  Fe  Fe110     1.0  0.72952  0.57155  0.95370  1.0000
  H   H958      1.0  0.50130  0.61045  0.82287  1.0000
  H   H959      1.0  0.55683  0.62089  0.84781  1.0000
  H   H960      1.0  0.65456  0.94478  0.54072  1.0000
  C   C829      1.0  0.65152  0.69294  0.89642  1.0000
  C   C830      1.0  0.67507  0.97805  0.61333  1.0000
  H   H961      1.0  0.51513  0.88755  0.62668  1.0000
  H   H962      1.0  0.71406  0.98721  0.62706  1.0000
  H   H963      1.0  0.65339  0.63378  0.62454  1.0000
  S   S222      1.0  0.72191  0.60309  0.65083  1.0000
  H   H964      1.0  0.66215  0.62741  0.95677  1.0000
  H   H965      1.0  0.49163  0.58414  0.88519  1.0000
  C   C831      1.0  0.57864  0.74704  0.97080  1.0000
  C   C832      1.0  0.67004  0.69237  0.90549  1.0000
  H   H966      1.0  0.70180  0.65548  0.65876  1.0000
  C   C833      1.0  0.64299  0.82654  0.52672  1.0000
  H   H967      1.0  0.71521  0.69491  0.83449  1.0000
  N   N52       1.0  0.51773  0.59559  0.85178  1.0000
  H   H968      1.0  0.63680  0.93347  0.93683  1.0000
  H   H969      1.0  0.48984  0.70212  0.60781  1.0000
  H   H970      1.0  0.65739  0.90435  0.92734  1.0000
  N   N53       1.0  0.62778  0.77018  0.53496  1.0000
  H   H971      1.0  0.61983  0.76848  0.59251  1.0000
  H   H972      1.0  0.66840  0.92942  0.91423  1.0000
  C   C834      1.0  0.52969  0.69512  0.56619  1.0000
  H   H973      1.0  0.71595  0.67397  0.90525  1.0000
  C   C835      1.0  0.68901  0.66614  0.57097  1.0000
  H   H974      1.0  0.65801  0.77709  0.51879  1.0000
  H   H975      1.0  0.49959  0.75854  0.73565  1.0000
  C   C836      1.0  0.53338  0.60059  0.88145  1.0000
  H   H976      1.0  0.65003  0.68052  0.55734  1.0000
  C   C837      1.0  0.72524  0.60692  0.72748  1.0000
  H   H977      1.0  0.62366  0.84253  0.51905  1.0000
  H   H978      1.0  0.51247  0.58427  0.79495  1.0000
  H   H979      1.0  0.55175  0.75148  0.54556  1.0000
  H   H980      1.0  0.62099  0.74348  0.50172  1.0000
  H   H981      1.0  0.62865  0.87770  0.92398  1.0000
  N   N54       1.0  0.51352  0.85814  0.61065  1.0000
  H   H982      1.0  0.59030  0.89203  0.96144  1.0000
  C   C838      1.0  0.53950  0.70185  0.53306  1.0000
  H   H983      1.0  0.70379  0.67029  0.56051  1.0000
  H   H984      1.0  0.67446  0.97442  0.94473  1.0000
  C   C839      1.0  0.65826  0.91441  0.90383  1.0000
  H   H985      1.0  0.59634  0.71521  0.92921  1.0000
  H   H986      1.0  0.61800  0.90441  0.82217  1.0000
  H   H987      1.0  0.65637  0.83988  0.52601  1.0000
  C   C840      1.0  0.54750  0.72208  0.52574  1.0000
  C   C841      1.0  0.67815  0.67723  0.55829  1.0000
  H   H988      1.0  0.49235  0.70313  0.65771  1.0000
  H   H989      1.0  0.53194  0.84613  0.64109  1.0000
  N   N55       1.0  0.63853  0.91421  0.89189  1.0000
  C   C842      1.0  0.62861  0.91827  0.92481  1.0000
  C   C843      1.0  0.54453  0.70626  0.86883  1.0000
  C   C844      1.0  0.65706  0.95073  0.56910  1.0000
  H   H990      1.0  0.71497  0.72450  0.92092  1.0000
  H   H991      1.0  0.51364  0.85062  0.66844  1.0000
  C   C845      1.0  0.62613  0.89449  0.87547  1.0000
  C   C846      1.0  0.54435  0.88327  0.58403  1.0000
  C   C847      1.0  0.60847  0.79229  0.52622  1.0000
  H   H992      1.0  0.51505  0.58346  0.92643  1.0000
  Fe  Fe111     1.0  0.72348  0.61016  0.93461  1.0000
  H   H993      1.0  0.64816  0.75542  0.54564  1.0000
  H   H994      1.0  0.67200  0.68740  0.93299  1.0000
  H   H995      1.0  0.54162  0.69133  0.51352  1.0000
  C   C848      1.0  0.62006  0.75838  0.50018  1.0000
  C   C849      1.0  0.64811  0.77065  0.54238  1.0000
  C   C850      1.0  0.64789  0.69908  0.86146  1.0000
  C   C851      1.0  0.56323  0.61327  0.93880  1.0000
  H   H996      1.0  0.54091  0.59472  0.97464  1.0000
  H   H997      1.0  0.63994  0.68852  0.91671  1.0000
  N   N56       1.0  0.70493  0.69673  0.88980  1.0000
  H   H998      1.0  0.69221  0.70861  0.82260  1.0000
  H   H999      1.0  0.60426  0.75576  0.49404  1.0000
  H   H1000     1.0  0.59312  0.81243  0.51843  1.0000
  H   H1001     1.0  0.49798  0.89183  0.86335  1.0000
  H   H1002     1.0  0.51512  0.87970  0.87187  1.0000
  C   C852      1.0  0.50094  0.86991  0.80400  1.0000
  C   C853      1.0  0.71335  0.70875  0.92425  1.0000
  C   C854      1.0  0.67040  0.65563  0.98613  1.0000
  H   H1003     1.0  0.52452  0.67929  0.57047  1.0000
  H   H1004     1.0  0.48823  0.83878  0.57796  1.0000
  H   H1005     1.0  0.57104  0.90367  0.55994  1.0000
  H   H1006     1.0  0.65752  0.63032  0.49256  1.0000
  H   H1007     1.0  0.48362  0.83754  0.87396  1.0000
  H   H1008     1.0  0.67945  0.97786  0.55357  1.0000
  H   H1009     1.0  0.57446  0.61865  0.96091  1.0000
  C   C855      1.0  0.67130  0.96973  0.57671  1.0000
  H   H1010     1.0  0.66783  0.55822  0.97773  1.0000
  H   H1011     1.0  0.63514  0.92461  0.59170  1.0000
  H   H1012     1.0  0.70395  0.70311  0.94868  1.0000
  C   C856      1.0  0.68111  0.57046  0.98973  1.0000
  H   H1013     1.0  0.51425  0.83949  0.54138  1.0000
  H   H1014     1.0  0.72812  0.70855  0.93233  1.0000
  C   C857      1.0  0.67429  0.63982  0.96938  1.0000
  Fe  Fe112     1.0  0.72830  0.59641  0.59074  1.0000
  H   H1015     1.0  0.68740  0.62194  0.50111  1.0000
  H   H1016     1.0  0.65541  0.65526  0.98643  1.0000
  H   H1017     1.0  0.48282  0.83186  0.82509  1.0000
  C   C858      1.0  0.70931  0.65660  0.98344  1.0000
  H   H1018     1.0  0.71959  0.61859  0.72383  1.0000
  H   H1019     1.0  0.48765  0.57564  0.83813  1.0000
  C   C859      1.0  0.72975  0.60233  0.76382  1.0000
  H   H1020     1.0  0.79319  0.14022  0.02098  1.0000
  Fe  Fe113     1.0  0.86481  0.30485  0.18865  1.0000
  S   S223      1.0  0.83669  0.31075  0.18219  1.0000
  S   S224      1.0  0.88789  0.30483  0.14663  1.0000
  Fe  Fe114     1.0  0.85767  0.29362  0.27116  1.0000
  S   S225      1.0  0.82873  0.29829  0.27074  1.0000
  S   S226      1.0  0.87158  0.27799  0.31128  1.0000
  Fe  Fe115     1.0  0.82235  0.28270  0.21469  1.0000
  S   S227      1.0  0.79552  0.25728  0.18953  1.0000
  Fe  Fe116     1.0  0.84508  0.32638  0.23852  1.0000
  S   S228      1.0  0.83918  0.35445  0.25556  1.0000
  S   S229      1.0  0.84996  0.27610  0.21722  1.0000
  S   S230      1.0  0.87442  0.32242  0.24280  1.0000
  C   C860      1.0  0.76578  0.15791  0.02798  1.0000
  C   C861      1.0  0.82476  0.22951  0.14113  1.0000
  H   H1021     1.0  0.81723  0.23427  0.16389  1.0000
  H   H1022     1.0  0.74603  0.18463  0.42685  1.0000
  Fe  Fe117     1.0  0.85935  0.47277  0.21916  1.0000
  S   S231      1.0  0.86744  0.44567  0.20606  1.0000
  H   H1023     1.0  0.84312  0.21215  0.10384  1.0000
  C   C862      1.0  0.84694  0.23990  0.01132  1.0000
  C   C863      1.0  0.85243  0.21487  0.04817  1.0000
  C   C864      1.0  0.80563  0.23862  0.09501  1.0000
  H   H1024     1.0  0.85224  0.26506  0.12882  1.0000
  H   H1025     1.0  0.96482  0.29425  0.08737  1.0000
  C   C865      1.0  0.97032  0.31813  0.04764  1.0000
  C   C866      1.0  0.83615  0.23568  0.07610  1.0000
  H   H1026     1.0  0.83331  0.25761  0.03765  1.0000
  C   C867      1.0  0.84366  0.22023  0.07863  1.0000
  H   H1027     1.0  0.73644  0.12512  0.38468  1.0000
  H   H1028     1.0  0.93702  0.30398  0.09037  1.0000
  H   H1029     1.0  0.75777  0.46691  0.29627  1.0000
  H   H1030     1.0  0.76807  0.12268  0.02235  1.0000
  H   H1031     1.0  0.83974  0.23154  0.15266  1.0000
  H   H1032     1.0  0.89096  0.46610  0.41867  1.0000
  H   H1033     1.0  0.95528  0.28591  0.38691  1.0000
  C   C868      1.0  0.87509  0.27903  0.36034  1.0000
  C   C869      1.0  0.88439  0.26714  0.37656  1.0000
  C   C870      1.0  0.88776  0.26753  0.41533  1.0000
  C   C871      1.0  0.88166  0.27967  0.43839  1.0000
  C   C872      1.0  0.87244  0.29162  0.42221  1.0000
  C   C873      1.0  0.86918  0.29135  0.38335  1.0000
  H   H1034     1.0  0.88914  0.25770  0.35890  1.0000
  H   H1035     1.0  0.89513  0.25852  0.42727  1.0000
  H   H1036     1.0  0.86771  0.30111  0.43984  1.0000
  H   H1037     1.0  0.86207  0.30060  0.37121  1.0000
  C   C874      1.0  0.88343  0.29564  0.10009  1.0000
  C   C875      1.0  0.88984  0.28046  0.08909  1.0000
  C   C876      1.0  0.89000  0.27538  0.05118  1.0000
  C   C877      1.0  0.88427  0.28582  0.02374  1.0000
  C   C878      1.0  0.87711  0.30044  0.03485  1.0000
  C   C879      1.0  0.87665  0.30531  0.07281  1.0000
  H   H1038     1.0  0.89530  0.27302  0.10993  1.0000
  H   H1039     1.0  0.89515  0.26382  0.04331  1.0000
  H   H1040     1.0  0.87259  0.30859  0.01393  1.0000
  H   H1041     1.0  0.87206  0.31732  0.08085  1.0000
  C   C880      1.0  0.84764  0.37986  0.24177  1.0000
  C   C881      1.0  0.83956  0.39267  0.25860  1.0000
  C   C882      1.0  0.84536  0.41275  0.24819  1.0000
  C   C883      1.0  0.85933  0.42038  0.22054  1.0000
  C   C884      1.0  0.86758  0.40764  0.20403  1.0000
  C   C885      1.0  0.86182  0.38757  0.21453  1.0000
  H   H1042     1.0  0.82869  0.38696  0.27987  1.0000
  H   H1043     1.0  0.83921  0.42234  0.26200  1.0000
  H   H1044     1.0  0.87851  0.41333  0.18283  1.0000
  H   H1045     1.0  0.86824  0.37802  0.20133  1.0000
  C   C886      1.0  0.74033  0.46979  0.24909  1.0000
  C   C887      1.0  0.74545  0.20984  0.21196  1.0000
  C   C888      1.0  0.76238  0.22314  0.19476  1.0000
  C   C889      1.0  0.77506  0.24059  0.21345  1.0000
  C   C890      1.0  0.77072  0.24458  0.24968  1.0000
  C   C891      1.0  0.75355  0.23146  0.26663  1.0000
  C   C892      1.0  0.77480  0.47279  0.24638  1.0000
  H   H1046     1.0  0.76557  0.21994  0.16671  1.0000
  H   H1047     1.0  0.78029  0.25801  0.26427  1.0000
  C   C893      1.0  0.77512  0.17398  0.08991  1.0000
  H   H1048     1.0  0.85877  0.46188  0.38934  1.0000
  C   C894      1.0  0.73260  0.14536  0.34660  1.0000
  H   H1049     1.0  0.73375  0.10022  0.03153  1.0000
  H   H1050     1.0  0.79723  0.22315  0.08462  1.0000
  S   S232      1.0  0.79528  0.47842  0.18115  1.0000
  C   C895      1.0  0.87115  0.20883  0.42389  1.0000
  C   C896      1.0  0.97581  0.30704  0.07493  1.0000
  H   H1051     1.0  0.92584  0.28688  0.01051  1.0000
  H   H1052     1.0  0.87205  0.40900  0.34958  1.0000
  C   C897      1.0  0.87898  0.44048  0.35789  1.0000
  C   C898      1.0  0.84436  0.21988  0.40765  1.0000
  C   C899      1.0  0.85399  0.22464  0.01461  1.0000
  H   H1053     1.0  0.90963  0.31946  0.35232  1.0000
  C   C900      1.0  0.83191  0.24555  0.38855  1.0000
  C   C901      1.0  0.77888  0.13406  0.00493  1.0000
  H   H1054     1.0  0.82943  0.26748  0.14031  1.0000
  C   C902      1.0  0.75560  0.17195  0.09555  1.0000
  C   C903      1.0  0.83704  0.26255  0.11798  1.0000
  N   N57       1.0  0.80355  0.42085  0.16772  1.0000
  C   C904      1.0  0.78261  0.41670  0.15647  1.0000
  C   C905      1.0  0.80754  0.43067  0.20503  1.0000
  C   C906      1.0  0.81633  0.43530  0.14112  1.0000
  C   C907      1.0  0.80706  0.40204  0.16922  1.0000
  C   C908      1.0  0.82209  0.39873  0.14876  1.0000
  C   C909      1.0  0.79553  0.38647  0.19246  1.0000
  C   C910      1.0  0.82510  0.38085  0.15126  1.0000
  C   C911      1.0  0.79883  0.36875  0.19503  1.0000
  C   C912      1.0  0.81354  0.36593  0.17439  1.0000
  H   H1055     1.0  0.77199  0.40773  0.17718  1.0000
  H   H1056     1.0  0.77977  0.43071  0.15375  1.0000
  H   H1057     1.0  0.77873  0.40849  0.12923  1.0000
  H   H1058     1.0  0.79806  0.42124  0.22669  1.0000
  H   H1059     1.0  0.80480  0.44476  0.20510  1.0000
  H   H1060     1.0  0.82326  0.43437  0.21403  1.0000
  H   H1061     1.0  0.81403  0.42897  0.11226  1.0000
  H   H1062     1.0  0.81309  0.44913  0.14033  1.0000
  H   H1063     1.0  0.83235  0.44008  0.14928  1.0000
  H   H1064     1.0  0.83212  0.40987  0.13139  1.0000
  H   H1065     1.0  0.78416  0.38805  0.20952  1.0000
  H   H1066     1.0  0.83699  0.37881  0.13629  1.0000
  H   H1067     1.0  0.79035  0.35731  0.21387  1.0000
  H   H1068     1.0  0.75674  0.47743  0.16049  1.0000
  H   H1069     1.0  0.77920  0.16349  0.44255  1.0000
  H   H1070     1.0  0.86917  0.19887  0.39917  1.0000
  N   N58       1.0  0.74781  0.14939  0.45003  1.0000
  H   H1071     1.0  0.81650  0.35244  0.17743  1.0000
  H   H1072     1.0  0.94006  0.28064  0.04528  1.0000
  H   H1073     1.0  0.83358  0.21749  0.31363  1.0000
  C   C913      1.0  0.74275  0.15424  0.41220  1.0000
  H   H1074     1.0  0.84511  0.20038  0.36136  1.0000
  Fe  Fe118     1.0  0.82540  0.48728  0.20956  1.0000
  C   C914      1.0  0.74605  0.15636  0.03441  1.0000
  S   S233      1.0  0.83545  0.47328  0.25717  1.0000
  H   H1075     1.0  0.82860  0.25854  0.39541  1.0000
  N   N59       1.0  0.88726  0.47734  0.36460  1.0000
  H   H1076     1.0  0.92222  0.31217  0.05970  1.0000
  C   C915      1.0  0.83011  0.23882  0.35170  1.0000
  H   H1077     1.0  0.91362  0.47980  0.39584  1.0000
  C   C916      1.0  0.93805  0.29199  0.34381  1.0000
  N   N60       1.0  0.82612  0.24136  0.10715  1.0000
  C   C917      1.0  0.89469  0.46121  0.30633  1.0000
  C   C918      1.0  0.83821  0.24543  0.04153  1.0000
  H   H1078     1.0  0.73783  0.19304  0.36453  1.0000
  H   H1079     1.0  0.73577  0.19653  0.19718  1.0000
  C   C919      1.0  0.92006  0.31266  0.36017  1.0000
  H   H1080     1.0  0.86680  0.23604  0.47092  1.0000
  H   H1081     1.0  0.73344  0.11742  0.44587  1.0000
  H   H1082     1.0  0.83854  0.27280  0.09457  1.0000
  H   H1083     1.0  0.87262  0.43817  0.38514  1.0000
  C   C920      1.0  0.78023  0.16719  0.05658  1.0000
  H   H1084     1.0  0.80540  0.24894  0.07261  1.0000
  C   C921      1.0  0.75713  0.47554  0.19027  1.0000
  H   H1085     1.0  0.79719  0.24167  0.11821  1.0000
  H   H1086     1.0  0.85828  0.20319  0.05043  1.0000
  H   H1087     1.0  0.81605  0.21343  0.13567  1.0000
  N   N61       1.0  0.94833  0.30604  0.44677  1.0000
  C   C922      1.0  0.87863  0.42369  0.33789  1.0000
  H   H1088     1.0  0.94664  0.27556  0.44674  1.0000
  H   H1089     1.0  0.93008  0.31924  0.99629  1.0000
  C   C923      1.0  0.94044  0.30486  0.40810  1.0000
  C   C924      1.0  0.74821  0.12913  0.45245  1.0000
  C   C925      1.0  0.94560  0.29368  0.38036  1.0000
  C   C926      1.0  0.74081  0.21408  0.24782  1.0000
  C   C927      1.0  0.85619  0.22035  0.47296  1.0000
  S   S234      1.0  0.84803  0.48506  0.17038  1.0000
  H   H1090     1.0  0.88583  0.41255  0.28674  1.0000
  N   N62       1.0  0.85221  0.20993  0.43606  1.0000
  H   H1091     1.0  0.85776  0.47343  0.34590  1.0000
  C   C928      1.0  0.92733  0.31429  0.39690  1.0000
  H   H1092     1.0  0.77211  0.15994  0.49031  1.0000
  H   H1093     1.0  0.91893  0.29966  0.30572  1.0000
  N   N63       1.0  0.94925  0.31235  0.03585  1.0000
  S   S235      1.0  0.96689  0.25714  0.99238  1.0000
  C   C929      1.0  0.73297  0.15070  0.47648  1.0000
  C   C930      1.0  0.94194  0.31868  0.47218  1.0000
  C   C931      1.0  0.83486  0.22250  0.34247  1.0000
  H   H1094     1.0  0.82339  0.18951  0.45128  1.0000
  C   C932      1.0  0.74019  0.47301  0.21085  1.0000
  C   C933      1.0  0.77450  0.47558  0.20801  1.0000
  H   H1095     1.0  0.89997  0.44565  0.25874  1.0000
  H   H1096     1.0  0.76840  0.17917  0.46492  1.0000
  C   C934      1.0  0.75764  0.46959  0.26675  1.0000
  C   C935      1.0  0.74118  0.16338  0.06771  1.0000
  H   H1097     1.0  0.84238  0.22035  0.48560  1.0000
  H   H1098     1.0  0.75144  0.17654  0.12188  1.0000
  H   H1099     1.0  0.84058  0.24284  0.44392  1.0000
  H   H1100     1.0  0.92549  0.31262  0.47479  1.0000
  H   H1101     1.0  0.94188  0.28309  0.32322  1.0000
  C   C936      1.0  0.73786  0.17834  0.36958  1.0000
  H   H1102     1.0  0.79548  0.16873  0.05372  1.0000
  H   H1103     1.0  0.97676  0.31645  0.47607  1.0000
  C   C937      1.0  0.93780  0.31467  0.06799  1.0000
  H   H1104     1.0  0.83444  0.18041  0.41482  1.0000
  H   H1105     1.0  0.95050  0.28860  0.00090  1.0000
  C   C938      1.0  0.83894  0.23632  0.41626  1.0000
  H   H1106     1.0  0.86606  0.48825  0.38774  1.0000
  C   C939      1.0  0.83769  0.18942  0.44113  1.0000
  H   H1107     1.0  0.73908  0.11411  0.09588  1.0000
  H   H1108     1.0  0.75926  0.12710  0.43363  1.0000
  C   C940      1.0  0.92527  0.30143  0.33377  1.0000
  C   C941      1.0  0.89825  0.47894  0.40052  1.0000
  C   C942      1.0  0.94137  0.28586  0.46236  1.0000
  C   C943      1.0  0.89446  0.44433  0.28682  1.0000
  C   C944      1.0  0.76773  0.16368  0.46235  1.0000
  S   S236      1.0  0.90848  0.24129  0.99333  1.0000
  H   H1109     1.0  0.94447  0.32992  0.08058  1.0000
  C   C945      1.0  0.88711  0.45981  0.34280  1.0000
  C   C946      1.0  0.88645  0.42563  0.30251  1.0000
  H   H1110     1.0  0.90062  0.47508  0.29187  1.0000
  H   H1111     1.0  0.84625  0.14987  0.00100  1.0000
  C   C947      1.0  0.73289  0.16436  0.34046  1.0000
  C   C948      1.0  0.94110  0.29126  0.02268  1.0000
  H   H1112     1.0  0.92202  0.32260  0.41607  1.0000
  H   H1113     1.0  0.78619  0.18035  0.11194  1.0000
  H   H1114     1.0  0.84331  0.18131  0.46174  1.0000
  H   H1115     1.0  0.75007  0.23489  0.29434  1.0000
  H   H1116     1.0  0.88198  0.22378  0.41676  1.0000
  C   C949      1.0  0.74264  0.17339  0.40501  1.0000
  C   C950      1.0  0.97035  0.31426  0.44717  1.0000
  H   H1117     1.0  0.78809  0.47267  0.26021  1.0000
  H   H1118     1.0  0.73339  0.16608  0.47988  1.0000
  C   C951      1.0  0.73742  0.14025  0.38187  1.0000
  H   H1119     1.0  0.87820  0.20282  0.44603  1.0000
  C   C952      1.0  0.84169  0.21300  0.36998  1.0000
  H   H1120     1.0  0.94691  0.33426  0.46253  1.0000
  H   H1121     1.0  0.82547  0.24658  0.33011  1.0000
  H   H1122     1.0  0.92490  0.27915  0.46233  1.0000
  C   C953      1.0  0.86659  0.47505  0.37231  1.0000
  N   N64       1.0  0.77136  0.14964  0.99411  1.0000
  H   H1123     1.0  0.74888  0.48694  0.37629  1.0000
  S   S237      1.0  0.88518  0.28032  0.48745  1.0000
  H   H1124     1.0  0.97644  0.30415  0.43306  1.0000
  H   H1125     1.0  0.97623  0.32886  0.43323  1.0000
  H   H1126     1.0  0.95061  0.34033  0.01367  1.0000
  H   H1127     1.0  0.73391  0.14919  0.01479  1.0000
  H   H1128     1.0  0.75221  0.12605  0.48110  1.0000
  C   C954      1.0  0.94607  0.32441  0.00509  1.0000
  H   H1129     1.0  0.94688  0.28621  0.49155  1.0000
  Fe  Fe119     1.0  0.91458  0.24353  0.88573  1.0000
  S   S238      1.0  0.92323  0.22316  0.92320  1.0000
  S   S239      1.0  0.92496  0.24125  0.82632  1.0000
  Fe  Fe120     1.0  0.90022  0.26039  0.95342  1.0000
  H   H1130     1.0  0.80903  0.17285  0.73439  1.0000
  Fe  Fe121     1.0  0.93678  0.24986  0.96179  1.0000
  H   H1131     1.0  0.86190  0.20170  0.60860  1.0000
  Fe  Fe122     1.0  0.89400  0.21673  0.95068  1.0000
  S   S240      1.0  0.78258  0.13289  0.53712  1.0000
  S   S241      1.0  0.92931  0.27045  0.92381  1.0000
  S   S242      1.0  0.88448  0.23556  0.91152  1.0000
  S   S243      1.0  0.73959  0.08170  0.49243  1.0000
  C   C955      1.0  0.80344  0.16146  0.67811  1.0000
  S   S244      1.0  0.90918  0.23926  0.49684  1.0000
  S   S245      1.0  0.75933  0.06359  0.89839  1.0000
  H   H1132     1.0  0.80223  0.15234  0.62063  1.0000
  H   H1133     1.0  0.96836  0.23668  0.91721  1.0000
  Fe  Fe123     1.0  0.76594  0.09464  0.92098  1.0000
  S   S246      1.0  0.79268  0.12222  0.90452  1.0000
  H   H1134     1.0  0.95825  0.26471  0.86913  1.0000
  Fe  Fe124     1.0  0.93514  0.25291  0.53739  1.0000
  S   S247      1.0  0.92428  0.27592  0.56034  1.0000
  S   S248      1.0  0.73918  0.02572  0.98531  1.0000
  Fe  Fe125     1.0  0.89328  0.21925  0.54299  1.0000
  S   S249      1.0  0.88024  0.24054  0.56443  1.0000
  S   S250      1.0  0.87556  0.18577  0.53584  1.0000
  Fe  Fe126     1.0  0.89800  0.26144  0.52124  1.0000
  Fe  Fe127     1.0  0.90765  0.25265  0.60184  1.0000
  S   S251      1.0  0.89996  0.25788  0.66170  1.0000
  S   S252      1.0  0.92025  0.23045  0.58163  1.0000
  Fe  Fe128     1.0  0.75807  0.10150  0.53978  1.0000
  Fe  Fe129     1.0  0.73174  0.06547  0.87230  1.0000
  H   H1135     1.0  0.78160  0.12619  0.98017  1.0000
  H   H1136     1.0  0.79086  0.16010  0.94795  1.0000
  S   S253      1.0  0.87333  0.18700  0.97387  1.0000
  H   H1137     1.0  0.95426  0.32322  0.97993  1.0000
  H   H1138     1.0  0.86247  0.21826  0.64671  1.0000
  S   S254      1.0  0.75136  0.07592  0.57950  1.0000
  C   C956      1.0  0.84964  0.17139  0.53695  1.0000
  C   C957      1.0  0.83554  0.18009  0.54008  1.0000
  S   S255      1.0  0.73236  0.10842  0.55960  1.0000
  C   C958      1.0  0.80855  0.14713  0.53732  1.0000
  H   H1139     1.0  0.98046  0.28612  0.87604  1.0000
  H   H1140     1.0  0.98015  0.22710  0.88215  1.0000
  H   H1141     1.0  0.75941  0.13462  0.94151  1.0000
  C   C959      1.0  0.81514  0.16803  0.53994  1.0000
  H   H1142     1.0  0.78260  0.17823  0.96843  1.0000
  C   C960      1.0  0.84305  0.15052  0.53434  1.0000
  H   H1143     1.0  0.81786  0.12241  0.53264  1.0000
  H   H1144     1.0  0.73525  0.14560  0.50473  1.0000
  H   H1145     1.0  0.81508  0.12414  0.97502  1.0000
  Fe  Fe130     1.0  0.74077  0.05199  0.94885  1.0000
  S   S256      1.0  0.88698  0.28206  0.97555  1.0000
  S   S257      1.0  0.75048  0.08302  0.97454  1.0000
  H   H1146     1.0  0.84869  0.24783  0.98540  1.0000
  S   S258      1.0  0.96516  0.25894  0.51005  1.0000
  H   H1147     1.0  0.78757  0.15413  0.68139  1.0000
  H   H1148     1.0  0.87235  0.16464  0.66512  1.0000
  C   C961      1.0  0.91755  0.24583  0.78083  1.0000
  C   C962      1.0  0.90240  0.25294  0.77466  1.0000
  C   C963      1.0  0.89734  0.25659  0.73807  1.0000
  C   C964      1.0  0.90727  0.25315  0.70713  1.0000
  C   C965      1.0  0.92234  0.24590  0.71326  1.0000
  C   C966      1.0  0.92741  0.24227  0.74985  1.0000
  H   H1149     1.0  0.89468  0.25579  0.79807  1.0000
  H   H1150     1.0  0.88568  0.26223  0.73375  1.0000
  H   H1151     1.0  0.93017  0.24323  0.68986  1.0000
  H   H1152     1.0  0.93916  0.23677  0.75421  1.0000
  C   C967      1.0  0.85085  0.16925  0.95423  1.0000
  C   C968      1.0  0.84319  0.17176  0.91948  1.0000
  C   C969      1.0  0.82547  0.15714  0.90482  1.0000
  C   C970      1.0  0.81507  0.13989  0.92470  1.0000
  C   C971      1.0  0.82266  0.13844  0.53475  1.0000
  C   C972      1.0  0.82263  0.13744  0.95959  1.0000
  H   H1153     1.0  0.85104  0.18488  0.90375  1.0000
  H   H1154     1.0  0.81980  0.15926  0.87783  1.0000
  C   C973      1.0  0.83216  0.16981  0.63959  1.0000
  H   H1155     1.0  0.94815  0.31926  0.50098  1.0000
  H   H1156     1.0  0.89152  0.18524  0.64425  1.0000
  H   H1157     1.0  0.80438  0.17493  0.54239  1.0000
  H   H1158     1.0  0.83781  0.16869  0.61253  1.0000
  H   H1159     1.0  0.84449  0.18987  0.72769  1.0000
  H   H1160     1.0  0.87369  0.21286  0.70898  1.0000
  C   C974      1.0  0.84498  0.18081  0.66920  1.0000
  N   N65       1.0  0.78752  0.09570  0.79355  1.0000
  C   C975      1.0  0.77935  0.07365  0.79363  1.0000
  C   C976      1.0  0.80580  0.10282  0.81763  1.0000
  C   C977      1.0  0.77310  0.10291  0.81097  1.0000
  C   C978      1.0  0.79082  0.10241  0.75461  1.0000
  C   C979      1.0  0.81000  0.11296  0.74057  1.0000
  C   C980      1.0  0.77455  0.09763  0.72892  1.0000
  C   C981      1.0  0.81251  0.11794  0.70296  1.0000
  C   C982      1.0  0.77718  0.10270  0.69151  1.0000
  C   C983      1.0  0.79615  0.11263  0.67844  1.0000
  H   H1161     1.0  0.78962  0.06753  0.78054  1.0000
  H   H1162     1.0  0.77653  0.06786  0.82235  1.0000
  H   H1163     1.0  0.76489  0.06711  0.77817  1.0000
  H   H1164     1.0  0.81699  0.09700  0.80776  1.0000
  H   H1165     1.0  0.81251  0.11937  0.81949  1.0000
  H   H1166     1.0  0.75815  0.09653  0.79745  1.0000
  H   H1167     1.0  0.77827  0.11941  0.81029  1.0000
  H   H1168     1.0  0.82328  0.11736  0.75797  1.0000
  H   H1169     1.0  0.75959  0.08965  0.73750  1.0000
  H   H1170     1.0  0.82723  0.12585  0.69264  1.0000
  H   H1171     1.0  0.76438  0.09871  0.67251  1.0000
  H   H1172     1.0  0.79813  0.11625  0.64922  1.0000
  H   H1173     1.0  0.85379  0.14359  0.53189  1.0000
  C   C984      1.0  0.83605  0.18164  0.70369  1.0000
  C   C985      1.0  0.81172  0.16040  0.64397  1.0000
  N   N66       1.0  0.86642  0.19152  0.66304  1.0000
  H   H1174     1.0  0.86931  0.17225  0.61864  1.0000
  H   H1175     1.0  0.77084  0.09858  0.84059  1.0000
  S   S259      1.0  0.73874  0.09673  0.89325  1.0000
  H   H1176     1.0  0.88492  0.21633  0.63149  1.0000
  C   C986      1.0  0.86896  0.20757  0.63626  1.0000
  C   C987      1.0  0.97233  0.23738  0.88732  1.0000
  H   H1177     1.0  0.84028  0.19607  0.54286  1.0000
  C   C988      1.0  0.97282  0.27045  0.88436  1.0000
  C   C989      1.0  0.87517  0.17776  0.64721  1.0000
  C   C990      1.0  0.81558  0.17196  0.70793  1.0000
  H   H1178     1.0  0.80262  0.09772  0.84680  1.0000
  H   H1179     1.0  0.87661  0.18967  0.71928  1.0000
  C   C991      1.0  0.87809  0.20083  0.69747  1.0000
  H   H1180     1.0  0.89420  0.20819  0.69202  1.0000
  H   H1181     1.0  0.95798  0.23133  0.87111  1.0000
  H   H1182     1.0  0.74830  0.15136  0.95712  1.0000
  H   H1183     1.0  0.96984  0.27055  0.91453  1.0000
  H   H1184     1.0  0.97306  0.25058  0.82019  1.0000
  C   C992      1.0  0.75462  0.14044  0.96684  1.0000
  C   C993      1.0  0.78721  0.16561  0.97479  1.0000
  H   H1185     1.0  0.74254  0.12752  0.97871  1.0000
  C   C994      1.0  0.84038  0.15205  0.97422  1.0000
  H   H1186     1.0  0.98150  0.29686  0.95830  1.0000
  H   H1187     1.0  0.86288  0.21306  0.49323  1.0000
  H   H1188     1.0  0.86094  0.22054  0.99122  1.0000
  H   H1189     1.0  0.80137  0.17160  0.99135  1.0000
  Fe  Fe131     1.0  0.85609  0.50476  0.27315  1.0000
  S   S260      1.0  0.85637  0.51374  0.33482  1.0000
  Fe  Fe132     1.0  0.86713  0.51548  0.19171  1.0000
  S   S261      1.0  0.88293  0.54261  0.15621  1.0000
  S   S262      1.0  0.84368  0.51851  0.22833  1.0000
  H   H1190     1.0  0.82025  0.52330  0.16198  1.0000
  C   C995      1.0  0.85746  0.58736  0.40346  1.0000
  H   H1191     1.0  0.89705  0.50936  0.36284  1.0000
  N   N67       1.0  0.86711  0.60384  0.43074  1.0000
  H   H1192     1.0  0.73776  0.51365  0.30099  1.0000
  H   H1193     1.0  0.73475  0.57978  0.40353  1.0000
  C   C996      1.0  0.89677  0.49648  0.34535  1.0000
  C   C997      1.0  0.88286  0.54591  0.10711  1.0000
  C   C998      1.0  0.89309  0.56498  0.09308  1.0000
  C   C999      1.0  0.89321  0.56850  0.05451  1.0000
  C   C1000     1.0  0.88298  0.55295  0.02936  1.0000
  C   C1001     1.0  0.87268  0.53387  0.04338  1.0000
  C   C1002     1.0  0.87268  0.53033  0.08196  1.0000
  H   H1194     1.0  0.90107  0.57715  0.11220  1.0000
  H   H1195     1.0  0.90119  0.58325  0.04426  1.0000
  H   H1196     1.0  0.86481  0.52170  0.02420  1.0000
  H   H1197     1.0  0.86494  0.51552  0.09217  1.0000
  C   C1003     1.0  0.87358  0.53309  0.36349  1.0000
  C   C1004     1.0  0.86888  0.53524  0.40072  1.0000
  C   C1005     1.0  0.88210  0.55018  0.42467  1.0000
  C   C1006     1.0  0.90039  0.56306  0.41180  1.0000
  C   C1007     1.0  0.90510  0.56082  0.37462  1.0000
  C   C1008     1.0  0.89179  0.54604  0.35054  1.0000
  H   H1198     1.0  0.85485  0.52533  0.41111  1.0000
  H   H1199     1.0  0.87828  0.55150  0.45322  1.0000
  H   H1200     1.0  0.91921  0.57063  0.36433  1.0000
  H   H1201     1.0  0.89569  0.54465  0.32206  1.0000
  H   H1202     1.0  0.89755  0.61262  0.41414  1.0000
  C   C1009     1.0  0.83293  0.55780  0.12678  1.0000
  C   C1010     1.0  0.85363  0.61429  0.43952  1.0000
  H   H1203     1.0  0.88140  0.59480  0.36319  1.0000
  C   C1011     1.0  0.86668  0.58491  0.37026  1.0000
  H   H1204     1.0  0.88354  0.62540  0.39085  1.0000
  C   C1012     1.0  0.75893  0.53745  0.12271  1.0000
  H   H1205     1.0  0.76397  0.51180  0.39144  1.0000
  H   H1206     1.0  0.86473  0.56706  0.32076  1.0000
  H   H1207     1.0  0.96763  0.62257  0.09011  1.0000
  H   H1208     1.0  0.82153  0.54929  0.05533  1.0000
  H   H1209     1.0  0.83186  0.54206  0.33449  1.0000
  H   H1210     1.0  0.85839  0.58477  0.47823  1.0000
  H   H1211     1.0  0.76809  0.56245  0.08670  1.0000
  H   H1212     1.0  0.84038  0.60486  0.45482  1.0000
  H   H1213     1.0  0.75380  0.51258  0.15821  1.0000
  C   C1013     1.0  0.85726  0.56894  0.34548  1.0000
  H   H1214     1.0  0.81508  0.54535  0.39198  1.0000
  C   C1014     1.0  0.76449  0.52356  0.14123  1.0000
  H   H1215     1.0  0.74106  0.49785  0.41432  1.0000
  H   H1216     1.0  0.84848  0.55849  0.12514  1.0000
  C   C1015     1.0  0.83854  0.57262  0.41051  1.0000
  H   H1217     1.0  0.88207  0.58776  0.46021  1.0000
  H   H1218     1.0  0.86107  0.62761  0.45805  1.0000
  H   H1219     1.0  0.89229  0.63162  0.43800  1.0000
  S   S263      1.0  0.92489  0.63062  0.48793  1.0000
  H   H1220     1.0  0.74936  0.49751  0.31577  1.0000
  H   H1221     1.0  0.74854  0.56187  0.44692  1.0000
  C   C1016     1.0  0.74697  0.51123  0.32405  1.0000
  N   N68       1.0  0.81838  0.53859  0.11176  1.0000
  C   C1017     1.0  0.82220  0.52246  0.13146  1.0000
  C   C1018     1.0  0.79795  0.53799  0.11602  1.0000
  C   C1019     1.0  0.79180  0.55205  0.09777  1.0000
  C   C1020     1.0  0.78366  0.52372  0.13804  1.0000
  C   C1021     1.0  0.77255  0.55167  0.10103  1.0000
  C   C1022     1.0  0.83869  0.55479  0.35322  1.0000
  H   H1222     1.0  0.76164  0.52379  0.32456  1.0000
  H   H1223     1.0  0.83770  0.52339  0.12808  1.0000
  H   H1224     1.0  0.81221  0.50746  0.12084  1.0000
  H   H1225     1.0  0.83026  0.55998  0.15662  1.0000
  H   H1226     1.0  0.80182  0.56345  0.08078  1.0000
  H   H1227     1.0  0.78686  0.51248  0.15316  1.0000
  C   C1023     1.0  0.74416  0.53740  0.40860  1.0000
  C   C1024     1.0  0.73570  0.56583  0.39478  1.0000
  S   S264      1.0  0.74219  0.59618  0.48573  1.0000
  H   H1228     1.0  0.81108  0.52271  0.05918  1.0000
  C   C1025     1.0  0.82215  0.53669  0.07175  1.0000
  H   H1229     1.0  0.74402  0.53719  0.12533  1.0000
  H   H1230     1.0  0.83234  0.57075  0.11142  1.0000
  C   C1026     1.0  0.88590  0.61897  0.41761  1.0000
  C   C1027     1.0  0.74350  0.55573  0.41916  1.0000
  H   H1231     1.0  0.97921  0.64338  0.03510  1.0000
  C   C1028     1.0  0.82935  0.55661  0.38569  1.0000
  C   C1029     1.0  0.74837  0.50122  0.38696  1.0000
  C   C1030     1.0  0.73698  0.52865  0.37288  1.0000
  S   S265      1.0  0.91818  0.58180  0.44077  1.0000
  H   H1232     1.0  0.75000  0.53028  0.42929  1.0000
  H   H1233     1.0  0.83091  0.57316  0.43572  1.0000
  N   N69       1.0  0.73737  0.50925  0.36065  1.0000
  C   C1031     1.0  0.87182  0.59558  0.46546  1.0000
  S   S266      1.0  0.88092  0.50346  0.23796  1.0000
  H   H1234     1.0  0.75629  0.53937  0.01381  1.0000
  H   H1235     1.0  0.83717  0.53644  0.06767  1.0000
  H   H1236     1.0  0.84842  0.61937  0.41374  1.0000
  H   H1237     1.0  0.83388  0.62725  0.00385  1.0000
  C   C1032     1.0  0.77115  0.54450  0.00296  1.0000
  H   H1238     1.0  0.77511  0.57537  0.00593  1.0000
  H   H1239     1.0  0.87912  0.60754  0.48670  1.0000
  H   H1240     1.0  0.88845  0.49695  0.31928  1.0000
  H   H1241     1.0  0.84620  0.57031  0.00398  1.0000
  C   C1033     1.0  0.78175  0.56474  0.99857  1.0000
  H   H1242     1.0  0.91244  0.49929  0.33872  1.0000
  H   H1243     1.0  0.89935  0.49248  0.41693  1.0000
  H   H1244     1.0  0.77108  0.51510  0.99601  1.0000
  C   C1034     1.0  0.98124  0.63568  0.09210  1.0000
  C   C1035     1.0  0.77952  0.53086  0.99275  1.0000
  Fe  Fe133     1.0  0.91253  0.59558  0.86375  1.0000
  S   S267      1.0  0.92716  0.62787  0.88058  1.0000
  S   S268      1.0  0.90193  0.58474  0.80367  1.0000
  Fe  Fe134     1.0  0.90070  0.58362  0.94688  1.0000
  H   H1245     1.0  0.81544  0.56779  0.90015  1.0000
  Fe  Fe135     1.0  0.90004  0.62242  0.91494  1.0000
  S   S269      1.0  0.87981  0.63887  0.90045  1.0000
  Fe  Fe136     1.0  0.93978  0.61776  0.93096  1.0000
  H   H1246     1.0  0.77824  0.57134  0.66161  1.0000
  S   S270      1.0  0.88546  0.59064  0.89728  1.0000
  S   S271      1.0  0.92660  0.58530  0.91186  1.0000
  Fe  Fe137     1.0  0.76546  0.60989  0.94405  1.0000
  H   H1247     1.0  0.84981  0.55550  0.92619  1.0000
  Fe  Fe138     1.0  0.90583  0.62664  0.53804  1.0000
  S   S272      1.0  0.90054  0.59431  0.54562  1.0000
  H   H1248     1.0  0.87158  0.61282  0.81043  1.0000
  Fe  Fe139     1.0  0.95130  0.63891  0.52734  1.0000
  S   S273      1.0  0.94838  0.60724  0.53407  1.0000
  C   C1036     1.0  0.82227  0.62512  0.53444  1.0000
  C   C1037     1.0  0.84427  0.57855  0.97926  1.0000
  Fe  Fe140     1.0  0.92847  0.60621  0.58230  1.0000
  S   S274      1.0  0.93724  0.59822  0.63988  1.0000
  S   S275      1.0  0.93249  0.63821  0.57687  1.0000
  Fe  Fe141     1.0  0.76114  0.59739  0.53676  1.0000
  S   S276      1.0  0.78895  0.58999  0.53662  1.0000
  C   C1038     1.0  0.85619  0.62595  0.53923  1.0000
  C   C1039     1.0  0.87728  0.65015  0.79276  1.0000
  H   H1249     1.0  0.91240  0.63019  0.79253  1.0000
  C   C1040     1.0  0.81470  0.60442  0.53741  1.0000
  C   C1041     1.0  0.82795  0.59460  0.54148  1.0000
  C   C1042     1.0  0.84858  0.60529  0.54257  1.0000
  C   C1043     1.0  0.83533  0.62786  0.97395  1.0000
  H   H1250     1.0  0.85855  0.59755  0.54640  1.0000
  H   H1251     1.0  0.80420  0.63371  0.64060  1.0000
  H   H1252     1.0  0.82808  0.62184  0.61507  1.0000
  C   C1044     1.0  0.91214  0.58978  0.75846  1.0000
  C   C1045     1.0  0.93246  0.59961  0.75298  1.0000
  C   C1046     1.0  0.93980  0.60252  0.71651  1.0000
  C   C1047     1.0  0.92695  0.59626  0.68500  1.0000
  C   C1048     1.0  0.90655  0.58701  0.69050  1.0000
  C   C1049     1.0  0.89926  0.58356  0.72695  1.0000
  H   H1253     1.0  0.94259  0.60439  0.77678  1.0000
  H   H1254     1.0  0.95562  0.60942  0.71268  1.0000
  H   H1255     1.0  0.89650  0.58171  0.66668  1.0000
  H   H1256     1.0  0.88355  0.57576  0.73073  1.0000
  C   C1050     1.0  0.85611  0.63241  0.92004  1.0000
  C   C1051     1.0  0.83963  0.63075  0.89711  1.0000
  C   C1052     1.0  0.82096  0.62725  0.91249  1.0000
  C   C1053     1.0  0.81882  0.62612  0.95111  1.0000
  H   H1257     1.0  0.83917  0.57908  0.71228  1.0000
  S   S277      1.0  0.73719  0.57275  0.56525  1.0000
  H   H1258     1.0  0.84133  0.63236  0.86738  1.0000
  C   C1054     1.0  0.85175  0.59932  0.66825  1.0000
  C   C1055     1.0  0.83527  0.54934  0.94013  1.0000
  H   H1259     1.0  0.79852  0.62055  0.70813  1.0000
  S   S278      1.0  0.75071  0.62146  0.89891  1.0000
  C   C1056     1.0  0.84296  0.63582  0.53535  1.0000
  H   H1260     1.0  0.88085  0.60631  0.76876  1.0000
  C   C1057     1.0  0.88141  0.65120  0.71347  1.0000
  H   H1261     1.0  0.85998  0.61902  0.62208  1.0000
  N   N70       1.0  0.88717  0.63762  0.77588  1.0000
  H   H1262     1.0  0.85899  0.58480  0.96599  1.0000
  S   S279      1.0  0.88205  0.63996  0.53956  1.0000
  H   H1263     1.0  0.86192  0.64626  0.78149  1.0000
  H   H1264     1.0  0.90365  0.64141  0.82815  1.0000
  H   H1265     1.0  0.85953  0.61287  0.76598  1.0000
  S   S280      1.0  0.75646  0.57942  0.91845  1.0000
  C   C1058     1.0  0.87416  0.61651  0.78045  1.0000
  H   H1266     1.0  0.91730  0.65648  0.79114  1.0000
  C   C1059     1.0  0.73507  0.58135  0.70137  1.0000
  H   H1267     1.0  0.87771  0.66172  0.65889  1.0000
  H   H1268     1.0  0.81224  0.63285  0.53120  1.0000
  H   H1269     1.0  0.87568  0.64802  0.82338  1.0000
  C   C1060     1.0  0.85378  0.63065  0.95850  1.0000
  C   C1061     1.0  0.89105  0.64127  0.73574  1.0000
  H   H1270     1.0  0.88601  0.66625  0.78868  1.0000
  C   C1062     1.0  0.79324  0.61879  0.63188  1.0000
  C   C1063     1.0  0.90596  0.64166  0.79757  1.0000
  C   C1064     1.0  0.83656  0.58867  0.69166  1.0000
  S   S281      1.0  0.75335  0.62123  0.56506  1.0000
  H   H1271     1.0  0.76477  0.58394  0.63754  1.0000
  C   C1065     1.0  0.90404  0.63394  0.71724  1.0000
  C   C1066     1.0  0.90754  0.63676  0.67922  1.0000
  C   C1067     1.0  0.89813  0.64683  0.65836  1.0000
  H   H1272     1.0  0.91158  0.62586  0.73189  1.0000
  H   H1273     1.0  0.91763  0.63106  0.66583  1.0000
  H   H1274     1.0  0.90088  0.64896  0.62882  1.0000
  C   C1068     1.0  0.88508  0.65401  0.67543  1.0000
  H   H1275     1.0  0.77318  0.60987  0.69170  1.0000
  H   H1276     1.0  0.86615  0.59815  0.67079  1.0000
  C   C1069     1.0  0.84829  0.61116  0.64096  1.0000
  H   H1277     1.0  0.80840  0.62605  0.89462  1.0000
  S   S282      1.0  0.91384  0.61546  0.96724  1.0000
  H   H1278     1.0  0.86644  0.63237  0.97651  1.0000
  H   H1279     1.0  0.87100  0.65696  0.72475  1.0000
  S   S283      1.0  0.74338  0.58089  0.81430  1.0000
  C   C1070     1.0  0.82975  0.61267  0.63725  1.0000
  N   N71       1.0  0.79401  0.60310  0.65733  1.0000
  H   H1280     1.0  0.78473  0.57983  0.61524  1.0000
  C   C1071     1.0  0.79833  0.53735  0.97719  1.0000
  H   H1281     1.0  0.82452  0.53908  0.91951  1.0000
  H   H1282     1.0  0.82220  0.57861  0.54418  1.0000
  H   H1283     1.0  0.79593  0.61557  0.60257  1.0000
  C   C1072     1.0  0.78724  0.60718  0.69419  1.0000
  S   S284      1.0  0.97195  0.62721  0.95437  1.0000
  S   S285      1.0  0.79609  0.62295  0.97235  1.0000
  C   C1073     1.0  0.82753  0.57690  0.91991  1.0000
  H   H1284     1.0  0.80641  0.58093  0.70602  1.0000
  H   H1285     1.0  0.82459  0.59038  0.92735  1.0000
  H   H1286     1.0  0.84167  0.58233  0.90463  1.0000
  H   H1287     1.0  0.77833  0.61978  0.63123  1.0000
  H   H1288     1.0  0.74507  0.56497  0.74150  1.0000
  C   C1074     1.0  0.80932  0.55791  0.97141  1.0000
  H   H1289     1.0  0.80372  0.52595  0.96918  1.0000
  C   C1075     1.0  0.73703  0.58723  0.76923  1.0000
  C   C1076     1.0  0.81789  0.58994  0.68799  1.0000
  C   C1077     1.0  0.77983  0.58371  0.64242  1.0000
  H   H1290     1.0  0.78392  0.59451  0.71338  1.0000
  N   N72       1.0  0.82872  0.56536  0.95304  1.0000
  C   C1078     1.0  0.81398  0.60223  0.66103  1.0000
  H   H1291     1.0  0.83765  0.54066  0.96378  1.0000
  Fe  Fe142     1.0  0.74020  0.59017  0.87478  1.0000
  C   C1079     1.0  0.80059  0.57139  0.98341  1.0000
  S   S286      1.0  0.73921  0.60148  0.98187  1.0000
  Fe  Fe143     1.0  0.73182  0.61765  0.51669  1.0000
  S   S287      1.0  0.88172  0.55672  0.98060  1.0000
  H   H1292     1.0  0.84874  0.65182  0.53279  1.0000
  H   H1293     1.0  0.73437  0.70310  0.86958  1.0000
  H   H1294     1.0  0.80801  0.58724  0.98019  1.0000
  H   H1295     1.0  0.84094  0.59145  0.98926  1.0000
  H   H1296     1.0  0.73667  0.57280  0.67770  1.0000
  Fe  Fe144     1.0  0.92085  0.59862  0.49672  1.0000
  C   C1080     1.0  0.73969  0.57684  0.73769  1.0000
  S   S288      1.0  0.98171  0.66487  0.52626  1.0000
