data_image0
_chemical_formula_structural       CSFeHSCSHSCHS2HSC2S2CHC6H4C6H6C3H2C6H4C6H3NFeH2CHNC3HCH2CH5C2H3SHCHCSH2CFeHSHCHCH2CHSC2H8CHCH3SH4CSH3SH2FeHFeSC2HCNHCFeHFeH2CHCHCH2C3H2CSCSH2SH3C6H4C6H4NH2C3H3CFeHSCS2C9NH3SC6H5FeSH4C3H2CHC2H2CSHCSH3C2HFeSH2FeSCFeHCHSH3C2HSHSH3CHC2HCH2Fe2H5CHCHS2H2SC2H2SCSHFeS2FeS2H2SH2SC2HSC7H4C6H4CH2C3H2C6H4C6H5CNSCH3CH5C2HCHCHCFeHCH2SCH4CSC4H2S2HCH2C3H2CH2CHFeH2C3H2S2CH2C3H6SHCHFeHFeHC2HC2SHFeHCHCSH2C2HC2HFeS2CFeS2FeHSCH2FeS2HFeSHSHFeS2NFeS2CFeHSCSFeSFeS2HC6H5NC2H4C6H4C6H4C6H4CNH3SCHC3HC3HNHC2NC10HFeH4NH7CH2CH3NH2CH4CH2SC3HCHCH3C2HC3H2C4NHCFeSCH5CHCHCHCHCH5CH2CH4C2HC3H2CSC2H3CHC3HFeCH3CH2S2H2CH2CHCHFeH2NCSH3C2HCHCSHSHFeSHCFeS2CFeH2SHFeSFe2S3HC6H4C7H4C3H2CFeS2HFeCSHFeSCSHSFeS2FeSC5H4FeC6H6C3HC2H2CH6CH2C2HFeH2C2H6SHSHCH2NC9H16CH2C2H3CNC2HC6SC3HC3H2CH9CHSFeC3HCFeHNHCHCHCHC2H2C2NCH3NCH3CHCHC2H4NH3CHCH3C3HC2HCHNCFe2S2CFeS2HC2FeSCNFeSH2FeSCSCFeS2CFeSNCSCFeSHCFeS2FeS2C6H4C6H4C6HNH2C6H7C2H4CH2CHCHCH4C2HCH4CSCHSH3NH2FeCHSHFeSHCH3FeH2NH2CH2CHSC2HNH5NCH4SNC3H2CHC5H2C3H2NHCSH2FeHCH5C3HCFeH3CHSC2H2CH2CHFeH2CH2C2H4CH2C2H2CH2CH3CSHC3H2CHS2FeCFeSCFe2S2H2FeCSCFeS2HFeSHSH4FeS2CFeSNSHFeS2FeS2C6H4CHNSCH2FeC6H4C2SFeC7H4C6H4CSCH2CH2CH2CH2CH6C3HCFeH5CS2H3C2SH2C2NCH2C3H3NC3HCHCH2NH2C2H6CNHC2FeCHCNH2C4HCH4CH3CHC2H2NHCH2CH6CHCHCHCSCSCHCH5CHFeHCH3CSH2SH2CFeS2FeS2CFeHSFeS2FeHSH2C3H2C4HCH3C7H4FeSCFe2S3FeSCHFeSCSHS2FeSC6H4C3H2C8H2CH2CHCH2CH2SCH2CH2CH2CS2NCH2CHCH3CNCHNC9H13CNH3C2H5C3SH2C2NCHC2NC2H5CH3CH3CHC2H3C2HC2H4CHCH3CH4CHNHC2H4SH3NCH3CH2C4H3C3HCFeH2CHCH5NHCH2FeS2HCFeSHSHCFeS3FeS2FeSCFeSHSFeCSHC2SFeSHFeS2CSHC6H4C6H4CHCFeHC6H4C5HCHC6H6NCHFeC3HC2NC6H9C3HCHCH7NCFeCNCHNH2NCH2C3HCH2C3H2C2H3NCH3CH6C2H3C4H3SCHCHCHC2HCH2CH3CHCH3NH3C3H4SCSCH2CFeC4NH2CSHCHSHCH2CH3CFeSH4CH3C2SCH2SHS2C2S4HCSHS2CSHSC2H2C6H4C6H5C4HCH4C6H4C4HSHCNC9H14CFeHSHSHFeCH2FeCH2FeCH2FeCSH2NH6CFeHCH8C2HSNHCFeH3CSHS2HSC5H2C6H4C6H4CSHCSHSFeSC4H2SC4H6C5H2SCHC8HCH2CH3C2H2SCH2CH2C2HSH3NSH2CH3CFeCHCSFeH3CNH2CSCH2SC2H3NC2H2SH2C3H2CH2CFeCSHCH2CHCHCFeH3CHFeHSCH2S2HSC2FeSFeCHS2HSH6C6H4C6H4C5H3C7H4C4NC9H14S2CH2CFeHFeSH3CH2CHSHC2H3C2SCH2C2SHCH2SHC3HSHCH2CH2C2HC2H2CHCHCHCHC2Fe2SCH
_chemical_formula_sum              "C960 S256 Fe128 H1152 N64"
_cell_length_a       31.8622
_cell_length_b       32.4602
_cell_length_c       45.9381
_cell_angle_alpha    90.0681
_cell_angle_beta     90.2087
_cell_angle_gamma    90.1198

_space_group_name_H-M_alt    "P 1"
_space_group_IT_number       1

loop_
  _space_group_symop_operation_xyz
  'x, y, z'

loop_
  _atom_site_type_symbol
  _atom_site_label
  _atom_site_symmetry_multiplicity
  _atom_site_fract_x
  _atom_site_fract_y
  _atom_site_fract_z
  _atom_site_occupancy
  C   C1        1.0  0.15899  0.22744  0.03529  1.0000
  S   S1        1.0  0.08770  0.30515  0.07756  1.0000
  Fe  Fe1       1.0  0.23225  0.50455  0.32284  1.0000
  H   H1        1.0  0.06163  0.03483  0.22312  1.0000
  S   S2        1.0  0.48957  0.22513  0.13458  1.0000
  C   C2        1.0  0.48400  0.32653  0.02106  1.0000
  S   S3        1.0  0.46021  0.19305  0.21558  1.0000
  H   H2        1.0  0.03332  0.51833  0.30187  1.0000
  S   S4        1.0  0.45102  0.33273  0.10395  1.0000
  C   C3        1.0  0.50331  0.31313  0.27126  1.0000
  H   H3        1.0  0.07696  0.16040  0.03594  1.0000
  S   S5        1.0  0.15445  0.48630  0.05286  1.0000
  S   S6        1.0  0.32179  0.46667  0.14993  1.0000
  H   H4        1.0  0.13507  0.11531  0.05251  1.0000
  S   S7        1.0  0.18772  0.47266  0.29138  1.0000
  C   C4        1.0  0.28121  0.25447  0.19477  1.0000
  C   C5        1.0  0.09178  0.13974  0.02071  1.0000
  S   S8        1.0  0.20384  0.08449  0.26768  1.0000
  S   S9        1.0  0.03053  0.29939  0.25247  1.0000
  C   C6        1.0  0.12474  0.11410  0.03006  1.0000
  H   H5        1.0  0.38298  0.06730  0.08081  1.0000
  C   C7        1.0  0.41457  0.36901  0.11729  1.0000
  C   C8        1.0  0.40642  0.37321  0.14706  1.0000
  C   C9        1.0  0.37785  0.40319  0.15684  1.0000
  C   C10       1.0  0.35723  0.42912  0.13695  1.0000
  C   C11       1.0  0.36560  0.42498  0.10723  1.0000
  C   C12       1.0  0.39405  0.39497  0.09746  1.0000
  H   H6        1.0  0.42201  0.35341  0.16256  1.0000
  H   H7        1.0  0.37164  0.40628  0.17987  1.0000
  H   H8        1.0  0.35032  0.44497  0.09172  1.0000
  H   H9        1.0  0.40028  0.39205  0.07441  1.0000
  C   C13       1.0  0.38369  0.08012  0.18599  1.0000
  C   C14       1.0  0.38187  0.09386  0.21484  1.0000
  C   C15       1.0  0.40591  0.12816  0.22375  1.0000
  C   C16       1.0  0.43149  0.14928  0.20384  1.0000
  C   C17       1.0  0.43332  0.13537  0.17504  1.0000
  C   C18       1.0  0.40961  0.10092  0.16620  1.0000
  H   H10       1.0  0.36261  0.07768  0.23042  1.0000
  H   H11       1.0  0.40463  0.13846  0.24614  1.0000
  H   H12       1.0  0.45329  0.15088  0.15958  1.0000
  H   H13       1.0  0.41160  0.09024  0.14392  1.0000
  H   H14       1.0  0.04386  0.30177  0.16593  1.0000
  H   H15       1.0  0.25226  0.26752  0.20266  1.0000
  C   C19       1.0  0.15292  0.43390  0.30366  1.0000
  C   C20       1.0  0.12430  0.41633  0.28390  1.0000
  C   C21       1.0  0.09636  0.38521  0.29284  1.0000
  H   H16       1.0  0.12399  0.42651  0.26148  1.0000
  H   H17       1.0  0.07460  0.37189  0.27738  1.0000
  C   C22       1.0  0.08639  0.15569  0.23814  1.0000
  C   C23       1.0  0.10538  0.16400  0.26503  1.0000
  C   C24       1.0  0.14090  0.14148  0.27399  1.0000
  C   C25       1.0  0.15776  0.11043  0.25623  1.0000
  C   C26       1.0  0.13865  0.10187  0.22941  1.0000
  C   C27       1.0  0.10317  0.12448  0.22042  1.0000
  H   H18       1.0  0.09287  0.18798  0.27886  1.0000
  H   H19       1.0  0.15551  0.14841  0.29473  1.0000
  H   H20       1.0  0.15135  0.07814  0.21547  1.0000
  H   H21       1.0  0.08872  0.11789  0.19956  1.0000
  C   C28       1.0  0.10602  0.35553  0.07063  1.0000
  C   C29       1.0  0.14176  0.37022  0.08532  1.0000
  C   C30       1.0  0.15701  0.41027  0.08008  1.0000
  C   C31       1.0  0.13651  0.43583  0.06009  1.0000
  C   C32       1.0  0.10086  0.42100  0.04534  1.0000
  C   C33       1.0  0.08564  0.38099  0.05057  1.0000
  H   H22       1.0  0.15769  0.35066  0.10086  1.0000
  H   H23       1.0  0.18453  0.42141  0.09153  1.0000
  H   H24       1.0  0.08482  0.44063  0.02988  1.0000
  N   N1        1.0  0.51943  0.26012  0.03499  1.0000
  Fe  Fe2       1.0  0.28671  0.50573  0.11689  1.0000
  H   H25       1.0  0.30793  0.47712  0.21486  1.0000
  H   H26       1.0  0.51918  0.33796  0.25865  1.0000
  C   C34       1.0  0.28286  0.03369  0.07063  1.0000
  H   H27       1.0  0.28427  0.12854  0.19408  1.0000
  N   N2        1.0  0.26669  0.18403  0.21744  1.0000
  C   C35       1.0  0.48730  0.24939  0.05696  1.0000
  C   C36       1.0  0.30727  0.28089  0.17882  1.0000
  C   C37       1.0  0.09699  0.37119  0.32162  1.0000
  H   H28       1.0  0.19161  0.04020  0.32691  1.0000
  C   C38       1.0  0.25613  0.14708  0.19977  1.0000
  H   H29       1.0  0.49777  0.25886  0.31582  1.0000
  H   H30       1.0  0.48690  0.21576  0.06177  1.0000
  C   C39       1.0  0.35761  0.22628  0.17277  1.0000
  H   H31       1.0  0.25963  0.51057  0.00765  1.0000
  H   H32       1.0  0.25230  0.50136  0.18263  1.0000
  H   H33       1.0  0.31932  0.15340  0.23795  1.0000
  H   H34       1.0  0.05799  0.37003  0.03918  1.0000
  H   H35       1.0  0.12195  0.29579  0.01728  1.0000
  C   C40       1.0  0.29571  0.49731  0.23255  1.0000
  C   C41       1.0  0.29040  0.17064  0.24362  1.0000
  H   H36       1.0  0.49220  0.41420  0.09600  1.0000
  H   H37       1.0  0.45086  0.45314  0.12711  1.0000
  H   H38       1.0  0.36559  0.28750  0.15569  1.0000
  S   S10       1.0  0.18604  0.05576  0.02333  1.0000
  H   H39       1.0  0.50748  0.20540  0.00937  1.0000
  C   C42       1.0  0.02907  0.02598  0.22511  1.0000
  H   H40       1.0  0.23470  0.12585  0.21172  1.0000
  C   C43       1.0  0.46854  0.48152  0.12824  1.0000
  S   S11       1.0  0.27616  0.48827  0.07017  1.0000
  H   H41       1.0  0.45622  0.38431  0.00845  1.0000
  H   H42       1.0  0.25547  0.04264  0.05836  1.0000
  C   C44       1.0  0.31885  0.05796  0.06759  1.0000
  Fe  Fe3       1.0  0.49743  0.23045  0.18278  1.0000
  H   H43       1.0  0.03674  0.33928  0.12593  1.0000
  S   S12       1.0  0.35659  0.03545  0.17431  1.0000
  H   H44       1.0  0.23197  0.22917  0.24218  1.0000
  C   C45       1.0  0.51947  0.05885  0.20417  1.0000
  H   H45       1.0  0.21787  0.49759  0.21342  1.0000
  C   C46       1.0  0.22654  0.20228  0.22756  1.0000
  H   H46       1.0  0.27131  0.14972  0.25760  1.0000
  H   H47       1.0  0.08572  0.50137  0.29433  1.0000
  C   C47       1.0  0.34541  0.26687  0.16792  1.0000
  H   H48       1.0  0.29796  0.31258  0.17493  1.0000
  S   S13       1.0  0.03067  0.28386  0.00313  1.0000
  C   C48       1.0  0.35517  0.04830  0.08302  1.0000
  C   C49       1.0  0.51314  0.48143  0.12808  1.0000
  H   H49       1.0  0.43403  0.37964  0.31746  1.0000
  H   H50       1.0  0.20090  0.02444  0.08840  1.0000
  H   H51       1.0  0.24022  0.15588  0.17908  1.0000
  H   H52       1.0  0.12615  0.23231  0.04289  1.0000
  H   H53       1.0  0.18028  0.23978  0.05249  1.0000
  H   H54       1.0  0.47675  0.30182  0.25756  1.0000
  H   H55       1.0  0.20634  0.21188  0.20895  1.0000
  H   H56       1.0  0.16370  0.19360  0.03415  1.0000
  C   C50       1.0  0.33168  0.19956  0.18843  1.0000
  H   H57       1.0  0.21415  0.47865  0.00223  1.0000
  C   C51       1.0  0.29281  0.21281  0.20014  1.0000
  H   H58       1.0  0.48110  0.23672  0.28173  1.0000
  H   H59       1.0  0.31847  0.08436  0.05314  1.0000
  H   H60       1.0  0.49358  0.26592  0.07770  1.0000
  S   S14       1.0  0.23672  0.03464  0.19235  1.0000
  H   H61       1.0  0.34253  0.16839  0.19148  1.0000
  H   H62       1.0  0.20772  0.17981  0.24042  1.0000
  H   H63       1.0  0.38753  0.21550  0.16452  1.0000
  H   H64       1.0  0.30009  0.19758  0.25712  1.0000
  C   C52       1.0  0.50905  0.24716  0.29444  1.0000
  S   S15       1.0  0.29987  0.51729  0.31111  1.0000
  H   H65       1.0  0.48901  0.32674  0.29113  1.0000
  H   H66       1.0  0.17432  0.30738  0.02778  1.0000
  H   H67       1.0  0.32224  0.50656  0.24697  1.0000
  S   S16       1.0  0.04217  0.18391  0.22580  1.0000
  H   H68       1.0  0.27427  0.47773  0.24582  1.0000
  H   H69       1.0  0.50964  0.09078  0.20588  1.0000
  Fe  Fe4       1.0  0.49110  0.29423  0.13412  1.0000
  H   H70       1.0  0.45504  0.25780  0.04990  1.0000
  Fe  Fe5       1.0  0.21099  0.51225  0.07655  1.0000
  S   S17       1.0  0.49277  0.29960  0.18254  1.0000
  C   C53       1.0  0.50852  0.23954  0.00719  1.0000
  C   C54       1.0  0.52044  0.30538  0.03076  1.0000
  H   H71       1.0  0.38599  0.43783  0.32886  1.0000
  C   C55       1.0  0.14427  0.08684  0.01062  1.0000
  N   N3        1.0  0.16672  0.24799  0.00697  1.0000
  H   H72       1.0  0.45495  0.31023  0.01697  1.0000
  C   C56       1.0  0.52091  0.39175  0.02081  1.0000
  Fe  Fe6       1.0  0.23095  0.03236  0.24082  1.0000
  H   H73       1.0  0.49012  0.40531  0.14917  1.0000
  Fe  Fe7       1.0  0.03116  0.28370  0.05180  1.0000
  H   H74       1.0  0.28408  0.02780  0.30928  1.0000
  H   H75       1.0  0.52163  0.25194  0.23679  1.0000
  C   C57       1.0  0.15525  0.29211  0.01047  1.0000
  H   H76       1.0  0.52137  0.42454  0.01642  1.0000
  C   C58       1.0  0.48437  0.36904  0.01616  1.0000
  H   H77       1.0  0.45837  0.03794  0.19281  1.0000
  C   C59       1.0  0.49030  0.02836  0.19663  1.0000
  H   H78       1.0  0.52818  0.21925  0.29875  1.0000
  H   H79       1.0  0.41160  0.51723  0.12958  1.0000
  C   C60       1.0  0.52622  0.42143  0.09817  1.0000
  C   C61       1.0  0.52368  0.41440  0.15039  1.0000
  C   C62       1.0  0.44571  0.51820  0.12955  1.0000
  H   H80       1.0  0.03016  0.26638  0.11965  1.0000
  H   H81       1.0  0.26252  0.51470  0.43245  1.0000
  C   C63       1.0  0.51802  0.46744  0.64063  1.0000
  S   S18       1.0  0.47782  0.18648  0.46426  1.0000
  C   C64       1.0  0.16581  0.24924  0.54579  1.0000
  S   S19       1.0  0.48708  0.32843  0.35332  1.0000
  H   H82       1.0  0.11593  0.31696  0.55122  1.0000
  H   H83       1.0  0.06616  0.16171  0.51698  1.0000
  S   S20       1.0  0.36612  0.47819  0.38450  1.0000
  H   H84       1.0  0.09343  0.09139  0.52542  1.0000
  H   H85       1.0  0.25806  0.51344  0.50115  1.0000
  H   H86       1.0  0.31227  0.48980  0.43139  1.0000
  C   C65       1.0  0.45114  0.36824  0.36220  1.0000
  C   C66       1.0  0.44486  0.38059  0.39102  1.0000
  C   C67       1.0  0.41821  0.41387  0.39736  1.0000
  C   C68       1.0  0.39674  0.43470  0.37507  1.0000
  C   C69       1.0  0.40212  0.42184  0.34624  1.0000
  C   C70       1.0  0.51081  0.27444  0.51141  1.0000
  H   H87       1.0  0.46090  0.36490  0.40847  1.0000
  H   H88       1.0  0.41418  0.42352  0.41972  1.0000
  H   H89       1.0  0.17479  0.43386  0.34805  1.0000
  H   H90       1.0  0.04298  0.48035  0.62197  1.0000
  C   C71       1.0  0.44164  0.14895  0.45126  1.0000
  C   C72       1.0  0.43699  0.14021  0.42158  1.0000
  C   C73       1.0  0.40845  0.10954  0.41229  1.0000
  C   C74       1.0  0.38408  0.08751  0.43250  1.0000
  C   C75       1.0  0.38921  0.09585  0.46219  1.0000
  C   C76       1.0  0.41793  0.12631  0.47148  1.0000
  H   H91       1.0  0.45514  0.15723  0.40577  1.0000
  H   H92       1.0  0.40494  0.10317  0.38929  1.0000
  H   H93       1.0  0.37104  0.07891  0.47804  1.0000
  H   H94       1.0  0.42156  0.13258  0.49450  1.0000
  N   N4        1.0  0.50735  0.25902  0.54167  1.0000
  H   H95       1.0  0.12591  0.37859  0.36381  1.0000
  H   H96       1.0  0.04366  0.25207  0.41808  1.0000
  C   C77       1.0  0.14174  0.09547  0.49278  1.0000
  C   C78       1.0  0.14531  0.16112  0.46744  1.0000
  C   C79       1.0  0.16077  0.12101  0.47213  1.0000
  H   H97       1.0  0.15979  0.18057  0.45120  1.0000
  H   H98       1.0  0.18687  0.10962  0.45948  1.0000
  H   H99       1.0  0.51473  0.10343  0.46244  1.0000
  C   C80       1.0  0.25410  0.03504  0.36289  1.0000
  Fe  Fe8       1.0  0.51774  0.22947  0.43656  1.0000
  H   H100      1.0  0.36011  0.49365  0.47168  1.0000
  S   S21       1.0  0.49459  0.34732  0.60997  1.0000
  C   C81       1.0  0.11093  0.17585  0.48340  1.0000
  S   S22       1.0  0.18077  0.48799  0.53869  1.0000
  S   S23       1.0  0.32481  0.44161  0.63976  1.0000
  C   C82       1.0  0.09249  0.15061  0.50440  1.0000
  C   C83       1.0  0.10789  0.11063  0.50906  1.0000
  C   C84       1.0  0.44778  0.37383  0.61882  1.0000
  C   C85       1.0  0.42446  0.36371  0.64353  1.0000
  C   C86       1.0  0.33663  0.50962  0.48545  1.0000
  C   C87       1.0  0.37255  0.41647  0.63131  1.0000
  C   C88       1.0  0.39613  0.42694  0.60676  1.0000
  C   C89       1.0  0.43357  0.40563  0.60054  1.0000
  C   C90       1.0  0.19936  0.31788  0.55253  1.0000
  N   N5        1.0  0.17274  0.29123  0.53379  1.0000
  H   H101      1.0  0.38543  0.45128  0.59250  1.0000
  H   H102      1.0  0.45152  0.41381  0.58145  1.0000
  H   H103      1.0  0.37582  0.13171  0.64386  1.0000
  S   S24       1.0  0.04032  0.36043  0.57916  1.0000
  C   C91       1.0  0.07969  0.39524  0.56748  1.0000
  C   C92       1.0  0.10523  0.41480  0.58833  1.0000
  C   C93       1.0  0.13658  0.44294  0.57984  1.0000
  C   C94       1.0  0.14238  0.45211  0.55038  1.0000
  C   C95       1.0  0.11658  0.43279  0.52954  1.0000
  C   C96       1.0  0.08534  0.40452  0.53803  1.0000
  H   H104      1.0  0.10095  0.40801  0.61118  1.0000
  H   H105      1.0  0.15605  0.45769  0.59612  1.0000
  H   H106      1.0  0.12061  0.43995  0.50672  1.0000
  H   H107      1.0  0.06540  0.39022  0.52180  1.0000
  H   H108      1.0  0.44022  0.26769  0.54229  1.0000
  Fe  Fe9       1.0  0.31299  0.50830  0.35900  1.0000
  S   S25       1.0  0.50500  0.29752  0.43524  1.0000
  H   H109      1.0  0.19564  0.23163  0.54752  1.0000
  H   H110      1.0  0.14480  0.23048  0.53147  1.0000
  H   H111      1.0  0.52128  0.41539  0.42132  1.0000
  H   H112      1.0  0.13232  0.33957  0.51738  1.0000
  C   C97       1.0  0.23094  0.38569  0.56244  1.0000
  C   C98       1.0  0.46889  0.27744  0.55440  1.0000
  C   C99       1.0  0.04890  0.51800  0.55961  1.0000
  H   H113      1.0  0.04309  0.48595  0.55463  1.0000
  H   H114      1.0  0.12712  0.51561  0.33283  1.0000
  C   C100      1.0  0.25010  0.37058  0.58751  1.0000
  H   H115      1.0  0.22457  0.27292  0.50688  1.0000
  C   C101      1.0  0.47415  0.18963  0.55408  1.0000
  C   C102      1.0  0.24458  0.32947  0.59530  1.0000
  H   H116      1.0  0.17380  0.26612  0.49026  1.0000
  H   H117      1.0  0.23501  0.41779  0.55654  1.0000
  C   C103      1.0  0.13087  0.31037  0.52983  1.0000
  S   S26       1.0  0.22974  0.50963  0.61875  1.0000
  H   H118      1.0  0.24969  0.06167  0.34796  1.0000
  C   C104      1.0  0.03554  0.02462  0.50600  1.0000
  S   S27       1.0  0.29539  0.49558  0.56395  1.0000
  H   H119      1.0  0.45034  0.12912  0.56422  1.0000
  H   H120      1.0  0.06826  0.02773  0.50028  1.0000
  H   H121      1.0  0.48472  0.26228  0.49764  1.0000
  C   C105      1.0  0.12523  0.38920  0.34149  1.0000
  C   C106      1.0  0.51011  0.12592  0.54293  1.0000
  H   H122      1.0  0.46544  0.26923  0.57781  1.0000
  Fe  Fe10      1.0  0.29803  0.49383  0.61263  1.0000
  S   S28       1.0  0.04121  0.24803  0.55331  1.0000
  H   H123      1.0  0.48153  0.05187  0.49249  1.0000
  H   H124      1.0  0.15043  0.25052  0.56750  1.0000
  Fe  Fe11      1.0  0.03721  0.24658  0.50474  1.0000
  S   S29       1.0  0.24659  0.49005  0.36949  1.0000
  C   C107      1.0  0.38701  0.38492  0.64970  1.0000
  Fe  Fe12      1.0  0.22845  0.51570  0.57000  1.0000
  H   H125      1.0  0.10921  0.29012  0.51727  1.0000
  C   C108      1.0  0.42947  0.38891  0.33984  1.0000
  H   H126      1.0  0.21671  0.27188  0.58555  1.0000
  S   S30       1.0  0.49862  0.23215  0.63719  1.0000
  H   H127      1.0  0.48624  0.45792  0.64585  1.0000
  H   H128      1.0  0.28122  0.04383  0.37699  1.0000
  H   H129      1.0  0.26926  0.39081  0.60095  1.0000
  C   C109      1.0  0.20615  0.35984  0.54508  1.0000
  C   C110      1.0  0.21965  0.30330  0.57818  1.0000
  H   H130      1.0  0.22593  0.03269  0.37700  1.0000
  S   S31       1.0  0.09155  0.22591  0.47683  1.0000
  H   H131      1.0  0.19595  0.31654  0.49338  1.0000
  S   S32       1.0  0.28407  0.03523  0.49497  1.0000
  H   H132      1.0  0.19210  0.37324  0.52586  1.0000
  H   H133      1.0  0.25973  0.31797  0.61484  1.0000
  H   H134      1.0  0.51157  0.09263  0.54382  1.0000
  C   C111      1.0  0.47576  0.14657  0.55454  1.0000
  H   H135      1.0  0.46973  0.31175  0.55367  1.0000
  C   C112      1.0  0.19267  0.28658  0.50485  1.0000
  C   C113      1.0  0.51405  0.04779  0.48610  1.0000
  H   H136      1.0  0.48595  0.47140  0.41520  1.0000
  C   C114      1.0  0.50726  0.21335  0.54178  1.0000
  H   H137      1.0  0.43506  0.33933  0.65780  1.0000
  H   H138      1.0  0.04985  0.41705  0.36744  1.0000
  Fe  Fe13      1.0  0.52078  0.29783  0.63968  1.0000
  Fe  Fe14      1.0  0.52286  0.29331  0.38833  1.0000
  H   H139      1.0  0.42873  0.18297  0.66033  1.0000
  H   H140      1.0  0.27323  0.47282  0.45676  1.0000
  H   H141      1.0  0.44678  0.20353  0.56369  1.0000
  H   H142      1.0  0.32366  0.48536  0.49997  1.0000
  H   H143      1.0  0.49787  0.10363  0.65505  1.0000
  C   C115      1.0  0.28716  0.50051  0.44628  1.0000
  H   H144      1.0  0.50986  0.30874  0.51044  1.0000
  C   C116      1.0  0.49923  0.49164  0.39906  1.0000
  H   H145      1.0  0.05053  0.48300  0.39449  1.0000
  S   S33       1.0  0.15750  0.04383  0.49797  1.0000
  S   S34       1.0  0.34933  0.04840  0.41983  1.0000
  H   H146      1.0  0.13847  0.51714  0.38530  1.0000
  H   H147      1.0  0.43948  0.02185  0.42630  1.0000
  S   S35       1.0  0.06235  0.33206  0.33367  1.0000
  C   C117      1.0  0.15297  0.42055  0.33260  1.0000
  C   C118      1.0  0.52718  0.50898  0.63648  1.0000
  H   H148      1.0  0.02927  0.23324  0.63796  1.0000
  H   H149      1.0  0.23922  0.10117  0.74408  1.0000
  S   S36       1.0  0.09423  0.34465  0.82266  1.0000
  C   C119      1.0  0.22633  0.20086  0.99357  1.0000
  S   S37       1.0  0.46441  0.20008  0.71781  1.0000
  H   H150      1.0  0.14297  0.24449  0.96306  1.0000
  Fe  Fe15      1.0  0.47336  0.23061  0.93354  1.0000
  S   S38       1.0  0.47020  0.23639  0.88503  1.0000
  S   S39       1.0  0.42215  0.20388  0.96204  1.0000
  Fe  Fe16      1.0  0.49991  0.29842  0.89174  1.0000
  S   S40       1.0  0.47929  0.35185  0.86345  1.0000
  S   S41       1.0  0.49787  0.29512  0.94062  1.0000
  H   H151      1.0  0.14501  0.06427  0.96654  1.0000
  H   H152      1.0  0.35417  0.02413  0.83102  1.0000
  S   S42       1.0  0.32399  0.46129  0.90332  1.0000
  H   H153      1.0  0.08707  0.10966  0.94992  1.0000
  H   H154      1.0  0.12776  0.44542  0.88882  1.0000
  S   S43       1.0  0.19969  0.04657  0.78741  1.0000
  C   C120      1.0  0.19658  0.50176  0.94777  1.0000
  C   C121      1.0  0.09746  0.11096  0.97235  1.0000
  H   H155      1.0  0.33886  0.19861  0.73183  1.0000
  S   S44       1.0  0.18679  0.51422  0.79502  1.0000
  C   C122      1.0  0.03427  0.02653  0.94229  1.0000
  C   C123      1.0  0.43531  0.38124  0.87439  1.0000
  C   C124      1.0  0.42101  0.41344  0.85654  1.0000
  C   C125      1.0  0.38659  0.43782  0.86495  1.0000
  C   C126      1.0  0.36635  0.43035  0.89143  1.0000
  C   C127      1.0  0.38086  0.39836  0.90937  1.0000
  C   C128      1.0  0.41509  0.37380  0.90086  1.0000
  H   H156      1.0  0.43666  0.41962  0.83615  1.0000
  H   H157      1.0  0.37596  0.46251  0.85101  1.0000
  H   H158      1.0  0.36551  0.39246  0.92991  1.0000
  H   H159      1.0  0.42583  0.34916  0.91482  1.0000
  C   C129      1.0  0.40192  0.15488  0.95272  1.0000
  C   C130      1.0  0.41632  0.13367  0.92820  1.0000
  C   C131      1.0  0.39945  0.09483  0.92111  1.0000
  C   C132      1.0  0.36787  0.07708  0.93832  1.0000
  C   C133      1.0  0.35355  0.09820  0.96290  1.0000
  C   C134      1.0  0.37076  0.13687  0.97016  1.0000
  H   H160      1.0  0.44022  0.14735  0.91459  1.0000
  H   H161      1.0  0.41065  0.07866  0.90207  1.0000
  H   H162      1.0  0.32944  0.08463  0.97638  1.0000
  H   H163      1.0  0.29618  0.47880  0.73617  1.0000
  C   C135      1.0  0.34579  0.17411  0.80296  1.0000
  H   H164      1.0  0.36774  0.17688  0.82097  1.0000
  H   H165      1.0  0.30171  0.29259  0.97970  1.0000
  C   C136      1.0  0.42822  0.16282  0.70494  1.0000
  C   C137      1.0  0.41081  0.13462  0.72462  1.0000
  C   C138      1.0  0.38070  0.10564  0.71534  1.0000
  H   H166      1.0  0.42059  0.13518  0.74720  1.0000
  H   H167      1.0  0.36779  0.08426  0.73082  1.0000
  C   C139      1.0  0.11933  0.39169  0.81382  1.0000
  C   C140      1.0  0.15167  0.40578  0.83218  1.0000
  C   C141      1.0  0.17238  0.44323  0.82661  1.0000
  C   C142      1.0  0.16086  0.46712  0.80259  1.0000
  C   C143      1.0  0.12836  0.45317  0.78421  1.0000
  C   C144      1.0  0.10760  0.41555  0.78979  1.0000
  H   H168      1.0  0.16106  0.38738  0.85070  1.0000
  H   H169      1.0  0.19751  0.45344  0.84078  1.0000
  H   H170      1.0  0.11926  0.47151  0.76559  1.0000
  H   H171      1.0  0.08267  0.40506  0.77555  1.0000
  C   C145      1.0  0.10215  0.14043  0.75558  1.0000
  C   C146      1.0  0.12088  0.11298  0.73592  1.0000
  C   C147      1.0  0.15120  0.08459  0.74540  1.0000
  C   C148      1.0  0.16302  0.08328  0.77472  1.0000
  C   C149      1.0  0.14436  0.11072  0.79445  1.0000
  C   C150      1.0  0.11417  0.13942  0.78490  1.0000
  H   H172      1.0  0.11144  0.11333  0.71327  1.0000
  H   H173      1.0  0.16464  0.06321  0.73006  1.0000
  H   H174      1.0  0.15303  0.10970  0.81724  1.0000
  H   H175      1.0  0.09975  0.16029  0.80027  1.0000
  H   H176      1.0  0.50974  0.12011  0.69193  1.0000
  C   C151      1.0  0.27161  0.18272  0.70408  1.0000
  N   N6        1.0  0.25787  0.16262  0.73150  1.0000
  S   S45       1.0  0.06316  0.17434  0.74251  1.0000
  C   C152      1.0  0.25164  0.11832  0.72511  1.0000
  H   H177      1.0  0.52264  0.11783  0.90657  1.0000
  H   H178      1.0  0.27834  0.16262  0.98061  1.0000
  H   H179      1.0  0.45614  0.07081  0.68774  1.0000
  C   C153      1.0  0.15493  0.51478  0.94136  1.0000
  H   H180      1.0  0.22929  0.11328  0.70674  1.0000
  H   H181      1.0  0.30092  0.16845  0.69551  1.0000
  H   H182      1.0  0.33260  0.48561  0.69512  1.0000
  H   H183      1.0  0.27693  0.21634  0.70724  1.0000
  H   H184      1.0  0.20203  0.16468  0.75840  1.0000
  C   C154      1.0  0.36773  0.10448  0.68622  1.0000
  C   C155      1.0  0.35628  0.18977  0.77573  1.0000
  H   H185      1.0  0.38667  0.20426  0.77249  1.0000
  C   C156      1.0  0.04322  0.03827  0.77404  1.0000
  H   H186      1.0  0.51254  0.10251  0.94329  1.0000
  C   C157      1.0  0.52388  0.25889  0.81013  1.0000
  H   H187      1.0  0.49561  0.24443  0.80006  1.0000
  C   C158      1.0  0.13047  0.49439  0.92044  1.0000
  Fe  Fe17      1.0  0.03232  0.22396  0.76989  1.0000
  H   H188      1.0  0.19357  0.17926  0.72172  1.0000
  C   C159      1.0  0.48504  0.47604  0.90196  1.0000
  H   H189      1.0  0.03470  0.40357  0.84026  1.0000
  H   H190      1.0  0.28185  0.10365  0.71907  1.0000
  S   S46       1.0  0.04300  0.24256  0.81646  1.0000
  C   C160      1.0  0.28049  0.26703  0.98367  1.0000
  H   H191      1.0  0.32628  0.22139  0.97177  1.0000
  H   H192      1.0  0.10460  0.23393  0.99067  1.0000
  H   H193      1.0  0.21624  0.50934  0.71027  1.0000
  H   H194      1.0  0.24960  0.13513  0.78783  1.0000
  C   C161      1.0  0.47078  0.04193  0.69334  1.0000
  S   S47       1.0  0.30782  0.02938  0.75213  1.0000
  C   C162      1.0  0.32735  0.03056  0.84586  1.0000
  C   C163      1.0  0.30720  0.15471  0.80696  1.0000
  C   C164      1.0  0.21691  0.18091  0.73981  1.0000
  C   C165      1.0  0.29445  0.22688  0.97922  1.0000
  H   H195      1.0  0.33952  0.04504  0.86622  1.0000
  H   H196      1.0  0.09911  0.50528  0.91552  1.0000
  S   S48       1.0  0.03726  0.28830  0.75197  1.0000
  S   S49       1.0  0.52366  0.30029  0.68864  1.0000
  H   H197      1.0  0.24337  0.45587  0.93538  1.0000
  C   C166      1.0  0.14647  0.46057  0.90546  1.0000
  H   H198      1.0  0.24774  0.17924  0.68646  1.0000
  H   H199      1.0  0.48706  0.30385  0.76855  1.0000
  C   C167      1.0  0.32818  0.18638  0.75238  1.0000
  C   C168      1.0  0.38559  0.13236  0.66644  1.0000
  C   C169      1.0  0.51448  0.03473  0.68958  1.0000
  H   H200      1.0  0.51354  0.27558  0.83007  1.0000
  H   H201      1.0  0.26130  0.47069  0.98138  1.0000
  C   C170      1.0  0.18692  0.44674  0.91148  1.0000
  H   H202      1.0  0.02947  0.27577  0.68437  1.0000
  H   H203      1.0  0.36902  0.37669  0.66877  1.0000
  C   C171      1.0  0.28501  0.50916  0.74410  1.0000
  H   H204      1.0  0.45586  0.46469  0.91081  1.0000
  Fe  Fe18      1.0  0.50655  0.23281  0.68566  1.0000
  H   H205      1.0  0.50106  0.06785  0.91387  1.0000
  H   H206      1.0  0.35993  0.15288  0.98937  1.0000
  C   C172      1.0  0.41579  0.16132  0.67571  1.0000
  C   C173      1.0  0.13042  0.08529  0.98170  1.0000
  C   C174      1.0  0.52397  0.09124  0.92186  1.0000
  H   H207      1.0  0.25668  0.50238  0.75742  1.0000
  H   H208      1.0  0.20659  0.17412  0.99702  1.0000
  S   S50       1.0  0.03650  0.16980  0.97920  1.0000
  S   S51       1.0  0.30280  0.51171  0.82519  1.0000
  C   C175      1.0  0.21168  0.46694  0.93227  1.0000
  H   H209      1.0  0.19972  0.42098  0.89936  1.0000
  H   H210      1.0  0.39773  0.50225  0.67042  1.0000
  C   C176      1.0  0.28836  0.16707  0.75574  1.0000
  C   C177      1.0  0.27892  0.15097  0.78373  1.0000
  C   C178      1.0  0.26744  0.19385  0.98422  1.0000
  H   H211      1.0  0.30755  0.05420  0.83492  1.0000
  H   H212      1.0  0.04928  0.36797  0.88020  1.0000
  H   H213      1.0  0.47726  0.24894  0.99884  1.0000
  H   H214      1.0  0.29910  0.14253  0.82818  1.0000
  H   H215      1.0  0.22059  0.21384  0.74617  1.0000
  H   H216      1.0  0.25945  0.48998  0.68948  1.0000
  S   S52       1.0  0.32878  0.06954  0.67383  1.0000
  H   H217      1.0  0.50051  0.33535  0.79898  1.0000
  C   C179      1.0  0.24042  0.49453  0.99082  1.0000
  H   H218      1.0  0.05016  0.07083  0.77664  1.0000
  Fe  Fe19      1.0  0.04390  0.30746  0.79900  1.0000
  H   H219      1.0  0.15867  0.30946  0.98973  1.0000
  Fe  Fe20      1.0  0.29985  0.02215  0.70408  1.0000
  H   H220      1.0  0.03638  0.05132  0.92672  1.0000
  C   C180      1.0  0.13817  0.22997  0.98474  1.0000
  C   C181      1.0  0.52313  0.10641  0.67174  1.0000
  H   H221      1.0  0.51114  0.41483  0.90355  1.0000
  C   C182      1.0  0.51665  0.44679  0.89778  1.0000
  C   C183      1.0  0.21085  0.24144  0.99801  1.0000
  S   S53       1.0  0.34753  0.02837  0.92845  1.0000
  H   H222      1.0  0.40391  0.51143  0.89754  1.0000
  Fe  Fe21      1.0  0.29833  0.51126  0.87382  1.0000
  H   H223      1.0  0.10703  0.02063  0.77865  1.0000
  C   C184      1.0  0.07804  0.13831  0.99178  1.0000
  H   H224      1.0  0.14274  0.19629  0.98196  1.0000
  C   C185      1.0  0.51411  0.31840  0.78010  1.0000
  S   S54       1.0  0.22509  0.02055  0.94510  1.0000
  H   H225      1.0  0.24742  0.02815  0.86072  1.0000
  H   H226      1.0  0.23070  0.30633  0.99584  1.0000
  C   C186      1.0  0.23937  0.27445  0.99295  1.0000
  C   C187      1.0  0.34116  0.51775  0.69337  1.0000
  H   H227      1.0  0.27967  0.51792  0.94180  1.0000
  C   C188      1.0  0.49130  0.51809  0.89436  1.0000
  C   C189      1.0  0.24609  0.51836  0.69938  1.0000
  H   H228      1.0  0.14276  0.55037  0.29016  1.0000
  Fe  Fe22      1.0  0.29365  0.55397  0.06045  1.0000
  S   S55       1.0  0.30923  0.56990  0.10682  1.0000
  S   S56       1.0  0.33220  0.56308  0.01965  1.0000
  C   C190      1.0  0.04863  0.59902  0.28869  1.0000
  Fe  Fe23      1.0  0.24103  0.58751  0.11098  1.0000
  S   S57       1.0  0.22192  0.64948  0.12982  1.0000
  S   S58       1.0  0.22767  0.57691  0.06356  1.0000
  Fe  Fe24      1.0  0.28468  0.58272  0.32314  1.0000
  H   H229      1.0  0.50941  0.75838  0.32698  1.0000
  S   S59       1.0  0.29536  0.64049  0.29622  1.0000
  C   C191      1.0  0.37007  0.58056  0.18322  1.0000
  H   H230      1.0  0.41848  0.98365  0.20792  1.0000
  H   H231      1.0  0.52573  0.69908  0.29663  1.0000
  Fe  Fe25      1.0  0.45616  0.80108  0.13779  1.0000
  S   S60       1.0  0.45690  0.79584  0.18683  1.0000
  S   S61       1.0  0.42169  0.85655  0.11918  1.0000
  H   H232      1.0  0.09999  0.98067  0.24292  1.0000
  Fe  Fe26      1.0  0.46321  0.72753  0.17953  1.0000
  S   S62       1.0  0.44274  0.67142  0.20548  1.0000
  H   H233      1.0  0.46499  0.79646  0.07076  1.0000
  S   S63       1.0  0.45706  0.73211  0.13054  1.0000
  H   H234      1.0  0.13177  0.65438  0.10930  1.0000
  Fe  Fe27      1.0  0.27330  0.94774  0.24468  1.0000
  S   S64       1.0  0.28170  0.94365  0.19606  1.0000
  S   S65       1.0  0.28749  0.89358  0.27453  1.0000
  N   N7        1.0  0.47047  0.95490  0.18546  1.0000
  Fe  Fe28      1.0  0.21585  0.96825  0.19311  1.0000
  S   S66       1.0  0.16083  0.95216  0.16351  1.0000
  S   S67       1.0  0.20582  0.96787  0.24134  1.0000
  C   C192      1.0  0.33734  0.85438  0.31454  1.0000
  Fe  Fe29      1.0  0.07187  0.77804  0.05984  1.0000
  H   H235      1.0  0.47604  0.79868  0.31388  1.0000
  S   S68       1.0  0.12476  0.78715  0.09264  1.0000
  C   C193      1.0  0.43600  0.95406  0.20710  1.0000
  S   S69       1.0  0.05117  0.71199  0.05454  1.0000
  Fe  Fe30      1.0  0.06900  0.79288  0.30605  1.0000
  S   S70       1.0  0.07584  0.78932  0.25724  1.0000
  Fe  Fe31      1.0  0.07706  0.72050  0.26307  1.0000
  S   S71       1.0  0.11548  0.66744  0.24557  1.0000
  S   S72       1.0  0.07616  0.72451  0.31201  1.0000
  H   H236      1.0  0.18351  0.81477  0.31217  1.0000
  C   C194      1.0  0.15028  0.90515  0.14530  1.0000
  C   C195      1.0  0.17488  0.87000  0.14951  1.0000
  C   C196      1.0  0.16640  0.83391  0.13341  1.0000
  C   C197      1.0  0.13328  0.83267  0.11308  1.0000
  C   C198      1.0  0.10838  0.86763  0.10920  1.0000
  C   C199      1.0  0.11687  0.90367  0.12527  1.0000
  H   H237      1.0  0.20065  0.87072  0.16491  1.0000
  H   H238      1.0  0.18569  0.80688  0.13664  1.0000
  H   H239      1.0  0.08287  0.86708  0.09358  1.0000
  H   H240      1.0  0.09774  0.93076  0.12181  1.0000
  H   H241      1.0  0.37493  0.70659  0.03781  1.0000
  N   N8        1.0  0.04543  0.94893  0.22595  1.0000
  C   C200      1.0  0.36617  0.91726  0.29474  1.0000
  C   C201      1.0  0.33355  0.88842  0.29586  1.0000
  H   H242      1.0  0.51042  0.75386  0.00309  1.0000
  H   H243      1.0  0.33822  0.64124  0.05033  1.0000
  H   H244      1.0  0.36380  0.94349  0.28034  1.0000
  H   H245      1.0  0.42453  0.81040  0.02731  1.0000
  C   C202      1.0  0.38680  0.85965  0.08914  1.0000
  C   C203      1.0  0.37342  0.89869  0.07974  1.0000
  C   C204      1.0  0.34445  0.90277  0.05669  1.0000
  C   C205      1.0  0.32813  0.86765  0.04308  1.0000
  C   C206      1.0  0.34210  0.82863  0.05213  1.0000
  C   C207      1.0  0.37146  0.82460  0.07495  1.0000
  H   H246      1.0  0.38566  0.92599  0.09031  1.0000
  H   H247      1.0  0.33472  0.93305  0.04961  1.0000
  H   H248      1.0  0.33038  0.80128  0.04138  1.0000
  H   H249      1.0  0.38190  0.79437  0.08168  1.0000
  C   C208      1.0  0.33645  0.64845  0.27096  1.0000
  C   C209      1.0  0.33805  0.68572  0.25542  1.0000
  C   C210      1.0  0.37056  0.69359  0.23547  1.0000
  C   C211      1.0  0.40173  0.66407  0.23090  1.0000
  C   C212      1.0  0.40008  0.62680  0.24643  1.0000
  C   C213      1.0  0.36757  0.61893  0.26635  1.0000
  H   H250      1.0  0.31401  0.70862  0.25879  1.0000
  H   H251      1.0  0.37123  0.72221  0.22347  1.0000
  H   H252      1.0  0.42399  0.60373  0.24290  1.0000
  H   H253      1.0  0.36676  0.59018  0.27820  1.0000
  C   C214      1.0  0.18960  0.65454  0.16074  1.0000
  C   C215      1.0  0.18158  0.69394  0.17217  1.0000
  C   C216      1.0  0.15743  0.69870  0.19758  1.0000
  C   C217      1.0  0.14168  0.66394  0.21185  1.0000
  C   C218      1.0  0.14913  0.62469  0.20008  1.0000
  C   C219      1.0  0.17239  0.62006  0.17437  1.0000
  H   H254      1.0  0.19457  0.72080  0.16152  1.0000
  H   H255      1.0  0.15219  0.72906  0.20656  1.0000
  H   H256      1.0  0.13680  0.59766  0.21082  1.0000
  H   H257      1.0  0.17735  0.58981  0.16519  1.0000
  C   C220      1.0  0.28223  0.99852  0.08895  1.0000
  N   N9        1.0  0.21871  0.75992  0.30108  1.0000
  H   H258      1.0  0.40193  0.77997  0.30055  1.0000
  H   H259      1.0  0.22251  0.98282  0.04706  1.0000
  H   H260      1.0  0.22017  0.91699  0.11037  1.0000
  S   S73       1.0  0.28970  0.87076  0.01517  1.0000
  C   C221      1.0  0.18340  0.92394  0.30941  1.0000
  H   H261      1.0  0.19310  0.72517  0.09434  1.0000
  C   C222      1.0  0.30155  0.56176  0.20376  1.0000
  C   C223      1.0  0.48908  0.83057  0.01866  1.0000
  C   C224      1.0  0.21920  0.93851  0.32378  1.0000
  H   H262      1.0  0.20359  0.93675  0.06295  1.0000
  C   C225      1.0  0.31190  0.62731  0.17798  1.0000
  C   C226      1.0  0.50981  0.71363  0.27764  1.0000
  C   C227      1.0  0.40851  0.66780  0.32838  1.0000
  H   H263      1.0  0.42964  0.94164  0.14891  1.0000
  N   N10       1.0  0.24383  0.97289  0.09115  1.0000
  H   H264      1.0  0.25744  0.93991  0.05169  1.0000
  C   C228      1.0  0.50203  0.98636  0.19401  1.0000
  C   C229      1.0  0.23148  0.95747  0.06196  1.0000
  N   N11       1.0  0.23936  0.74287  0.06269  1.0000
  C   C230      1.0  0.22456  0.78600  0.05937  1.0000
  C   C231      1.0  0.25372  0.72865  0.03365  1.0000
  C   C232      1.0  0.20295  0.71739  0.07172  1.0000
  C   C233      1.0  0.27358  0.73829  0.08438  1.0000
  C   C234      1.0  0.28835  0.77145  0.10198  1.0000
  C   C235      1.0  0.29244  0.69928  0.08901  1.0000
  C   C236      1.0  0.32001  0.76554  0.12277  1.0000
  C   C237      1.0  0.32424  0.69378  0.10967  1.0000
  C   C238      1.0  0.17881  0.78290  0.30395  1.0000
  C   C239      1.0  0.37063  0.73145  0.32255  1.0000
  H   H265      1.0  0.22005  0.54417  0.19271  1.0000
  Fe  Fe32      1.0  0.52747  0.73820  0.13141  1.0000
  H   H266      1.0  0.28237  0.74569  0.02681  1.0000
  H   H267      1.0  0.13351  0.60474  0.29290  1.0000
  H   H268      1.0  0.04472  0.94261  0.27261  1.0000
  H   H269      1.0  0.21005  0.68388  0.07146  1.0000
  N   N12       1.0  0.07853  0.56739  0.29955  1.0000
  H   H270      1.0  0.17517  0.72207  0.05732  1.0000
  H   H271      1.0  0.27617  0.80233  0.10008  1.0000
  H   H272      1.0  0.28160  0.67230  0.07740  1.0000
  H   H273      1.0  0.46340  0.88981  0.17657  1.0000
  H   H274      1.0  0.33766  0.66346  0.11290  1.0000
  H   H275      1.0  0.21153  0.79813  0.08010  1.0000
  H   H276      1.0  0.16229  0.78592  0.28270  1.0000
  C   C240      1.0  0.09849  0.65545  0.11412  1.0000
  H   H277      1.0  0.44886  0.58440  0.13130  1.0000
  H   H278      1.0  0.03536  0.75466  0.19666  1.0000
  C   C241      1.0  0.15058  0.95059  0.30278  1.0000
  H   H279      1.0  0.46964  0.66464  0.31096  1.0000
  H   H280      1.0  0.27847  0.76876  0.28032  1.0000
  H   H281      1.0  0.05995  0.63077  0.29363  1.0000
  N   N13       1.0  0.47773  0.74414  0.28689  1.0000
  H   H282      1.0  0.19864  0.78851  0.04313  1.0000
  H   H283      1.0  0.43537  0.99513  0.15677  1.0000
  C   C242      1.0  0.07191  0.62501  0.10316  1.0000
  H   H284      1.0  0.10411  0.71145  0.13764  1.0000
  H   H285      1.0  0.11661  0.57663  0.26131  1.0000
  H   H286      1.0  0.25369  0.60851  0.19584  1.0000
  H   H287      1.0  0.11166  0.93476  0.22286  1.0000
  C   C243      1.0  0.44260  0.68431  0.31322  1.0000
  H   H288      1.0  0.12257  0.93875  0.29232  1.0000
  H   H289      1.0  0.29913  0.65617  0.17007  1.0000
  S   S74       1.0  0.21926  0.52454  0.12444  1.0000
  C   C244      1.0  0.46392  0.76637  0.26029  1.0000
  C   C245      1.0  0.28601  0.59971  0.19284  1.0000
  C   C246      1.0  0.44459  0.83222  0.01642  1.0000
  H   H290      1.0  0.22914  0.73333  0.01666  1.0000
  C   C247      1.0  0.37728  0.68022  0.02347  1.0000
  H   H291      1.0  0.44488  0.79409  0.26520  1.0000
  C   C248      1.0  0.08232  0.68776  0.13082  1.0000
  H   H292      1.0  0.25486  0.94550  0.13321  1.0000
  H   H293      1.0  0.15732  0.76712  0.31933  1.0000
  H   H294      1.0  0.25074  0.81560  0.28787  1.0000
  C   C249      1.0  0.44146  0.72510  0.30192  1.0000
  C   C250      1.0  0.15423  0.99235  0.30933  1.0000
  H   H295      1.0  0.27490  0.91611  0.10256  1.0000
  C   C251      1.0  0.51200  0.85942  0.00176  1.0000
  C   C252      1.0  0.09013  0.96174  0.22386  1.0000
  C   C253      1.0  0.23943  0.51871  0.20151  1.0000
  H   H296      1.0  0.52640  0.58656  0.13084  1.0000
  H   H297      1.0  0.33108  0.79134  0.13576  1.0000
  C   C254      1.0  0.40590  0.87767  0.33078  1.0000
  C   C255      1.0  0.45257  0.96538  0.15653  1.0000
  C   C256      1.0  0.51031  0.55707  0.13029  1.0000
  C   C257      1.0  0.35626  0.64344  0.03054  1.0000
  N   N14       1.0  0.51137  0.79968  0.03673  1.0000
  H   H298      1.0  0.23412  0.78385  0.25849  1.0000
  C   C258      1.0  0.34436  0.55260  0.19797  1.0000
  Fe  Fe33      1.0  0.52691  0.79872  0.18208  1.0000
  S   S75       1.0  0.29787  0.01245  0.24846  1.0000
  C   C259      1.0  0.25508  0.55666  0.24535  1.0000
  H   H299      1.0  0.36217  0.72230  0.14288  1.0000
  H   H300      1.0  0.09607  0.97963  0.20359  1.0000
  H   H301      1.0  0.46076  0.75626  0.04348  1.0000
  H   H302      1.0  0.18083  0.89165  0.30374  1.0000
  H   H303      1.0  0.19264  0.72365  0.26566  1.0000
  C   C260      1.0  0.40455  0.74831  0.30739  1.0000
  H   H304      1.0  0.49113  0.77799  0.24749  1.0000
  C   C261      1.0  0.48782  0.91252  0.18340  1.0000
  H   H305      1.0  0.23356  0.58162  0.23829  1.0000
  C   C262      1.0  0.42458  0.86202  0.99933  1.0000
  H   H306      1.0  0.03738  0.94116  0.17973  1.0000
  C   C263      1.0  0.31964  0.98992  0.10478  1.0000
  H   H307      1.0  0.41229  0.92986  0.20182  1.0000
  C   C264      1.0  0.33789  0.72680  0.12661  1.0000
  H   H308      1.0  0.52556  0.78935  0.29663  1.0000
  H   H309      1.0  0.37432  0.63971  0.16253  1.0000
  H   H310      1.0  0.44517  0.74571  0.24587  1.0000
  H   H311      1.0  0.26132  0.69524  0.03333  1.0000
  H   H312      1.0  0.31266  0.83174  0.31539  1.0000
  C   C265      1.0  0.35396  0.61790  0.17340  1.0000
  H   H313      1.0  0.25018  0.80679  0.05199  1.0000
  H   H314      1.0  0.28004  0.57113  0.25894  1.0000
  C   C266      1.0  0.08408  0.56799  0.33157  1.0000
  H   H315      1.0  0.17959  0.97964  0.10508  1.0000
  H   H316      1.0  0.49549  0.68908  0.26377  1.0000
  H   H317      1.0  0.22495  0.57342  0.99982  1.0000
  H   H318      1.0  0.12940  0.01348  0.30324  1.0000
  C   C267      1.0  0.04941  0.73161  0.18159  1.0000
  C   C268      1.0  0.46658  0.55594  0.13052  1.0000
  H   H319      1.0  0.06442  0.89817  0.25350  1.0000
  C   C269      1.0  0.04092  0.92352  0.25263  1.0000
  C   C270      1.0  0.11959  0.57502  0.28542  1.0000
  C   C271      1.0  0.24671  0.78296  0.28112  1.0000
  H   H320      1.0  0.08452  0.60027  0.08994  1.0000
  H   H321      1.0  0.32207  0.96464  0.11993  1.0000
  C   C272      1.0  0.20868  0.71974  0.28709  1.0000
  S   S76       1.0  0.09666  0.84991  0.32799  1.0000
  C   C273      1.0  0.24898  0.93634  0.11022  1.0000
  C   C274      1.0  0.35893  0.60937  0.01203  1.0000
  H   H322      1.0  0.50095  0.75384  0.07009  1.0000
  H   H323      1.0  0.05398  0.77018  0.12963  1.0000
  H   H324      1.0  0.08070  0.74430  0.17587  1.0000
  C   C275      1.0  0.06266  0.52643  0.29015  1.0000
  H   H325      1.0  0.44834  0.94783  0.22937  1.0000
  C   C276      1.0  0.03897  0.68987  0.13781  1.0000
  C   C277      1.0  0.48310  0.77575  0.05611  1.0000
  C   C278      1.0  0.40225  0.91182  0.31214  1.0000
  H   H326      1.0  0.50050  0.90173  0.20470  1.0000
  Fe  Fe34      1.0  0.30170  0.01023  0.19985  1.0000
  C   C279      1.0  0.19020  0.00734  0.32335  1.0000
  H   H327      1.0  0.40292  0.57356  0.17984  1.0000
  H   H328      1.0  0.51315  0.91062  0.16683  1.0000
  H   H329      1.0  0.04504  0.59778  0.26457  1.0000
  C   C280      1.0  0.29421  0.00341  0.32480  1.0000
  H   H330      1.0  0.23757  0.70170  0.28265  1.0000
  H   H331      1.0  0.30069  0.97513  0.31183  1.0000
  S   S77       1.0  0.52619  0.80723  0.13398  1.0000
  S   S78       1.0  0.07636  0.78938  0.01141  1.0000
  H   H332      1.0  0.42758  0.93401  0.31100  1.0000
  H   H333      1.0  0.47768  0.96774  0.13981  1.0000
  C   C281      1.0  0.49806  0.77399  0.30689  1.0000
  H   H334      1.0  0.05440  0.70252  0.19399  1.0000
  H   H335      1.0  0.18719  0.70083  0.30071  1.0000
  C   C282      1.0  0.20893  0.99808  0.10283  1.0000
  H   H336      1.0  0.35880  0.52405  0.20456  1.0000
  C   C283      1.0  0.23919  0.75604  0.32999  1.0000
  H   H337      1.0  0.05615  0.52555  0.26633  1.0000
  Fe  Fe35      1.0  0.05087  0.72508  0.00651  1.0000
  H   H338      1.0  0.23620  0.53608  0.25962  1.0000
  H   H339      1.0  0.38354  0.00749  0.11402  1.0000
  N   N15       1.0  0.27375  0.53392  0.22052  1.0000
  C   C284      1.0  0.03581  0.92284  0.20020  1.0000
  S   S79       1.0  0.28773  0.99521  0.00021  1.0000
  H   H340      1.0  0.24369  0.91643  0.32815  1.0000
  H   H341      1.0  0.34274  0.74967  0.32640  1.0000
  H   H342      1.0  0.05839  0.89685  0.19804  1.0000
  C   C285      1.0  0.22324  0.98052  0.33196  1.0000
  C   C286      1.0  0.02897  0.62705  0.10856  1.0000
  H   H343      1.0  0.52819  0.84465  0.06914  1.0000
  C   C287      1.0  0.35551  0.01442  0.10157  1.0000
  H   H344      1.0  0.21688  0.01071  0.12471  1.0000
  C   C288      1.0  0.37312  0.84917  0.33214  1.0000
  S   S80       1.0  0.21643  0.57050  0.33214  1.0000
  H   H345      1.0  0.24169  0.68844  0.33243  1.0000
  S   S81       1.0  0.30286  0.57525  0.37018  1.0000
  H   H346      1.0  0.05465  0.90241  0.55759  1.0000
  Fe  Fe36      1.0  0.23590  0.55743  0.37808  1.0000
  S   S82       1.0  0.19918  0.56980  0.41948  1.0000
  H   H347      1.0  0.51313  0.77852  0.49950  1.0000
  C   C289      1.0  0.32029  0.56680  0.45265  1.0000
  Fe  Fe37      1.0  0.43866  0.75624  0.42947  1.0000
  S   S83       1.0  0.44217  0.75158  0.38053  1.0000
  S   S84       1.0  0.37885  0.73897  0.45376  1.0000
  C   C290      1.0  0.48495  0.92008  0.46732  1.0000
  Fe  Fe38      1.0  0.46482  0.81713  0.38165  1.0000
  H   H348      1.0  0.44763  0.92266  0.53666  1.0000
  H   H349      1.0  0.41383  0.91233  0.41185  1.0000
  S   S85       1.0  0.45635  0.82340  0.42990  1.0000
  H   H350      1.0  0.26441  0.71069  0.63941  1.0000
  Fe  Fe39      1.0  0.29277  0.96825  0.50607  1.0000
  S   S86       1.0  0.31606  0.95016  0.46191  1.0000
  Fe  Fe40      1.0  0.21866  0.01692  0.48151  1.0000
  Fe  Fe41      1.0  0.24818  0.93828  0.45065  1.0000
  S   S87       1.0  0.23105  0.87713  0.42918  1.0000
  S   S88       1.0  0.22619  0.95129  0.49602  1.0000
  S   S89       1.0  0.13601  0.74475  0.46266  1.0000
  H   H351      1.0  0.30460  0.65085  0.52361  1.0000
  C   C291      1.0  0.19060  0.86982  0.40307  1.0000
  C   C292      1.0  0.17923  0.82956  0.39480  1.0000
  C   C293      1.0  0.14920  0.82261  0.37270  1.0000
  C   C294      1.0  0.13020  0.85601  0.35870  1.0000
  C   C295      1.0  0.13977  0.89612  0.36825  1.0000
  C   C296      1.0  0.17012  0.90310  0.39006  1.0000
  H   H352      1.0  0.19393  0.80355  0.40543  1.0000
  H   H353      1.0  0.12419  0.92215  0.35833  1.0000
  H   H354      1.0  0.17770  0.93423  0.39666  1.0000
  H   H355      1.0  0.40011  0.97379  0.51429  1.0000
  C   C297      1.0  0.27016  0.81401  0.63099  1.0000
  C   C298      1.0  0.18172  0.61872  0.43094  1.0000
  C   C299      1.0  0.15712  0.62155  0.45619  1.0000
  C   C300      1.0  0.14237  0.65993  0.46601  1.0000
  C   C301      1.0  0.15276  0.69579  0.45083  1.0000
  C   C302      1.0  0.17770  0.69300  0.42573  1.0000
  C   C303      1.0  0.19189  0.65453  0.41567  1.0000
  H   H356      1.0  0.14925  0.59389  0.46815  1.0000
  H   H357      1.0  0.12332  0.66183  0.48541  1.0000
  H   H358      1.0  0.18593  0.72070  0.41393  1.0000
  H   H359      1.0  0.21067  0.65251  0.39617  1.0000
  C   C304      1.0  0.40663  0.63921  0.50389  1.0000
  C   C305      1.0  0.41032  0.67229  0.48431  1.0000
  C   C306      1.0  0.37611  0.69821  0.47925  1.0000
  H   H360      1.0  0.43328  0.61927  0.50762  1.0000
  H   H361      1.0  0.43942  0.67730  0.47279  1.0000
  C   C307      1.0  0.08093  0.84291  0.43108  1.0000
  Fe  Fe42      1.0  0.31133  0.56299  0.56794  1.0000
  S   S90       1.0  0.31900  0.55947  0.61638  1.0000
  S   S91       1.0  0.36659  0.58970  0.54309  1.0000
  H   H362      1.0  0.42088  0.95031  0.38401  1.0000
  Fe  Fe43      1.0  0.25062  0.57597  0.61860  1.0000
  C   C308      1.0  0.45811  0.94927  0.45364  1.0000
  S   S92       1.0  0.24422  0.58377  0.56996  1.0000
  H   H363      1.0  0.50271  0.53192  0.63862  1.0000
  Fe  Fe44      1.0  0.47034  0.78767  0.62195  1.0000
  S   S93       1.0  0.44102  0.80289  0.57821  1.0000
  C   C309      1.0  0.37644  0.59946  0.42414  1.0000
  S   S94       1.0  0.46232  0.72043  0.63117  1.0000
  H   H364      1.0  0.31138  0.71028  0.48984  1.0000
  S   S95       1.0  0.32126  0.95345  0.54995  1.0000
  Fe  Fe45      1.0  0.08870  0.81389  0.55324  1.0000
  S   S96       1.0  0.08285  0.82475  0.50542  1.0000
  S   S97       1.0  0.13220  0.86371  0.57050  1.0000
  Fe  Fe46      1.0  0.08967  0.75687  0.49920  1.0000
  S   S98       1.0  0.09966  0.74610  0.54699  1.0000
  C   C310      1.0  0.06549  0.60140  0.56910  1.0000
  C   C311      1.0  0.19338  0.91083  0.64049  1.0000
  C   C312      1.0  0.17629  0.90477  0.61255  1.0000
  C   C313      1.0  0.15265  0.86936  0.60605  1.0000
  C   C314      1.0  0.14647  0.83966  0.62765  1.0000
  H   H365      1.0  0.10365  0.56936  0.41591  1.0000
  H   H366      1.0  0.21182  0.93813  0.64512  1.0000
  H   H367      1.0  0.18161  0.92770  0.59585  1.0000
  H   H368      1.0  0.12851  0.81217  0.62277  1.0000
  Fe  Fe47      1.0  0.52271  0.80131  0.43345  1.0000
  C   C315      1.0  0.40806  0.84511  0.57075  1.0000
  C   C316      1.0  0.39965  0.87508  0.59173  1.0000
  C   C317      1.0  0.37288  0.90811  0.58496  1.0000
  C   C318      1.0  0.35439  0.91134  0.55726  1.0000
  C   C319      1.0  0.36261  0.88120  0.53630  1.0000
  C   C320      1.0  0.38939  0.84815  0.54306  1.0000
  H   H369      1.0  0.41376  0.87290  0.61314  1.0000
  H   H370      1.0  0.36651  0.93137  0.60127  1.0000
  H   H371      1.0  0.34880  0.88363  0.51484  1.0000
  H   H372      1.0  0.39587  0.82502  0.52670  1.0000
  H   H373      1.0  0.36563  0.65218  0.62160  1.0000
  H   H374      1.0  0.28694  0.69147  0.56779  1.0000
  C   C321      1.0  0.36865  0.63135  0.51831  1.0000
  C   C322      1.0  0.33816  0.69066  0.49393  1.0000
  C   C323      1.0  0.33424  0.65704  0.51312  1.0000
  H   H375      1.0  0.34945  0.78503  0.58724  1.0000
  C   C324      1.0  0.42767  0.96866  0.47153  1.0000
  C   C325      1.0  0.09771  0.56869  0.39265  1.0000
  H   H376      1.0  0.50148  0.88779  0.50668  1.0000
  H   H377      1.0  0.46800  0.01137  0.39408  1.0000
  C   C326      1.0  0.30376  0.81651  0.61182  1.0000
  H   H378      1.0  0.07136  0.63402  0.57246  1.0000
  H   H379      1.0  0.47233  0.72262  0.56290  1.0000
  H   H380      1.0  0.47234  0.68406  0.53530  1.0000
  H   H381      1.0  0.27404  0.66649  0.60149  1.0000
  H   H382      1.0  0.10078  0.81703  0.43618  1.0000
  H   H383      1.0  0.29708  0.66710  0.43498  1.0000
  C   C327      1.0  0.27126  0.78910  0.37290  1.0000
  H   H384      1.0  0.32263  0.66985  0.64283  1.0000
  H   H385      1.0  0.06408  0.75383  0.65047  1.0000
  C   C328      1.0  0.07838  0.53874  0.54251  1.0000
  C   C329      1.0  0.25610  0.77569  0.64049  1.0000
  H   H386      1.0  0.35365  0.53222  0.49935  1.0000
  Fe  Fe48      1.0  0.30282  0.01605  0.44983  1.0000
  H   H387      1.0  0.27768  0.68519  0.37881  1.0000
  H   H388      1.0  0.05682  0.62117  0.39345  1.0000
  C   C330      1.0  0.31054  0.74109  0.61160  1.0000
  C   C331      1.0  0.16357  0.84573  0.65566  1.0000
  H   H389      1.0  0.10977  0.59614  0.53405  1.0000
  H   H390      1.0  0.10334  0.00109  0.53966  1.0000
  H   H391      1.0  0.50884  0.90343  0.45561  1.0000
  H   H392      1.0  0.37548  0.82297  0.34660  1.0000
  H   H393      1.0  0.12753  0.88436  0.44853  1.0000
  H   H394      1.0  0.29327  0.93842  0.35742  1.0000
  S   S99       1.0  0.50483  0.73404  0.43694  1.0000
  H   H395      1.0  0.10591  0.95538  0.56090  1.0000
  S   S100      1.0  0.23968  0.62570  0.65273  1.0000
  H   H396      1.0  0.49138  0.90328  0.40771  1.0000
  C   C332      1.0  0.31448  0.63847  0.43583  1.0000
  H   H397      1.0  0.52514  0.77369  0.56605  1.0000
  H   H398      1.0  0.47537  0.73741  0.49712  1.0000
  N   N16       1.0  0.23890  0.81854  0.51726  1.0000
  C   C333      1.0  0.27517  0.81356  0.49727  1.0000
  C   C334      1.0  0.20241  0.83344  0.50026  1.0000
  C   C335      1.0  0.25049  0.85098  0.53877  1.0000
  C   C336      1.0  0.22748  0.77875  0.53093  1.0000
  C   C337      1.0  0.22259  0.74268  0.51369  1.0000
  C   C338      1.0  0.21754  0.77519  0.56101  1.0000
  C   C339      1.0  0.21002  0.70521  0.52590  1.0000
  C   C340      1.0  0.20472  0.73760  0.57298  1.0000
  C   C341      1.0  0.20107  0.70267  0.55549  1.0000
  H   H399      1.0  0.28590  0.84371  0.48835  1.0000
  H   H400      1.0  0.30235  0.79906  0.50857  1.0000
  H   H401      1.0  0.26744  0.79483  0.47771  1.0000
  H   H402      1.0  0.19327  0.81153  0.48266  1.0000
  H   H403      1.0  0.20912  0.86337  0.48955  1.0000
  H   H404      1.0  0.17458  0.83779  0.51450  1.0000
  H   H405      1.0  0.27614  0.84047  0.55344  1.0000
  H   H406      1.0  0.26198  0.87960  0.52807  1.0000
  H   H407      1.0  0.22317  0.86088  0.55212  1.0000
  H   H408      1.0  0.22674  0.74347  0.49034  1.0000
  H   H409      1.0  0.21825  0.80132  0.57559  1.0000
  H   H410      1.0  0.20594  0.67838  0.51207  1.0000
  H   H411      1.0  0.19650  0.73581  0.59583  1.0000
  H   H412      1.0  0.19039  0.67381  0.56479  1.0000
  H   H413      1.0  0.09495  0.52248  0.52543  1.0000
  H   H414      1.0  0.15367  0.60555  0.63520  1.0000
  C   C342      1.0  0.08366  0.97855  0.55175  1.0000
  H   H415      1.0  0.46864  0.57604  0.36065  1.0000
  H   H416      1.0  0.49567  0.94512  0.38319  1.0000
  C   C343      1.0  0.09684  0.88178  0.43835  1.0000
  C   C344      1.0  0.36671  0.70922  0.58169  1.0000
  H   H417      1.0  0.25518  0.84197  0.63849  1.0000
  H   H418      1.0  0.27834  0.56500  0.50397  1.0000
  H   H419      1.0  0.25234  0.95295  0.38223  1.0000
  C   C345      1.0  0.27612  0.73971  0.63118  1.0000
  N   N17       1.0  0.46003  0.95859  0.42209  1.0000
  C   C346      1.0  0.34791  0.68034  0.62791  1.0000
  C   C347      1.0  0.15264  0.62686  0.65331  1.0000
  H   H420      1.0  0.36734  0.66309  0.41260  1.0000
  C   C348      1.0  0.05242  0.87842  0.65174  1.0000
  C   C349      1.0  0.48861  0.55142  0.36850  1.0000
  C   C350      1.0  0.49488  0.93737  0.40681  1.0000
  C   C351      1.0  0.45086  0.93035  0.51379  1.0000
  C   C352      1.0  0.08685  0.58027  0.54735  1.0000
  C   C353      1.0  0.49457  0.75613  0.51246  1.0000
  S   S101      1.0  0.45203  0.87158  0.35175  1.0000
  C   C354      1.0  0.30041  0.67567  0.58712  1.0000
  C   C355      1.0  0.29770  0.60444  0.45040  1.0000
  C   C356      1.0  0.11724  0.53920  0.37537  1.0000
  H   H421      1.0  0.40563  0.99067  0.46263  1.0000
  C   C357      1.0  0.06456  0.59769  0.34986  1.0000
  C   C358      1.0  0.05060  0.76239  0.41693  1.0000
  C   C359      1.0  0.46596  0.00348  0.41762  1.0000
  H   H422      1.0  0.31521  0.64656  0.57951  1.0000
  H   H423      1.0  0.05575  0.76075  0.44082  1.0000
  C   C360      1.0  0.28118  0.75078  0.38461  1.0000
  H   H424      1.0  0.26692  0.60840  0.45966  1.0000
  H   H425      1.0  0.24319  0.82231  0.33811  1.0000
  H   H426      1.0  0.03139  0.93622  0.63434  1.0000
  H   H427      1.0  0.31465  0.84650  0.60463  1.0000
  H   H428      1.0  0.04441  0.75595  0.61366  1.0000
  H   H429      1.0  0.38175  0.67962  0.57519  1.0000
  H   H430      1.0  0.02947  0.71509  0.63783  1.0000
  H   H431      1.0  0.29734  0.74884  0.40542  1.0000
  H   H432      1.0  0.42035  0.57498  0.66468  1.0000
  C   C361      1.0  0.32362  0.78072  0.60203  1.0000
  H   H433      1.0  0.30249  0.97843  0.38276  1.0000
  S   S102      1.0  0.23615  0.00276  0.43516  1.0000
  Fe  Fe49      1.0  0.50983  0.73374  0.38809  1.0000
  C   C362      1.0  0.48111  0.91078  0.49691  1.0000
  C   C363      1.0  0.04096  0.83833  0.41755  1.0000
  C   C364      1.0  0.42012  0.94569  0.40803  1.0000
  H   H434      1.0  0.35615  0.72430  0.56117  1.0000
  C   C365      1.0  0.27790  0.96512  0.36818  1.0000
  Fe  Fe50      1.0  0.02873  0.74106  0.54828  1.0000
  H   H435      1.0  0.40686  0.59759  0.41379  1.0000
  N   N18       1.0  0.26153  0.99582  0.34691  1.0000
  H   H436      1.0  0.52109  0.99069  0.50932  1.0000
  C   C366      1.0  0.25041  0.79181  0.34611  1.0000
  H   H437      1.0  0.14122  0.79147  0.36646  1.0000
  C   C367      1.0  0.27005  0.71503  0.36963  1.0000
  H   H438      1.0  0.09120  0.96207  0.49493  1.0000
  C   C368      1.0  0.42422  0.95927  0.50114  1.0000
  H   H439      1.0  0.39273  0.96330  0.41634  1.0000
  C   C369      1.0  0.11058  0.53870  0.34531  1.0000
  C   C370      1.0  0.24927  0.71739  0.34278  1.0000
  H   H440      1.0  0.39171  0.72855  0.59171  1.0000
  H   H441      1.0  0.27922  0.81692  0.38489  1.0000
  C   C371      1.0  0.07402  0.91717  0.43199  1.0000
  C   C372      1.0  0.35957  0.56497  0.43816  1.0000
  N   N19       1.0  0.52144  0.72958  0.53101  1.0000
  C   C373      1.0  0.07148  0.59787  0.37994  1.0000
  H   H442      1.0  0.36942  0.70045  0.64077  1.0000
  H   H443      1.0  0.08176  0.76451  0.40609  1.0000
  H   H444      1.0  0.37736  0.53674  0.43717  1.0000
  N   N20       1.0  0.33126  0.70253  0.60213  1.0000
  C   C374      1.0  0.35403  0.63622  0.42314  1.0000
  H   H445      1.0  0.09503  0.91536  0.51488  1.0000
  H   H446      1.0  0.22960  0.77388  0.65519  1.0000
  H   H447      1.0  0.04915  0.92479  0.49285  1.0000
  C   C375      1.0  0.49325  0.70356  0.54902  1.0000
  H   H448      1.0  0.47237  0.77477  0.52559  1.0000
  C   C376      1.0  0.04394  0.83638  0.65482  1.0000
  H   H449      1.0  0.04632  0.80177  0.36565  1.0000
  C   C377      1.0  0.11373  0.64025  0.66424  1.0000
  C   C378      1.0  0.07249  0.93955  0.50772  1.0000
  H   H450      1.0  0.08687  0.94722  0.43723  1.0000
  H   H451      1.0  0.51147  0.68354  0.56413  1.0000
  H   H452      1.0  0.34629  0.67812  0.34456  1.0000
  H   H453      1.0  0.06904  0.99529  0.57025  1.0000
  N   N21       1.0  0.05129  0.95896  0.53293  1.0000
  H   H454      1.0  0.32427  0.01361  0.33500  1.0000
  H   H455      1.0  0.52594  0.94605  0.41616  1.0000
  H   H456      1.0  0.08040  0.89158  0.66159  1.0000
  C   C379      1.0  0.26854  0.54062  0.48827  1.0000
  H   H457      1.0  0.44132  0.52558  0.39622  1.0000
  C   C380      1.0  0.47340  0.52315  0.38864  1.0000
  H   H458      1.0  0.08495  0.62909  0.65441  1.0000
  H   H459      1.0  0.03658  0.73234  0.41030  1.0000
  H   H460      1.0  0.49517  0.01446  0.42848  1.0000
  C   C381      1.0  0.03127  0.92549  0.55002  1.0000
  C   C382      1.0  0.03469  0.91384  0.41888  1.0000
  C   C383      1.0  0.03595  0.58101  0.58636  1.0000
  H   H461      1.0  0.23987  0.55091  0.47643  1.0000
  C   C384      1.0  0.18706  0.88135  0.66215  1.0000
  C   C385      1.0  0.37269  0.69130  0.33304  1.0000
  H   H462      1.0  0.40980  0.63649  0.33647  1.0000
  C   C386      1.0  0.03592  0.74884  0.63658  1.0000
  H   H463      1.0  0.04412  0.62143  0.34153  1.0000
  N   N22       1.0  0.30332  0.53025  0.46803  1.0000
  C   C387      1.0  0.18997  0.64118  0.66583  1.0000
  Fe  Fe51      1.0  0.23680  0.53616  0.82675  1.0000
  Fe  Fe52      1.0  0.32236  0.57797  0.83024  1.0000
  S   S103      1.0  0.32217  0.57567  0.87898  1.0000
  S   S104      1.0  0.38345  0.60179  0.81149  1.0000
  C   C388      1.0  0.28644  0.97684  0.82419  1.0000
  Fe  Fe53      1.0  0.25498  0.59597  0.87637  1.0000
  S   S105      1.0  0.23957  0.64817  0.90781  1.0000
  S   S106      1.0  0.25682  0.60310  0.82759  1.0000
  H   H464      1.0  0.10901  0.72572  0.91085  1.0000
  C   C389      1.0  0.13197  0.94608  0.74736  1.0000
  C   C390      1.0  0.32720  0.73191  0.80737  1.0000
  Fe  Fe54      1.0  0.45275  0.73851  0.67769  1.0000
  S   S107      1.0  0.39306  0.71818  0.70072  1.0000
  C   C391      1.0  0.27422  0.76042  0.77396  1.0000
  N   N23       1.0  0.26388  0.78588  0.74815  1.0000
  Fe  Fe55      1.0  0.46511  0.73827  0.94857  1.0000
  S   S108      1.0  0.45052  0.71445  0.90405  1.0000
  H   H465      1.0  0.39059  0.86281  0.99810  1.0000
  H   H466      1.0  0.48953  0.69894  0.80984  1.0000
  Fe  Fe56      1.0  0.45643  0.78007  0.88941  1.0000
  S   S109      1.0  0.39827  0.79521  0.86307  1.0000
  C   C392      1.0  0.29611  0.71151  0.82296  1.0000
  S   S110      1.0  0.46736  0.80434  0.93457  1.0000
  C   C393      1.0  0.22973  0.81917  0.95625  1.0000
  Fe  Fe57      1.0  0.32132  0.96172  0.75206  1.0000
  S   S111      1.0  0.31706  0.95486  0.70353  1.0000
  S   S112      1.0  0.38132  0.94492  0.77569  1.0000
  C   C394      1.0  0.20745  0.78764  0.91126  1.0000
  Fe  Fe58      1.0  0.24803  0.94302  0.71064  1.0000
  S   S113      1.0  0.25383  0.94499  0.75951  1.0000
  N   N24       1.0  0.30319  0.99241  0.85220  1.0000
  C   C395      1.0  0.37448  0.89676  0.89503  1.0000
  S   S114      1.0  0.27667  0.93289  0.94365  1.0000
  C   C396      1.0  0.06776  0.96659  0.77133  1.0000
  Fe  Fe59      1.0  0.20937  0.95298  0.94140  1.0000
  S   S115      1.0  0.15470  0.93283  0.91263  1.0000
  H   H467      1.0  0.09183  0.61666  0.93039  1.0000
  C   C397      1.0  0.09024  0.75436  0.91357  1.0000
  Fe  Fe60      1.0  0.08274  0.77925  0.79023  1.0000
  S   S116      1.0  0.07444  0.78897  0.74218  1.0000
  S   S117      1.0  0.14415  0.79995  0.81099  1.0000
  Fe  Fe61      1.0  0.05137  0.72388  0.74059  1.0000
  S   S118      1.0  0.06202  0.68340  0.70088  1.0000
  S   S119      1.0  0.06494  0.71197  0.78801  1.0000
  C   C398      1.0  0.15274  0.89543  0.88467  1.0000
  C   C399      1.0  0.11364  0.88543  0.87228  1.0000
  C   C400      1.0  0.11049  0.85612  0.84979  1.0000
  C   C401      1.0  0.14660  0.83687  0.83927  1.0000
  C   C402      1.0  0.18576  0.84699  0.85154  1.0000
  C   C403      1.0  0.18877  0.87585  0.87439  1.0000
  H   H468      1.0  0.08557  0.90043  0.88017  1.0000
  H   H469      1.0  0.08013  0.84867  0.84060  1.0000
  H   H470      1.0  0.21383  0.83194  0.84370  1.0000
  H   H471      1.0  0.21874  0.88254  0.88436  1.0000
  C   C404      1.0  0.39396  0.83753  0.83940  1.0000
  C   C405      1.0  0.42779  0.86398  0.83446  1.0000
  C   C406      1.0  0.42340  0.89695  0.81490  1.0000
  C   C407      1.0  0.38514  0.90383  0.80048  1.0000
  C   C408      1.0  0.35111  0.87777  0.80582  1.0000
  C   C409      1.0  0.35566  0.84439  0.82500  1.0000
  H   H472      1.0  0.45730  0.85903  0.84564  1.0000
  H   H473      1.0  0.44971  0.91732  0.81095  1.0000
  H   H474      1.0  0.32139  0.88352  0.79525  1.0000
  H   H475      1.0  0.32926  0.82419  0.82902  1.0000
  C   C410      1.0  0.19150  0.65429  0.92649  1.0000
  C   C411      1.0  0.18791  0.68577  0.94741  1.0000
  C   C412      1.0  0.14987  0.69239  0.96219  1.0000
  C   C413      1.0  0.11500  0.66761  0.95604  1.0000
  C   C414      1.0  0.11872  0.63587  0.93535  1.0000
  C   C415      1.0  0.15683  0.62912  0.92067  1.0000
  H   H476      1.0  0.21450  0.70541  0.95209  1.0000
  N   N25       1.0  0.45895  0.55021  0.89870  1.0000
  H   H477      1.0  0.24613  0.97738  0.87561  1.0000
  H   H478      1.0  0.15919  0.60481  0.90461  1.0000
  C   C416      1.0  0.38570  0.63338  0.78034  1.0000
  C   C417      1.0  0.34932  0.64907  0.76751  1.0000
  C   C418      1.0  0.35227  0.67500  0.74314  1.0000
  C   C419      1.0  0.39147  0.68527  0.73129  1.0000
  C   C420      1.0  0.42791  0.66921  0.74391  1.0000
  C   C421      1.0  0.42498  0.64355  0.76849  1.0000
  H   H479      1.0  0.31899  0.64164  0.77660  1.0000
  H   H480      1.0  0.32394  0.68682  0.73333  1.0000
  H   H481      1.0  0.45830  0.67631  0.73474  1.0000
  H   H482      1.0  0.45325  0.63119  0.77824  1.0000
  H   H483      1.0  0.42208  0.59189  0.87227  1.0000
  H   H484      1.0  0.23800  0.53970  0.68124  1.0000
  H   H485      1.0  0.20530  0.75602  0.73698  1.0000
  C   C422      1.0  0.11177  0.66765  0.68794  1.0000
  C   C423      1.0  0.14915  0.68205  0.70042  1.0000
  H   H486      1.0  0.31616  0.72838  0.97444  1.0000
  H   H487      1.0  0.43963  0.94968  0.72121  1.0000
  H   H488      1.0  0.14794  0.70307  0.71867  1.0000
  H   H489      1.0  0.21154  0.80613  0.72169  1.0000
  C   C424      1.0  0.39120  0.56783  0.67566  1.0000
  H   H490      1.0  0.47462  0.58569  0.86020  1.0000
  H   H491      1.0  0.18413  0.78364  0.89427  1.0000
  C   C425      1.0  0.36574  0.59949  0.68587  1.0000
  H   H492      1.0  0.42545  0.51997  0.93355  1.0000
  C   C426      1.0  0.40443  0.64870  0.97964  1.0000
  H   H493      1.0  0.17090  0.83203  0.93508  1.0000
  C   C427      1.0  0.33277  0.89016  0.88715  1.0000
  H   H494      1.0  0.22520  0.56484  0.74531  1.0000
  H   H495      1.0  0.30929  0.61653  0.70668  1.0000
  H   H496      1.0  0.42283  0.65069  0.95999  1.0000
  H   H497      1.0  0.27449  0.59089  0.74875  1.0000
  C   C428      1.0  0.26034  0.54179  0.95274  1.0000
  C   C429      1.0  0.18809  0.66900  0.68929  1.0000
  H   H498      1.0  0.26979  0.84930  0.73463  1.0000
  C   C430      1.0  0.46032  0.97308  0.71235  1.0000
  H   H499      1.0  0.06328  0.82348  0.93154  1.0000
  H   H500      1.0  0.41105  0.01756  0.70722  1.0000
  H   H501      1.0  0.48263  0.83774  0.78980  1.0000
  H   H502      1.0  0.26370  0.84186  0.77313  1.0000
  C   C431      1.0  0.26759  0.79750  0.95499  1.0000
  S   S120      1.0  0.45606  0.80629  0.66795  1.0000
  C   C432      1.0  0.24531  0.76614  0.90964  1.0000
  H   H503      1.0  0.42639  0.93897  0.89427  1.0000
  S   S121      1.0  0.23054  0.53105  0.87531  1.0000
  H   H504      1.0  0.08215  0.77033  0.85558  1.0000
  H   H505      1.0  0.11647  0.87161  0.76946  1.0000
  H   H506      1.0  0.24951  0.56385  0.93579  1.0000
  N   N26       1.0  0.05147  0.75351  0.89554  1.0000
  H   H507      1.0  0.06570  0.81839  0.66762  1.0000
  H   H508      1.0  0.11084  0.78056  0.90733  1.0000
  Fe  Fe62      1.0  0.52003  0.71109  0.89701  1.0000
  C   C433      1.0  0.50563  0.81200  0.78923  1.0000
  H   H509      1.0  0.39219  0.87257  0.90566  1.0000
  S   S122      1.0  0.42577  0.72998  0.98920  1.0000
  H   H510      1.0  0.39643  0.55939  0.91565  1.0000
  Fe  Fe63      1.0  0.21932  0.01109  0.99316  1.0000
  S   S123      1.0  0.52143  0.73166  0.68839  1.0000
  H   H511      1.0  0.45206  0.60758  0.92193  1.0000
  C   C434      1.0  0.31797  0.71607  0.95189  1.0000
  H   H512      1.0  0.24871  0.74534  0.89142  1.0000
  H   H513      1.0  0.14729  0.71708  0.97792  1.0000
  H   H514      1.0  0.35979  0.72846  0.81382  1.0000
  Fe  Fe64      1.0  0.26826  0.92953  0.99220  1.0000
  H   H515      1.0  0.19194  0.58217  0.96927  1.0000
  H   H516      1.0  0.31799  0.86081  0.89173  1.0000
  N   N27       1.0  0.31776  0.74931  0.92987  1.0000
  H   H517      1.0  0.37537  0.63122  0.68288  1.0000
  H   H518      1.0  0.29118  0.69448  0.94858  1.0000
  C   C435      1.0  0.27824  0.82880  0.75315  1.0000
  H   H519      1.0  0.15141  0.91661  0.80161  1.0000
  H   H520      1.0  0.43240  0.91329  0.97023  1.0000
  C   C436      1.0  0.03442  0.96049  0.98123  1.0000
  H   H521      1.0  0.11514  0.94516  0.72607  1.0000
  S   S124      1.0  0.06548  0.67691  0.97198  1.0000
  C   C437      1.0  0.32788  0.59054  0.69988  1.0000
  C   C438      1.0  0.44784  0.56895  0.87024  1.0000
  H   H522      1.0  0.06796  0.88409  0.78668  1.0000
  N   N28       1.0  0.22428  0.52373  0.96862  1.0000
  H   H523      1.0  0.26921  0.00126  0.81212  1.0000
  H   H524      1.0  0.27507  0.73741  0.71713  1.0000
  H   H525      1.0  0.45813  0.75287  0.73791  1.0000
  H   H526      1.0  0.44446  0.80461  0.74786  1.0000
  H   H527      1.0  0.35358  0.78914  0.95902  1.0000
  N   N29       1.0  0.48623  0.77359  0.77794  1.0000
  C   C439      1.0  0.35314  0.77790  0.93617  1.0000
  H   H528      1.0  0.28935  0.80173  0.97284  1.0000
  H   H529      1.0  0.14064  0.54089  0.95197  1.0000
  H   H530      1.0  0.03713  0.73751  0.85074  1.0000
  H   H531      1.0  0.35251  0.80492  0.92132  1.0000
  S   S125      1.0  0.23000  0.00984  0.70649  1.0000
  N   N30       1.0  0.27561  0.53831  0.72005  1.0000
  C   C440      1.0  0.08937  0.89326  0.76871  1.0000
  C   C441      1.0  0.47560  0.58289  0.91822  1.0000
  C   C442      1.0  0.31485  0.54918  0.70461  1.0000
  H   H532      1.0  0.07315  0.88773  0.74751  1.0000
  H   H533      1.0  0.15870  0.82267  0.67230  1.0000
  C   C443      1.0  0.21822  0.78730  0.74141  1.0000
  H   H534      1.0  0.30459  0.69190  0.84113  1.0000
  C   C444      1.0  0.25418  0.71587  0.81493  1.0000
  C   C445      1.0  0.27712  0.77128  0.93115  1.0000
  C   C446      1.0  0.20308  0.55777  0.98441  1.0000
  C   C447      1.0  0.44431  0.01144  0.70459  1.0000
  C   C448      1.0  0.28542  0.76945  0.72200  1.0000
  H   H535      1.0  0.14670  0.97706  0.74945  1.0000
  H   H536      1.0  0.42529  0.78852  0.79544  1.0000
  C   C449      1.0  0.03775  0.82529  0.91608  1.0000
  C   C450      1.0  0.32847  0.95984  0.86648  1.0000
  C   C451      1.0  0.31011  0.92111  0.87302  1.0000
  H   H537      1.0  0.23000  0.70015  0.82729  1.0000
  H   H538      1.0  0.34716  0.69749  0.95056  1.0000
  N   N31       1.0  0.10302  0.93687  0.77175  1.0000
  H   H539      1.0  0.50367  0.59850  0.90907  1.0000
  C   C452      1.0  0.39381  0.93406  0.88840  1.0000
  S   S126      1.0  0.19943  0.94485  0.98942  1.0000
  H   H540      1.0  0.10513  0.93702  0.81858  1.0000
  H   H541      1.0  0.34196  0.77060  0.77152  1.0000
  Fe  Fe65      1.0  0.23987  0.01247  0.75478  1.0000
  H   H542      1.0  0.08292  0.75646  0.93723  1.0000
  C   C453      1.0  0.44809  0.89046  0.98357  1.0000
  H   H543      1.0  0.27795  0.91465  0.86734  1.0000
  H   H544      1.0  0.32016  0.76899  0.72444  1.0000
  H   H545      1.0  0.45822  0.76045  0.81969  1.0000
  H   H546      1.0  0.30423  0.70443  0.89627  1.0000
  H   H547      1.0  0.15809  0.92339  0.74614  1.0000
  C   C454      1.0  0.47031  0.78157  0.74808  1.0000
  C   C455      1.0  0.12653  0.94053  0.79962  1.0000
  C   C456      1.0  0.32598  0.73042  0.90094  1.0000
  H   H548      1.0  0.28191  0.55885  0.96761  1.0000
  C   C457      1.0  0.24314  0.74001  0.79088  1.0000
  Fe  Fe66      1.0  0.52552  0.79906  0.67597  1.0000
  H   H549      1.0  0.20011  0.80158  0.75949  1.0000
  H   H550      1.0  0.26391  0.95104  0.82704  1.0000
  H   H551      1.0  0.27883  0.78856  0.70239  1.0000
  C   C458      1.0  0.44932  0.76375  0.79634  1.0000
  H   H552      1.0  0.38396  0.76251  0.93335  1.0000
  S   S127      1.0  0.20970  0.88690  0.69709  1.0000
  C   C459      1.0  0.37141  0.96519  0.87421  1.0000
  C   C460      1.0  0.06521  0.96313  0.95989  1.0000
  H   H553      1.0  0.21684  0.68017  0.69910  1.0000
  H   H554      1.0  0.08934  0.93971  0.95843  1.0000
  C   C461      1.0  0.31660  0.75591  0.78316  1.0000
  H   H555      1.0  0.43353  0.73492  0.78894  1.0000
  H   H556      1.0  0.32343  0.75362  0.88320  1.0000
  C   C462      1.0  0.37869  0.52701  0.67913  1.0000
  H   H557      1.0  0.31234  0.96579  0.81011  1.0000
  Fe  Fe67      1.0  0.29186  0.99996  0.95165  1.0000
  H   H558      1.0  0.20999  0.74210  0.78607  1.0000
  H   H559      1.0  0.31290  0.83104  0.75552  1.0000
  C   C463      1.0  0.06431  0.74421  0.86518  1.0000
  H   H560      1.0  0.38509  0.58579  0.97217  1.0000
  H   H561      1.0  0.48481  0.56999  0.93976  1.0000
  C   C464      1.0  0.19987  0.81455  0.93429  1.0000
  C   C465      1.0  0.51808  0.74038  0.77744  1.0000
  H   H562      1.0  0.08458  0.71633  0.86393  1.0000
  H   H563      1.0  0.49483  0.79430  0.73356  1.0000
  H   H564      1.0  0.35800  0.71702  0.89958  1.0000
  H   H565      1.0  0.14272  0.97076  0.80196  1.0000
  C   C466      1.0  0.38299  0.61212  0.98655  1.0000
  H   H566      1.0  0.22372  0.83999  0.97425  1.0000
  H   H567      1.0  0.38819  0.99350  0.87018  1.0000
  C   C467      1.0  0.41962  0.53438  0.91194  1.0000
  C   C468      1.0  0.50287  0.96485  0.70862  1.0000
  H   H568      1.0  0.04202  0.68972  0.90699  1.0000
  H   H569      1.0  0.17613  0.54613  0.99750  1.0000
  C   C469      1.0  0.49176  0.88888  0.98456  1.0000
  H   H570      1.0  0.24281  0.59626  0.71603  1.0000
  H   H571      1.0  0.43711  0.54509  0.85438  1.0000
  C   C470      1.0  0.25381  0.57433  0.73305  1.0000
  H   H572      1.0  0.51526  0.93476  0.71432  1.0000
  H   H573      1.0  0.51023  0.91006  0.97158  1.0000
  H   H574      1.0  0.03454  0.93478  0.99630  1.0000
  C   C471      1.0  0.51507  0.70428  0.79489  1.0000
  S   S128      1.0  0.52551  0.77530  0.87908  1.0000
  H   H575      1.0  0.51810  0.80756  0.81167  1.0000
  C   C472      1.0  0.07561  0.00931  0.77507  1.0000
  C   C473      1.0  0.06514  0.99604  0.94048  1.0000
  C   C474      1.0  0.26725  0.00387  0.87096  1.0000
  H   H576      1.0  0.08948  0.99803  0.92407  1.0000
  H   H577      1.0  0.30946  0.52203  0.75895  1.0000
  C   C475      1.0  0.40146  0.68287  0.99803  1.0000
  H   H578      1.0  0.27843  0.01604  0.89222  1.0000
  S   S129      1.0  0.72751  0.03322  0.00035  1.0000
  S   S130      1.0  0.96555  0.30759  0.05513  1.0000
  Fe  Fe68      1.0  0.01172  0.23258  0.25435  1.0000
  C   C476      1.0  0.01269  0.29202  0.17423  1.0000
  Fe  Fe69      1.0  0.94547  0.24129  0.05567  1.0000
  S   S131      1.0  0.88895  0.22834  0.08431  1.0000
  C   C477      1.0  0.79850  0.27029  0.26050  1.0000
  Fe  Fe70      1.0  0.00745  0.21884  0.00789  1.0000
  Fe  Fe71      1.0  0.96129  0.31282  0.25004  1.0000
  S   S132      1.0  0.95378  0.31617  0.29839  1.0000
  S   S133      1.0  0.93969  0.36844  0.22404  1.0000
  H   H579      1.0  0.82022  0.23820  0.04971  1.0000
  H   H580      1.0  0.69585  0.46912  0.17407  1.0000
  Fe  Fe72      1.0  0.94002  0.24834  0.29663  1.0000
  C   C478      1.0  0.60911  0.34596  0.32322  1.0000
  S   S134      1.0  0.94283  0.24619  0.24763  1.0000
  C   C479      1.0  0.95723  0.04995  0.22806  1.0000
  Fe  Fe73      1.0  0.76943  0.43495  0.11002  1.0000
  S   S135      1.0  0.78644  0.44223  0.06296  1.0000
  S   S136      1.0  0.78748  0.37659  0.13428  1.0000
  H   H581      1.0  0.00971  0.22444  0.14061  1.0000
  Fe  Fe74      1.0  0.71947  0.46056  0.05568  1.0000
  S   S137      1.0  0.68209  0.44762  0.01449  1.0000
  H   H582      1.0  0.95429  0.23455  0.17591  1.0000
  S   S138      1.0  0.70087  0.44798  0.10185  1.0000
  H   H583      1.0  0.58619  0.31643  0.04316  1.0000
  H   H584      1.0  0.81111  0.48064  0.18796  1.0000
  H   H585      1.0  0.59505  0.46541  0.10932  1.0000
  H   H586      1.0  0.59924  0.23279  0.29787  1.0000
  Fe  Fe75      1.0  0.81056  0.06558  0.20494  1.0000
  S   S139      1.0  0.80854  0.06463  0.25387  1.0000
  S   S140      1.0  0.86744  0.09751  0.18578  1.0000
  C   C480      1.0  0.74211  0.09212  0.10941  1.0000
  Fe  Fe76      1.0  0.73827  0.06713  0.24941  1.0000
  S   S141      1.0  0.68848  0.10895  0.26921  1.0000
  N   N32       1.0  0.53297  0.27943  0.27872  1.0000
  S   S142      1.0  0.74086  0.07304  0.20051  1.0000
  H   H587      1.0  0.58558  0.24852  0.02901  1.0000
  Fe  Fe77      1.0  0.56293  0.29976  0.17756  1.0000
  S   S143      1.0  0.56101  0.29741  0.12840  1.0000
  S   S144      1.0  0.59173  0.35682  0.19880  1.0000
  Fe  Fe78      1.0  0.56014  0.22835  0.13307  1.0000
  S   S145      1.0  0.58736  0.17532  0.10669  1.0000
  S   S146      1.0  0.56812  0.23057  0.18193  1.0000
  C   C481      1.0  0.69249  0.16193  0.03889  1.0000
  C   C482      1.0  0.66944  0.12774  0.04816  1.0000
  C   C483      1.0  0.63712  0.13262  0.06869  1.0000
  C   C484      1.0  0.62768  0.17159  0.08033  1.0000
  C   C485      1.0  0.65041  0.20590  0.07083  1.0000
  C   C486      1.0  0.68233  0.20110  0.04997  1.0000
  H   H588      1.0  0.67664  0.09753  0.03965  1.0000
  H   H589      1.0  0.61974  0.10590  0.07597  1.0000
  H   H590      1.0  0.64361  0.23605  0.07963  1.0000
  H   H591      1.0  0.69918  0.22793  0.04250  1.0000
  C   C487      1.0  0.67985  0.13088  0.30408  1.0000
  H   H592      1.0  0.77136  0.02376  0.13682  1.0000
  N   N33       1.0  0.53634  0.44199  0.12620  1.0000
  S   S147      1.0  0.78569  0.50025  0.12200  1.0000
  C   C488      1.0  0.74832  0.13460  0.10312  1.0000
  H   H593      1.0  0.77181  0.14527  0.08800  1.0000
  H   H594      1.0  0.71675  0.48347  0.25348  1.0000
  Fe  Fe79      1.0  0.79765  0.50899  0.07406  1.0000
  C   C489      1.0  0.68174  0.37719  0.27620  1.0000
  C   C490      1.0  0.67584  0.33741  0.26463  1.0000
  C   C491      1.0  0.64758  0.33030  0.24151  1.0000
  C   C492      1.0  0.62525  0.36314  0.22941  1.0000
  C   C493      1.0  0.63100  0.40290  0.24102  1.0000
  C   C494      1.0  0.65878  0.40988  0.26446  1.0000
  H   H595      1.0  0.69301  0.31176  0.27365  1.0000
  H   H596      1.0  0.64396  0.29963  0.23263  1.0000
  H   H597      1.0  0.61396  0.42853  0.23172  1.0000
  H   H598      1.0  0.66232  0.44046  0.27345  1.0000
  C   C495      1.0  0.74183  0.02785  0.08227  1.0000
  C   C496      1.0  0.69211  0.40417  0.17450  1.0000
  S   S148      1.0  0.73488  0.15687  0.01426  1.0000
  Fe  Fe80      1.0  0.96283  0.30247  0.00642  1.0000
  C   C497      1.0  0.80188  0.24688  0.03010  1.0000
  C   C498      1.0  0.89561  0.37077  0.20056  1.0000
  C   C499      1.0  0.88878  0.40677  0.18429  1.0000
  C   C500      1.0  0.85515  0.40931  0.16443  1.0000
  C   C501      1.0  0.82812  0.37575  0.16060  1.0000
  C   C502      1.0  0.83439  0.34004  0.17735  1.0000
  C   C503      1.0  0.86779  0.33769  0.19746  1.0000
  H   H599      1.0  0.91028  0.43244  0.18644  1.0000
  H   H600      1.0  0.85103  0.43669  0.15134  1.0000
  H   H601      1.0  0.81355  0.31399  0.17446  1.0000
  H   H602      1.0  0.87253  0.31013  0.21015  1.0000
  C   C504      1.0  0.88317  0.18953  0.11090  1.0000
  C   C505      1.0  0.84325  0.18263  0.12293  1.0000
  C   C506      1.0  0.83744  0.15326  0.14510  1.0000
  C   C507      1.0  0.87189  0.13153  0.15598  1.0000
  C   C508      1.0  0.91182  0.13863  0.14407  1.0000
  C   C509      1.0  0.91741  0.16710  0.12133  1.0000
  H   H603      1.0  0.81677  0.20037  0.11519  1.0000
  H   H604      1.0  0.80662  0.14830  0.15426  1.0000
  H   H605      1.0  0.93867  0.12206  0.15254  1.0000
  H   H606      1.0  0.94829  0.17218  0.11230  1.0000
  C   C510      1.0  0.63953  0.31713  0.33078  1.0000
  S   S149      1.0  0.71752  0.38425  0.30556  1.0000
  C   C511      1.0  0.96776  0.46450  0.33239  1.0000
  H   H607      1.0  0.58554  0.38985  0.03411  1.0000
  H   H608      1.0  0.02047  0.40203  0.09936  1.0000
  C   C512      1.0  0.84624  0.30554  0.02323  1.0000
  H   H609      1.0  0.58386  0.07207  0.21519  1.0000
  H   H610      1.0  0.92955  0.28382  0.17955  1.0000
  C   C513      1.0  0.78268  0.31173  0.05126  1.0000
  H   H611      1.0  0.54290  0.39148  0.09588  1.0000
  H   H612      1.0  0.96968  0.05727  0.01423  1.0000
  C   C514      1.0  0.97165  0.32200  0.13479  1.0000
  H   H613      1.0  0.55181  0.35820  0.30166  1.0000
  H   H614      1.0  0.79907  0.30250  0.07174  1.0000
  C   C515      1.0  0.00110  0.25394  0.12977  1.0000
  H   H615      1.0  0.86939  0.19068  0.26457  1.0000
  H   H616      1.0  0.56803  0.23415  0.25403  1.0000
  H   H617      1.0  0.76664  0.46054  0.26119  1.0000
  H   H618      1.0  0.88947  0.50107  0.32249  1.0000
  H   H619      1.0  0.86510  0.29497  0.04228  1.0000
  H   H620      1.0  0.52930  0.42919  0.17194  1.0000
  C   C516      1.0  0.70864  0.44178  0.18407  1.0000
  C   C517      1.0  0.77782  0.17106  0.22900  1.0000
  C   C518      1.0  0.83187  0.21861  0.21575  1.0000
  H   H621      1.0  0.97254  0.41274  0.28426  1.0000
  C   C519      1.0  0.95357  0.39502  0.10308  1.0000
  Fe  Fe81      1.0  0.73647  0.44394  0.32817  1.0000
  H   H622      1.0  0.81467  0.28496  0.24273  1.0000
  H   H623      1.0  0.78334  0.09004  0.05670  1.0000
  H   H624      1.0  0.81881  0.51253  0.21968  1.0000
  H   H625      1.0  0.86118  0.29285  0.00333  1.0000
  H   H626      1.0  0.73914  0.22533  0.32688  1.0000
  C   C520      1.0  0.78228  0.29643  0.28191  1.0000
  S   S150      1.0  0.00756  0.23031  0.30317  1.0000
  S   S151      1.0  0.93900  0.23727  0.00682  1.0000
  H   H627      1.0  0.76985  0.23470  0.03391  1.0000
  H   H628      1.0  0.78420  0.34592  0.05028  1.0000
  H   H629      1.0  0.81448  0.47983  0.01016  1.0000
  C   C521      1.0  0.99505  0.38347  0.10805  1.0000
  C   C522      1.0  0.79395  0.22676  0.26259  1.0000
  S   S152      1.0  0.80543  0.45866  0.32800  1.0000
  H   H630      1.0  0.61703  0.14949  0.29268  1.0000
  H   H631      1.0  0.66758  0.40349  0.15815  1.0000
  C   C523      1.0  0.57428  0.33433  0.30651  1.0000
  C   C524      1.0  0.79942  0.07434  0.07520  1.0000
  N   N34       1.0  0.81158  0.19786  0.24086  1.0000
  C   C525      1.0  0.67460  0.36249  0.01731  1.0000
  H   H632      1.0  0.66846  0.29620  0.01799  1.0000
  H   H633      1.0  0.59253  0.46190  0.14863  1.0000
  C   C526      1.0  0.95578  0.44265  0.28232  1.0000
  C   C527      1.0  0.75568  0.23787  0.30831  1.0000
  C   C528      1.0  0.92964  0.33442  0.12898  1.0000
  H   H634      1.0  0.69522  0.36373  0.03603  1.0000
  H   H635      1.0  0.83057  0.15310  0.27325  1.0000
  H   H636      1.0  0.81811  0.04868  0.06565  1.0000
  N   N35       1.0  0.80176  0.29213  0.02532  1.0000
  C   C529      1.0  0.92098  0.37044  0.11338  1.0000
  C   C530      1.0  0.71056  0.13138  0.32596  1.0000
  C   C531      1.0  0.75089  0.48543  0.24870  1.0000
  H   H637      1.0  0.85815  0.14954  0.23947  1.0000
  C   C532      1.0  0.84370  0.17161  0.25509  1.0000
  H   H638      1.0  0.01877  0.26418  0.18781  1.0000
  C   C533      1.0  0.68409  0.11274  0.14136  1.0000
  H   H639      1.0  0.88868  0.37917  0.10911  1.0000
  H   H640      1.0  0.69380  0.33829  0.17838  1.0000
  N   N36       1.0  0.76863  0.05913  0.09696  1.0000
  H   H641      1.0  0.00089  0.31687  0.18880  1.0000
  H   H642      1.0  0.76753  0.17875  0.29033  1.0000
  C   C534      1.0  0.73798  0.36762  0.20725  1.0000
  C   C535      1.0  1.00000  0.05825  0.22567  1.0000
  H   H643      1.0  0.70269  0.05061  0.13496  1.0000
  H   H644      1.0  0.81592  0.23012  0.01135  1.0000
  H   H645      1.0  0.90279  0.31678  0.13600  1.0000
  H   H646      1.0  0.76397  0.15060  0.24580  1.0000
  H   H647      1.0  0.55824  0.20862  0.04774  1.0000
  H   H648      1.0  0.77861  0.40353  0.23375  1.0000
  C   C536      1.0  0.64107  0.15004  0.30938  1.0000
  N   N37       1.0  0.98215  0.28346  0.15047  1.0000
  H   H649      1.0  0.78978  0.15043  0.21151  1.0000
  C   C537      1.0  0.72352  0.16496  0.11609  1.0000
  C   C538      1.0  0.70921  0.08218  0.12897  1.0000
  Fe  Fe82      1.0  0.02151  0.29851  0.30080  1.0000
  C   C539      1.0  0.56915  0.29306  0.29667  1.0000
  H   H650      1.0  0.80918  0.23814  0.20352  1.0000
  C   C540      1.0  0.55699  0.37215  0.03083  1.0000
  N   N38       1.0  0.93553  0.45560  0.30993  1.0000
  H   H651      1.0  0.67127  0.17756  0.14428  1.0000
  H   H652      1.0  0.97878  0.46604  0.27473  1.0000
  C   C541      1.0  0.75465  0.40496  0.21710  1.0000
  C   C542      1.0  0.77193  0.21144  0.28715  1.0000
  C   C543      1.0  0.60086  0.26455  0.30473  1.0000
  C   C544      1.0  0.94521  0.26296  0.16382  1.0000
  H   H653      1.0  0.74860  0.30076  0.32225  1.0000
  C   C545      1.0  0.70689  0.36724  0.18591  1.0000
  H   H654      1.0  0.74902  0.30297  0.05334  1.0000
  H   H655      1.0  0.85884  0.23788  0.22287  1.0000
  H   H656      1.0  0.93481  0.07505  0.22819  1.0000
  H   H657      1.0  0.72838  0.19709  0.11065  1.0000
  C   C546      1.0  0.63539  0.27648  0.32161  1.0000
  H   H658      1.0  0.81223  0.06147  0.13285  1.0000
  H   H659      1.0  0.93235  0.43796  0.26454  1.0000
  H   H660      1.0  0.59905  0.41663  0.12698  1.0000
  C   C547      1.0  0.00406  0.34747  0.12352  1.0000
  H   H661      1.0  0.53494  0.44126  0.07938  1.0000
  C   C548      1.0  0.90833  0.42163  0.32035  1.0000
  C   C549      1.0  0.90812  0.49138  0.30321  1.0000
  H   H662      1.0  0.01064  0.09002  0.22411  1.0000
  H   H663      1.0  0.84996  0.33955  0.02253  1.0000
  N   N39       1.0  0.75844  0.48238  0.21695  1.0000
  H   H664      1.0  0.92636  0.39295  0.32427  1.0000
  C   C550      1.0  0.74055  0.44326  0.20579  1.0000
  H   H665      1.0  0.82110  0.45777  0.22272  1.0000
  H   H666      1.0  0.56692  0.28504  0.23864  1.0000
  C   C551      1.0  0.79244  0.03881  0.12072  1.0000
  H   H667      1.0  0.65861  0.10432  0.15578  1.0000
  H   H668      1.0  0.94666  0.42271  0.09080  1.0000
  H   H669      1.0  0.74902  0.33882  0.21630  1.0000
  H   H670      1.0  0.84489  0.19588  0.19998  1.0000
  H   H671      1.0  0.75172  0.18969  0.21971  1.0000
  H   H672      1.0  0.82251  0.09603  0.08519  1.0000
  C   C552      1.0  0.69142  0.15405  0.13509  1.0000
  H   H673      1.0  0.56943  0.25538  0.06655  1.0000
  C   C553      1.0  0.58271  0.44692  0.12785  1.0000
  H   H674      1.0  0.88470  0.48410  0.28587  1.0000
  C   C554      1.0  0.65934  0.32433  0.00709  1.0000
  H   H675      1.0  0.97867  0.24667  0.11186  1.0000
  C   C555      1.0  0.56121  0.04841  0.20940  1.0000
  S   S153      1.0  0.01166  0.21739  0.05659  1.0000
  C   C556      1.0  0.80434  0.48334  0.21165  1.0000
  S   S154      1.0  0.71637  0.50910  0.31897  1.0000
  C   C557      1.0  0.76111  0.28026  0.30580  1.0000
  H   H676      1.0  0.88340  0.41375  0.30422  1.0000
  C   C558      1.0  0.55695  0.32965  0.03588  1.0000
  H   H677      1.0  0.65926  0.25420  0.32742  1.0000
  H   H678      1.0  0.74052  0.11672  0.32224  1.0000
  H   H679      1.0  0.76267  0.51512  0.25777  1.0000
  H   H680      1.0  0.92202  0.25288  0.14707  1.0000
  H   H681      1.0  0.99885  0.40452  0.32909  1.0000
  C   C559      1.0  0.56002  0.24267  0.04501  1.0000
  H   H682      1.0  0.72058  0.04264  0.06611  1.0000
  Fe  Fe83      1.0  0.71809  0.51411  0.11048  1.0000
  H   H683      1.0  0.79450  0.36982  0.00213  1.0000
  C   C560      1.0  0.54820  0.26190  0.25091  1.0000
  H   H684      1.0  0.61306  0.37771  0.32983  1.0000
  H   H685      1.0  0.54159  0.38502  0.15013  1.0000
  H   H686      1.0  0.78593  0.32955  0.28002  1.0000
  C   C561      1.0  0.66356  0.39886  0.00292  1.0000
  S   S155      1.0  0.88095  0.22917  0.32090  1.0000
  H   H687      1.0  0.82989  0.02223  0.32773  1.0000
  H   H688      1.0  0.92656  0.51834  0.29542  1.0000
  S   S156      1.0  0.89401  0.29320  0.47314  1.0000
  H   H689      1.0  0.99684  0.38651  0.41910  1.0000
  H   H690      1.0  0.95029  0.18734  0.41993  1.0000
  C   C562      1.0  0.63318  0.17018  0.33595  1.0000
  Fe  Fe84      1.0  0.79935  0.47021  0.37586  1.0000
  S   S157      1.0  0.85316  0.46086  0.40764  1.0000
  S   S158      1.0  0.73189  0.45005  0.37702  1.0000
  Fe  Fe85      1.0  0.80667  0.06576  0.44051  1.0000
  S   S159      1.0  0.81162  0.07977  0.48830  1.0000
  S   S160      1.0  0.86027  0.07982  0.40944  1.0000
  C   C563      1.0  0.00349  0.25374  0.63037  1.0000
  Fe  Fe86      1.0  0.74206  0.09171  0.48639  1.0000
  H   H691      1.0  0.94439  0.07735  0.49611  1.0000
  S   S161      1.0  0.73867  0.08287  0.43776  1.0000
  Fe  Fe87      1.0  0.57396  0.30690  0.44375  1.0000
  S   S162      1.0  0.59143  0.30592  0.39645  1.0000
  S   S163      1.0  0.59032  0.36383  0.47065  1.0000
  Fe  Fe88      1.0  0.59814  0.23721  0.40134  1.0000
  H   H692      1.0  0.82413  0.50182  0.50644  1.0000
  S   S164      1.0  0.58543  0.23920  0.44958  1.0000
  H   H693      1.0  0.54348  0.11864  0.41503  1.0000
  H   H694      1.0  0.83491  0.29143  0.63268  1.0000
  C   C564      1.0  0.69411  0.34527  0.52137  1.0000
  C   C565      1.0  0.66019  0.33830  0.50219  1.0000
  C   C566      1.0  0.63401  0.37091  0.49418  1.0000
  H   H695      1.0  0.71419  0.31982  0.52746  1.0000
  H   H696      1.0  0.65431  0.30771  0.49371  1.0000
  C   C567      1.0  0.86480  0.12112  0.38452  1.0000
  C   C568      1.0  0.83168  0.14826  0.37907  1.0000
  C   C569      1.0  0.83701  0.18094  0.35924  1.0000
  C   C570      1.0  0.87535  0.18670  0.34470  1.0000
  H   H697      1.0  0.54356  0.26114  0.58100  1.0000
  C   C571      1.0  0.90289  0.12654  0.36964  1.0000
  H   H698      1.0  0.80203  0.14401  0.39006  1.0000
  H   H699      1.0  0.01822  0.32039  0.66321  1.0000
  H   H700      1.0  0.62339  0.41803  0.38946  1.0000
  C   C572      1.0  0.93306  0.29866  0.38268  1.0000
  C   C573      1.0  0.88324  0.34034  0.45530  1.0000
  C   C574      1.0  0.85266  0.34116  0.43318  1.0000
  C   C575      1.0  0.84229  0.37807  0.41894  1.0000
  C   C576      1.0  0.86312  0.41445  0.42634  1.0000
  C   C577      1.0  0.89397  0.41379  0.44830  1.0000
  C   C578      1.0  0.90392  0.37687  0.46283  1.0000
  H   H701      1.0  0.83708  0.31314  0.42668  1.0000
  H   H702      1.0  0.81882  0.37812  0.40187  1.0000
  H   H703      1.0  0.91041  0.44188  0.45399  1.0000
  H   H704      1.0  0.92758  0.37666  0.47978  1.0000
  Fe  Fe89      1.0  0.94910  0.28333  0.50398  1.0000
  S   S165      1.0  0.94626  0.28739  0.55301  1.0000
  C   C579      1.0  0.53357  0.07726  0.46854  1.0000
  Fe  Fe90      1.0  0.01291  0.31111  0.54939  1.0000
  Fe  Fe91      1.0  0.97488  0.22410  0.55276  1.0000
  S   S166      1.0  0.96141  0.16720  0.58010  1.0000
  S   S167      1.0  0.72358  0.02670  0.49704  1.0000
  S   S168      1.0  0.97322  0.21811  0.50407  1.0000
  Fe  Fe92      1.0  0.83825  0.47635  0.62164  1.0000
  S   S169      1.0  0.83869  0.46865  0.57313  1.0000
  C   C580      1.0  0.74709  0.06695  0.62069  1.0000
  H   H705      1.0  0.54071  0.26530  0.50105  1.0000
  Fe  Fe93      1.0  0.77064  0.45061  0.57720  1.0000
  S   S170      1.0  0.74674  0.39196  0.55548  1.0000
  C   C581      1.0  0.89922  0.28006  0.64500  1.0000
  S   S171      1.0  0.77250  0.45286  0.62619  1.0000
  H   H706      1.0  0.93754  0.16268  0.33831  1.0000
  S   S172      1.0  0.71517  0.15052  0.50556  1.0000
  S   S173      1.0  0.58914  0.28132  0.63411  1.0000
  Fe  Fe94      1.0  0.56706  0.21556  0.63573  1.0000
  S   S174      1.0  0.58496  0.15843  0.61000  1.0000
  C   C582      1.0  0.67898  0.15212  0.53460  1.0000
  C   C583      1.0  0.66902  0.19032  0.54721  1.0000
  C   C584      1.0  0.64059  0.19279  0.57055  1.0000
  C   C585      1.0  0.62176  0.15700  0.58131  1.0000
  C   C586      1.0  0.63151  0.11883  0.56852  1.0000
  C   C587      1.0  0.65986  0.11639  0.54516  1.0000
  H   H707      1.0  0.68362  0.21814  0.53909  1.0000
  H   H708      1.0  0.63334  0.22229  0.58024  1.0000
  H   H709      1.0  0.61677  0.09107  0.57661  1.0000
  H   H710      1.0  0.66667  0.08695  0.53525  1.0000
  C   C588      1.0  0.70266  0.38490  0.53233  1.0000
  C   C589      1.0  0.64217  0.41047  0.50550  1.0000
  C   C590      1.0  0.67644  0.41753  0.52437  1.0000
  H   H711      1.0  0.62184  0.43581  0.49963  1.0000
  H   H712      1.0  0.68246  0.44810  0.53281  1.0000
  C   C591      1.0  0.59788  0.03774  0.47019  1.0000
  C   C592      1.0  0.02785  0.47807  0.37719  1.0000
  C   C593      1.0  0.91886  0.16123  0.60440  1.0000
  C   C594      1.0  0.88759  0.19111  0.60694  1.0000
  C   C595      1.0  0.85409  0.18507  0.62639  1.0000
  C   C596      1.0  0.85157  0.14929  0.64350  1.0000
  C   C597      1.0  0.88265  0.11922  0.64081  1.0000
  C   C598      1.0  0.91621  0.12527  0.62137  1.0000
  H   H713      1.0  0.88908  0.21874  0.59384  1.0000
  H   H714      1.0  0.82995  0.20830  0.62819  1.0000
  C   C599      1.0  0.96738  0.28783  0.40093  1.0000
  H   H715      1.0  0.68957  0.40834  0.61713  1.0000
  H   H716      1.0  0.01879  0.24434  0.36749  1.0000
  C   C600      1.0  0.75257  0.48610  0.45284  1.0000
  H   H717      1.0  0.67773  0.45436  0.63717  1.0000
  C   C601      1.0  0.95029  0.02008  0.51923  1.0000
  H   H718      1.0  0.73675  0.45999  0.46408  1.0000
  H   H719      1.0  0.52986  0.40537  0.38306  1.0000
  C   C602      1.0  0.80385  0.14302  0.55619  1.0000
  H   H720      1.0  0.00639  0.25064  0.44763  1.0000
  H   H721      1.0  0.00162  0.19379  0.37860  1.0000
  S   S175      1.0  0.89644  0.46265  0.64824  1.0000
  C   C603      1.0  0.70289  0.15222  0.35240  1.0000
  H   H722      1.0  0.65337  0.36915  0.65295  1.0000
  H   H723      1.0  0.72716  0.15337  0.36890  1.0000
  C   C604      1.0  0.84622  0.13538  0.55124  1.0000
  H   H724      1.0  0.59533  0.43949  0.35901  1.0000
  H   H725      1.0  0.91437  0.27539  0.37186  1.0000
  C   C605      1.0  0.59137  0.44893  0.63055  1.0000
  H   H726      1.0  0.83781  0.39686  0.66242  1.0000
  H   H727      1.0  0.96601  0.22759  0.36037  1.0000
  C   C606      1.0  0.61136  0.38836  0.60304  1.0000
  S   S176      1.0  0.53100  0.22398  0.38868  1.0000
  S   S177      1.0  0.74689  0.51529  0.57188  1.0000
  N   N40       1.0  0.97713  0.26827  0.65482  1.0000
  C   C607      1.0  0.58409  0.46691  0.42973  1.0000
  H   H728      1.0  0.66560  0.45040  0.59870  1.0000
  H   H729      1.0  0.63316  0.10556  0.40093  1.0000
  C   C608      1.0  0.99041  0.32081  0.41377  1.0000
  H   H730      1.0  0.65233  0.10544  0.46913  1.0000
  C   C609      1.0  0.94528  0.37132  0.39090  1.0000
  H   H731      1.0  0.93290  0.49210  0.59391  1.0000
  H   H732      1.0  0.58051  0.02265  0.65284  1.0000
  H   H733      1.0  0.01829  0.27968  0.61833  1.0000
  C   C610      1.0  0.66443  0.17232  0.35726  1.0000
  N   N41       1.0  0.76958  0.04618  0.59650  1.0000
  C   C611      1.0  0.91742  0.35181  0.61397  1.0000
  H   H734      1.0  0.55410  0.15386  0.44464  1.0000
  N   N42       1.0  0.77694  0.23177  0.45162  1.0000
  C   C612      1.0  0.74306  0.20207  0.44414  1.0000
  C   C613      1.0  0.81331  0.22362  0.43248  1.0000
  C   C614      1.0  0.79015  0.22331  0.48212  1.0000
  C   C615      1.0  0.76219  0.27458  0.44710  1.0000
  C   C616      1.0  0.76849  0.30635  0.46805  1.0000
  C   C617      1.0  0.74205  0.28597  0.42064  1.0000
  C   C618      1.0  0.75448  0.34652  0.46299  1.0000
  C   C619      1.0  0.72781  0.32616  0.41595  1.0000
  C   C620      1.0  0.73381  0.35631  0.43717  1.0000
  H   H735      1.0  0.73614  0.20088  0.42047  1.0000
  H   H736      1.0  0.75172  0.17006  0.45015  1.0000
  H   H737      1.0  0.71345  0.20974  0.45577  1.0000
  H   H738      1.0  0.80566  0.22906  0.40918  1.0000
  H   H739      1.0  0.82442  0.19123  0.43460  1.0000
  H   H740      1.0  0.84028  0.24385  0.43817  1.0000
  H   H741      1.0  0.76436  0.23018  0.49770  1.0000
  H   H742      1.0  0.79868  0.19036  0.48537  1.0000
  H   H743      1.0  0.81854  0.24138  0.48841  1.0000
  H   H744      1.0  0.78477  0.30124  0.48839  1.0000
  H   H745      1.0  0.73711  0.26389  0.40333  1.0000
  H   H746      1.0  0.75981  0.37013  0.47933  1.0000
  H   H747      1.0  0.71213  0.33396  0.39572  1.0000
  C   C621      1.0  0.92217  0.33977  0.37791  1.0000
  N   N43       1.0  0.59774  0.10353  0.44113  1.0000
  H   H748      1.0  0.01714  0.31579  0.42780  1.0000
  H   H749      1.0  0.85497  0.04058  0.58049  1.0000
  H   H750      1.0  0.78588  0.03339  0.38694  1.0000
  C   C622      1.0  0.57606  0.07277  0.45960  1.0000
  C   C623      1.0  0.95825  0.50773  0.58144  1.0000
  H   H751      1.0  0.56635  0.38889  0.41060  1.0000
  H   H752      1.0  0.82816  0.46890  0.47472  1.0000
  H   H753      1.0  0.93073  0.23337  0.43677  1.0000
  H   H754      1.0  0.63563  0.36436  0.59901  1.0000
  H   H755      1.0  0.64781  0.06533  0.42451  1.0000
  C   C624      1.0  0.60535  0.44537  0.38187  1.0000
  C   C625      1.0  0.55582  0.51673  0.36883  1.0000
  C   C626      1.0  0.99811  0.43424  0.33981  1.0000
  S   S178      1.0  0.01346  0.31158  0.50046  1.0000
  H   H756      1.0  0.59930  0.06134  0.40483  1.0000
  H   H757      1.0  0.63059  0.03279  0.46515  1.0000
  C   C627      1.0  0.99875  0.50857  0.37038  1.0000
  C   C628      1.0  0.54530  0.41445  0.40391  1.0000
  N   N44       1.0  0.97884  0.24398  0.40499  1.0000
  C   C629      1.0  0.86378  0.09819  0.56008  1.0000
  H   H758      1.0  0.60656  0.40552  0.58230  1.0000
  C   C630      1.0  0.00817  0.05559  0.49672  1.0000
  C   C631      1.0  0.62875  0.12635  0.45911  1.0000
  N   N45       1.0  0.56852  0.45394  0.40073  1.0000
  C   C632      1.0  0.94980  0.32972  0.62733  1.0000
  C   C633      1.0  0.96560  0.05334  0.50334  1.0000
  H   H759      1.0  0.98433  0.23597  0.61441  1.0000
  H   H760      1.0  0.60535  0.44338  0.43944  1.0000
  H   H761      1.0  0.56826  0.20706  0.52070  1.0000
  H   H762      1.0  0.58164  0.37179  0.60780  1.0000
  H   H763      1.0  0.72366  0.08979  0.61299  1.0000
  C   C634      1.0  0.77910  0.11381  0.57048  1.0000
  H   H764      1.0  0.98129  0.34150  0.62487  1.0000
  H   H765      1.0  0.89687  0.09255  0.55632  1.0000
  H   H766      1.0  0.94027  0.10195  0.61945  1.0000
  C   C635      1.0  0.02755  0.44104  0.36191  1.0000
  H   H767      1.0  0.62831  0.47116  0.38202  1.0000
  H   H768      1.0  0.86567  0.15836  0.54073  1.0000
  H   H769      1.0  0.60322  0.18481  0.33970  1.0000
  C   C636      1.0  0.56877  0.13399  0.42786  1.0000
  H   H770      1.0  0.93629  0.40318  0.38770  1.0000
  C   C637      1.0  0.01248  0.47597  0.61046  1.0000
  C   C638      1.0  0.99187  0.22660  0.37665  1.0000
  H   H771      1.0  0.77365  0.47292  0.43598  1.0000
  H   H772      1.0  0.55785  0.47159  0.44530  1.0000
  H   H773      1.0  0.63047  0.50335  0.62127  1.0000
  C   C639      1.0  0.62023  0.08299  0.41686  1.0000
  C   C640      1.0  0.66594  0.43336  0.61974  1.0000
  H   H774      1.0  0.53619  0.04383  0.63382  1.0000
  C   C641      1.0  0.94183  0.29283  0.64296  1.0000
  C   C642      1.0  0.01396  0.23771  0.42586  1.0000
  H   H775      1.0  0.76954  0.08339  0.63521  1.0000
  H   H776      1.0  0.85122  0.35481  0.60501  1.0000
  H   H777      1.0  0.72272  0.38739  0.43352  1.0000
  H   H778      1.0  0.72909  0.04469  0.63426  1.0000
  C   C643      1.0  0.79628  0.07615  0.58071  1.0000
  H   H779      1.0  0.71793  0.05278  0.56647  1.0000
  C   C644      1.0  0.90816  0.15910  0.34977  1.0000
  H   H780      1.0  0.92441  0.37997  0.60227  1.0000
  H   H781      1.0  0.78874  0.45968  0.50156  1.0000
  H   H782      1.0  0.74634  0.12109  0.57345  1.0000
  C   C645      1.0  0.83933  0.06876  0.57445  1.0000
  H   H783      1.0  0.92850  0.10536  0.37351  1.0000
  H   H784      1.0  0.58552  0.15528  0.41288  1.0000
  H   H785      1.0  0.01743  0.45338  0.59263  1.0000
  H   H786      1.0  0.89292  0.42996  0.34132  1.0000
  C   C646      1.0  0.87621  0.33769  0.61554  1.0000
  H   H787      1.0  0.94592  0.20918  0.65763  1.0000
  N   N46       1.0  0.62382  0.41667  0.62696  1.0000
  H   H788      1.0  0.81133  0.20192  0.35517  1.0000
  C   C647      1.0  0.94227  0.22023  0.41592  1.0000
  C   C648      1.0  0.96897  0.50208  0.34839  1.0000
  H   H789      1.0  0.61331  0.14323  0.47723  1.0000
  H   H790      1.0  0.96590  0.48760  0.56259  1.0000
  H   H791      1.0  0.64646  0.14941  0.44599  1.0000
  H   H792      1.0  0.78998  0.17174  0.54900  1.0000
  S   S179      1.0  0.65720  0.20103  0.38970  1.0000
  H   H793      1.0  0.76517  0.04404  0.35139  1.0000
  H   H794      1.0  0.56978  0.13198  0.52194  1.0000
  H   H795      1.0  0.91556  0.21990  0.40033  1.0000
  N   N47       1.0  0.99554  0.51596  0.59994  1.0000
  C   C649      1.0  0.86710  0.30202  0.63115  1.0000
  H   H796      1.0  0.88115  0.09162  0.65394  1.0000
  H   H797      1.0  0.89512  0.34702  0.36454  1.0000
  H   H798      1.0  0.99045  0.46036  0.62574  1.0000
  C   C650      1.0  0.54104  0.48680  0.38896  1.0000
  H   H799      1.0  0.60178  0.49651  0.42833  1.0000
  H   H800      1.0  0.59895  0.37543  0.65983  1.0000
  C   C651      1.0  0.62802  0.39268  0.65434  1.0000
  C   C652      1.0  0.97929  0.36186  0.40876  1.0000
  C   C653      1.0  0.73818  0.02858  0.57615  1.0000
  C   C654      1.0  0.54386  0.27427  0.55867  1.0000
  H   H801      1.0  0.57431  0.26576  0.54862  1.0000
  H   H802      1.0  0.88989  0.25304  0.65701  1.0000
  H   H803      1.0  0.66673  0.32649  0.34338  1.0000
  C   C655      1.0  0.80583  0.48450  0.48971  1.0000
  C   C656      1.0  0.54288  0.14817  0.53056  1.0000
  C   C657      1.0  0.56144  0.05101  0.64984  1.0000
  H   H804      1.0  0.58270  0.07430  0.63978  1.0000
  C   C658      1.0  0.54170  0.19121  0.53004  1.0000
  Fe  Fe95      1.0  0.71618  0.51654  0.36782  1.0000
  H   H805      1.0  0.02018  0.08160  0.48447  1.0000
  H   H806      1.0  0.54371  0.30849  0.56073  1.0000
  C   C659      1.0  0.59969  0.49165  0.62658  1.0000
  H   H807      1.0  0.54584  0.12928  0.66297  1.0000
  C   C660      1.0  0.54962  0.43787  0.63793  1.0000
  H   H808      1.0  0.58766  0.51687  0.36092  1.0000
  H   H809      1.0  0.81869  0.02282  0.62424  1.0000
  H   H810      1.0  0.54096  0.40612  0.64148  1.0000
  H   H811      1.0  0.73156  0.50604  0.50809  1.0000
  H   H812      1.0  0.02112  0.20447  0.42925  1.0000
  N   N48       1.0  0.77678  0.51209  0.47354  1.0000
  H   H813      1.0  0.72764  0.50366  0.44131  1.0000
  C   C661      1.0  0.76918  0.01943  0.36804  1.0000
  H   H814      1.0  0.82424  0.31983  0.84187  1.0000
  H   H815      1.0  0.62365  0.39678  0.82970  1.0000
  Fe  Fe96      1.0  0.96739  0.29137  0.75946  1.0000
  S   S180      1.0  0.97435  0.31627  0.80472  1.0000
  S   S181      1.0  0.91217  0.30628  0.73002  1.0000
  H   H816      1.0  0.91000  0.41960  0.87683  1.0000
  C   C662      1.0  0.97115  0.08892  0.94386  1.0000
  Fe  Fe97      1.0  0.97300  0.25016  0.81919  1.0000
  S   S182      1.0  0.93041  0.24264  0.85838  1.0000
  H   H817      1.0  0.88001  0.28708  0.81257  1.0000
  S   S183      1.0  0.96201  0.22570  0.77420  1.0000
  H   H818      1.0  0.61585  0.24718  0.80895  1.0000
  C   C663      1.0  0.00401  0.41736  0.84126  1.0000
  Fe  Fe98      1.0  0.78115  0.44231  0.86532  1.0000
  S   S184      1.0  0.78686  0.44434  0.81647  1.0000
  S   S185      1.0  0.79525  0.38184  0.88807  1.0000
  S   S186      1.0  0.53709  0.20203  0.93333  1.0000
  Fe  Fe99      1.0  0.72216  0.47138  0.81729  1.0000
  S   S187      1.0  0.66721  0.45913  0.78695  1.0000
  S   S188      1.0  0.71464  0.46574  0.86574  1.0000
  Fe  Fe100     1.0  0.78838  0.08948  0.69534  1.0000
  S   S189      1.0  0.80317  0.08385  0.74291  1.0000
  C   C664      1.0  0.89946  0.42037  0.67218  1.0000
  Fe  Fe101     1.0  0.73367  0.08629  0.75041  1.0000
  S   S190      1.0  0.71956  0.13297  0.78592  1.0000
  H   H819      1.0  0.57731  0.28322  0.74867  1.0000
  S   S191      1.0  0.71910  0.09533  0.70318  1.0000
  Fe  Fe102     1.0  0.81309  0.06661  0.94425  1.0000
  C   C665      1.0  0.57850  0.07372  0.69846  1.0000
  S   S192      1.0  0.86446  0.07322  0.91046  1.0000
  H   H820      1.0  0.91708  0.35732  0.89416  1.0000
  C   C666      1.0  0.61656  0.27996  0.81296  1.0000
  C   C667      1.0  0.80869  0.44442  0.73582  1.0000
  S   S193      1.0  0.74744  0.09143  0.94290  1.0000
  Fe  Fe103     1.0  0.59034  0.27917  0.68308  1.0000
  S   S194      1.0  0.64845  0.29873  0.70852  1.0000
  H   H821      1.0  0.56633  0.08308  0.72017  1.0000
  Fe  Fe104     1.0  0.56204  0.26681  0.93686  1.0000
  S   S195      1.0  0.56644  0.27489  0.88821  1.0000
  S   S196      1.0  0.61408  0.27382  0.97060  1.0000
  C   C668      1.0  0.76817  0.50653  0.74235  1.0000
  S   S197      1.0  0.54838  0.16016  0.85348  1.0000
  H   H822      1.0  0.83853  0.09898  0.81008  1.0000
  C   C669      1.0  0.67179  0.13960  0.80461  1.0000
  C   C670      1.0  0.66936  0.17008  0.82629  1.0000
  C   C671      1.0  0.63178  0.17669  0.84157  1.0000
  C   C672      1.0  0.59632  0.15295  0.83508  1.0000
  C   C673      1.0  0.59888  0.12222  0.81360  1.0000
  C   C674      1.0  0.63649  0.11554  0.79836  1.0000
  H   H823      1.0  0.69669  0.18868  0.83124  1.0000
  H   H824      1.0  0.63019  0.20018  0.85827  1.0000
  H   H825      1.0  0.57153  0.10366  0.80856  1.0000
  H   H826      1.0  0.63808  0.09197  0.78173  1.0000
  C   C675      1.0  0.66128  0.41325  0.76664  1.0000
  C   C676      1.0  0.62466  0.40719  0.75000  1.0000
  C   C677      1.0  0.61970  0.37171  0.73263  1.0000
  C   C678      1.0  0.65180  0.34249  0.73137  1.0000
  C   C679      1.0  0.68833  0.34858  0.74808  1.0000
  C   C680      1.0  0.69282  0.38347  0.76599  1.0000
  H   H827      1.0  0.60008  0.43014  0.75050  1.0000
  H   H828      1.0  0.59140  0.36739  0.71991  1.0000
  H   H829      1.0  0.71351  0.32649  0.74700  1.0000
  H   H830      1.0  0.72099  0.38771  0.77888  1.0000
  C   C681      1.0  0.58257  0.30544  0.80434  1.0000
  H   H831      1.0  0.98437  0.30643  0.69266  1.0000
  C   C682      1.0  0.55495  0.45818  0.88568  1.0000
  Fe  Fe105     1.0  0.72681  0.02619  0.95155  1.0000
  H   H832      1.0  0.01936  0.33341  0.85741  1.0000
  C   C683      1.0  0.88195  0.12069  0.89611  1.0000
  C   C684      1.0  0.86874  0.15835  0.90760  1.0000
  C   C685      1.0  0.88417  0.19547  0.89592  1.0000
  C   C686      1.0  0.91259  0.19519  0.87257  1.0000
  C   C687      1.0  0.92582  0.15749  0.86112  1.0000
  C   C688      1.0  0.91067  0.12038  0.87296  1.0000
  H   H833      1.0  0.84675  0.15893  0.92548  1.0000
  H   H834      1.0  0.87387  0.22456  0.90490  1.0000
  H   H835      1.0  0.94774  0.15696  0.84319  1.0000
  H   H836      1.0  0.92112  0.09133  0.86403  1.0000
  C   C689      1.0  0.90781  0.35120  0.70869  1.0000
  C   C690      1.0  0.77424  0.29830  0.81403  1.0000
  C   C691      1.0  0.59320  0.11969  0.96452  1.0000
  C   C692      1.0  0.84744  0.28399  0.80594  1.0000
  C   C693      1.0  0.94046  0.37987  0.70680  1.0000
  H   H837      1.0  0.61172  0.04789  0.89390  1.0000
  C   C694      1.0  0.93635  0.41424  0.68840  1.0000
  H   H838      1.0  0.96899  0.37535  0.71921  1.0000
  C   C695      1.0  0.89666  0.36467  0.95828  1.0000
  C   C696      1.0  0.88603  0.40432  0.94856  1.0000
  C   C697      1.0  0.85526  0.41002  0.92694  1.0000
  C   C698      1.0  0.83395  0.37604  0.91539  1.0000
  C   C699      1.0  0.84389  0.33637  0.92553  1.0000
  C   C700      1.0  0.87547  0.33060  0.94668  1.0000
  H   H839      1.0  0.90259  0.43073  0.95727  1.0000
  H   H840      1.0  0.84844  0.44064  0.91904  1.0000
  H   H841      1.0  0.82765  0.30987  0.91659  1.0000
  H   H842      1.0  0.88393  0.29981  0.95346  1.0000
  H   H843      1.0  0.01375  0.41463  0.91335  1.0000
  H   H844      1.0  0.79570  0.23676  0.69881  1.0000
  N   N49       1.0  0.78180  0.47515  0.72095  1.0000
  C   C701      1.0  0.99570  0.44843  0.82096  1.0000
  H   H845      1.0  0.00124  0.10634  0.94407  1.0000
  Fe  Fe106     1.0  0.71700  0.02623  0.69993  1.0000
  C   C702      1.0  0.59580  0.10665  0.93502  1.0000
  C   C703      1.0  0.79191  0.09727  0.84496  1.0000
  C   C704      1.0  0.65175  0.29608  0.82729  1.0000
  H   H846      1.0  0.84531  0.33573  0.69427  1.0000
  C   C705      1.0  0.86632  0.39243  0.67483  1.0000
  C   C706      1.0  0.63685  0.39680  0.97855  1.0000
  N   N50       1.0  0.78490  0.23258  0.74505  1.0000
  C   C707      1.0  0.80253  0.25398  0.71934  1.0000
  C   C708      1.0  0.80394  0.19101  0.74698  1.0000
  C   C709      1.0  0.73916  0.22679  0.73985  1.0000
  C   C710      1.0  0.79479  0.25639  0.77178  1.0000
  C   C711      1.0  0.83713  0.26169  0.78085  1.0000
  C   C712      1.0  0.73240  0.33068  0.94909  1.0000
  H   H847      1.0  0.78930  0.28552  0.71712  1.0000
  H   H848      1.0  0.83878  0.19179  0.74671  1.0000
  H   H849      1.0  0.79458  0.17136  0.72817  1.0000
  H   H850      1.0  0.79387  0.17495  0.76718  1.0000
  H   H851      1.0  0.72291  0.25645  0.73565  1.0000
  H   H852      1.0  0.73289  0.20720  0.72035  1.0000
  H   H853      1.0  0.72382  0.21114  0.75854  1.0000
  H   H854      1.0  0.86277  0.24892  0.76843  1.0000
  H   H855      1.0  0.71483  0.34072  0.93014  1.0000
  C   C713      1.0  0.76872  0.12375  0.86360  1.0000
  C   C714      1.0  0.73157  0.28948  0.95745  1.0000
  C   C715      1.0  0.96346  0.23146  0.67159  1.0000
  H   H856      1.0  0.67467  0.17299  0.91469  1.0000
  C   C716      1.0  0.80647  0.18367  0.84626  1.0000
  H   H857      1.0  0.72211  0.44386  0.72432  1.0000
  C   C717      1.0  0.80564  0.49597  0.69744  1.0000
  H   H858      1.0  0.56161  0.36999  0.80585  1.0000
  H   H859      1.0  0.95831  0.41189  0.91869  1.0000
  H   H860      1.0  0.97693  0.04806  0.76846  1.0000
  H   H861      1.0  0.74448  0.11233  0.87776  1.0000
  H   H862      1.0  0.73218  0.04634  0.87393  1.0000
  H   H863      1.0  0.87982  0.36629  0.77842  1.0000
  H   H864      1.0  0.62809  0.42482  0.96735  1.0000
  N   N51       1.0  0.78424  0.05218  0.84377  1.0000
  C   C718      1.0  0.62145  0.36400  0.82523  1.0000
  Fe  Fe107     1.0  0.75272  0.09682  0.99169  1.0000
  C   C719      1.0  0.62579  0.12710  0.91723  1.0000
  N   N52       1.0  0.54533  0.28726  0.78973  1.0000
  C   C720      1.0  0.92751  0.03820  0.96641  1.0000
  H   H865      1.0  0.87412  0.49244  0.98726  1.0000
  N   N53       1.0  0.78959  0.50458  0.97025  1.0000
  H   H866      1.0  0.84871  0.03887  0.85444  1.0000
  H   H867      1.0  0.78537  0.51701  0.68440  1.0000
  N   N54       1.0  0.56708  0.07434  0.92369  1.0000
  C   C721      1.0  0.75529  0.35913  0.96537  1.0000
  H   H868      1.0  0.02457  0.32382  0.89542  1.0000
  H   H869      1.0  0.96196  0.43601  0.68663  1.0000
  C   C722      1.0  0.77636  0.16620  0.86437  1.0000
  C   C723      1.0  0.82149  0.37525  0.75559  1.0000
  C   C724      1.0  0.76345  0.27546  0.78920  1.0000
  H   H870      1.0  0.83724  0.25709  0.72067  1.0000
  C   C725      1.0  0.81608  0.30238  0.82246  1.0000
  H   H871      1.0  0.73042  0.27325  0.78406  1.0000
  H   H872      1.0  0.62936  0.12020  0.89439  1.0000
  C   C726      1.0  0.56687  0.03816  0.94353  1.0000
  C   C727      1.0  0.87343  0.42833  0.76271  1.0000
  C   C728      1.0  0.02038  0.34875  0.87902  1.0000
  H   H873      1.0  0.71259  0.26770  0.94521  1.0000
  H   H874      1.0  0.60036  0.35758  0.94993  1.0000
  C   C729      1.0  0.77775  0.34649  0.98999  1.0000
  C   C730      1.0  0.87068  0.35776  0.69284  1.0000
  H   H875      1.0  0.59868  0.04613  0.70158  1.0000
  H   H876      1.0  0.95290  0.31679  0.90028  1.0000
  H   H877      1.0  0.73442  0.47255  0.95442  1.0000
  N   N55       1.0  0.54355  0.06612  0.67764  1.0000
  C   C731      1.0  0.97343  0.40499  0.86196  1.0000
  H   H878      1.0  0.75015  0.31305  0.82694  1.0000
  H   H879      1.0  0.93890  0.33058  0.86375  1.0000
  H   H880      1.0  0.75903  0.18563  0.87924  1.0000
  C   C732      1.0  0.76295  0.48862  0.94609  1.0000
  H   H881      1.0  0.78388  0.04517  0.89027  1.0000
  H   H882      1.0  0.57533  0.08359  0.87742  1.0000
  H   H883      1.0  0.63540  0.41326  0.67312  1.0000
  H   H884      1.0  0.94340  0.24036  0.69038  1.0000
  H   H885      1.0  0.75540  0.39113  0.95881  1.0000
  H   H886      1.0  0.81963  0.47304  0.68236  1.0000
  C   C733      1.0  0.76511  0.03587  0.87092  1.0000
  C   C734      1.0  0.75524  0.04336  0.81939  1.0000
  H   H887      1.0  0.81161  0.34364  0.75848  1.0000
  H   H888      1.0  0.57020  0.10680  0.97911  1.0000
  H   H889      1.0  0.78043  0.46632  0.93233  1.0000
  C   C735      1.0  0.84824  0.45621  0.74749  1.0000
  C   C736      1.0  0.82114  0.11644  0.82594  1.0000
  C   C737      1.0  0.93449  0.42634  0.86135  1.0000
  C   C738      1.0  0.55838  0.26363  0.76358  1.0000
  H   H890      1.0  0.53205  0.24706  0.99019  1.0000
  H   H891      1.0  0.96614  0.07514  0.92191  1.0000
  H   H892      1.0  0.76834  0.05468  0.79852  1.0000
  S   S198      1.0  0.81002  0.50490  0.87207  1.0000
  C   C739      1.0  0.82862  0.15890  0.82697  1.0000
  H   H893      1.0  0.89638  0.47290  0.84062  1.0000
  C   C740      1.0  0.92643  0.45722  0.84087  1.0000
  H   H894      1.0  0.75091  0.51344  0.93175  1.0000
  C   C741      1.0  0.85997  0.38799  0.76692  1.0000
  H   H895      1.0  0.76707  0.39069  0.73166  1.0000
  C   C742      1.0  0.63243  0.32234  0.98277  1.0000
  C   C743      1.0  0.61978  0.15026  0.97566  1.0000
  H   H896      1.0  0.54453  0.23324  0.81726  1.0000
  C   C744      1.0  0.79788  0.46950  0.99012  1.0000
  H   H897      1.0  0.57749  0.23611  0.76909  1.0000
  H   H898      1.0  0.59990  0.09854  0.69065  1.0000
  C   C745      1.0  0.56201  0.49904  0.87785  1.0000
  H   H899      1.0  0.81692  0.44527  0.97931  1.0000
  H   H900      1.0  0.55073  0.04453  0.96442  1.0000
  H   H901      1.0  0.55837  0.03338  0.88687  1.0000
  C   C746      1.0  0.58594  0.34811  0.81113  1.0000
  H   H902      1.0  0.57904  0.43517  0.88218  1.0000
  C   C747      1.0  0.65426  0.33810  0.83331  1.0000
  H   H903      1.0  0.72451  0.05904  0.82246  1.0000
  H   H904      1.0  0.75142  0.43282  0.69141  1.0000
  H   H905      1.0  0.90357  0.43814  0.77126  1.0000
  N   N56       1.0  0.98168  0.37307  0.88433  1.0000
  H   H906      1.0  0.81304  0.21640  0.84738  1.0000
  H   H907      1.0  0.68155  0.35074  0.84433  1.0000
  H   H908      1.0  0.85988  0.48731  0.74526  1.0000
  C   C748      1.0  0.79618  0.40279  0.74009  1.0000
  C   C749      1.0  0.94618  0.34338  0.88565  1.0000
  C   C750      1.0  0.86915  0.51408  0.96974  1.0000
  H   H909      1.0  0.85222  0.17264  0.81308  1.0000
  H   H910      1.0  0.67696  0.27576  0.83392  1.0000
  H   H911      1.0  0.74983  0.49204  0.76023  1.0000
  H   H912      1.0  0.95063  0.49253  0.80507  1.0000
  S   S199      1.0  0.93816  0.35984  0.98369  1.0000
  C   C751      1.0  0.62105  0.35875  0.96864  1.0000
  S   S200      1.0  0.57346  0.21199  0.68431  1.0000
  C   C752      1.0  0.00236  0.02478  0.96386  1.0000
  H   H913      1.0  0.90256  0.06208  0.96671  1.0000
  H   H914      1.0  0.94605  0.11247  0.94666  1.0000
  C   C753      1.0  0.64926  0.16912  0.95779  1.0000
  Fe  Fe108     1.0  0.53633  0.21239  0.88514  1.0000
  C   C754      1.0  0.57879  0.05922  0.89424  1.0000
  C   C755      1.0  0.65209  0.15776  0.92861  1.0000
  C   C756      1.0  0.95699  0.46831  0.82075  1.0000
  C   C757      1.0  0.98633  0.39336  0.91305  1.0000
  N   N57       1.0  0.96992  0.05707  0.96710  1.0000
  H   H915      1.0  0.59947  0.02825  0.94872  1.0000
  H   H916      1.0  0.99068  0.37042  0.93085  1.0000
  C   C758      1.0  0.75404  0.27638  0.98194  1.0000
  S   S201      1.0  0.80997  0.14482  0.66873  1.0000
  H   H917      1.0  0.72447  0.48079  0.69595  1.0000
  C   C759      1.0  0.00342  0.29390  0.67451  1.0000
  H   H918      1.0  0.99062  0.21419  0.68083  1.0000
  S   S202      1.0  0.78566  0.02047  0.68875  1.0000
  H   H919      1.0  0.83173  0.51538  0.70589  1.0000
  C   C760      1.0  0.74339  0.45707  0.70757  1.0000
  H   H920      1.0  0.92283  0.01953  0.94629  1.0000
  H   H921      1.0  0.66959  0.19299  0.96658  1.0000
  C   C761      1.0  0.00198  0.02553  0.76942  1.0000
  H   H922      1.0  0.76827  0.45463  0.99752  1.0000
  H   H923      1.0  0.75147  0.24404  0.98724  1.0000
  H   H924      1.0  0.53086  0.25163  0.75111  1.0000
  C   C762      1.0  0.97575  0.07807  0.99551  1.0000
  Fe  Fe109     1.0  0.81020  0.50931  0.82342  1.0000
  S   S203      1.0  0.82057  0.07705  0.99232  1.0000
  H   H925      1.0  0.59182  0.50787  0.86834  1.0000
  H   H926      1.0  0.95450  0.10509  0.99786  1.0000
  H   H927      1.0  0.83611  0.03279  0.81637  1.0000
  H   H928      1.0  0.00845  0.08955  0.99792  1.0000
  C   C763      1.0  0.82386  0.02901  0.83883  1.0000
  H   H929      1.0  0.01962  0.45721  0.80536  1.0000
  H   H930      1.0  0.52838  0.34096  0.76479  1.0000
  H   H931      1.0  0.61739  0.15980  0.99822  1.0000
  C   C764      1.0  0.77820  0.30461  0.99890  1.0000
  C   C765      1.0  0.88416  0.79210  0.02740  1.0000
  S   S204      1.0  0.67548  0.54983  0.14101  1.0000
  C   C766      1.0  0.97204  0.97690  0.22957  1.0000
  H   H932      1.0  0.95481  0.65003  0.03918  1.0000
  H   H933      1.0  0.86253  0.66767  0.10596  1.0000
  S   S205      1.0  0.82327  0.56208  0.29040  1.0000
  H   H934      1.0  0.83092  0.59946  0.09422  1.0000
  S   S206      1.0  0.69582  0.97084  0.16754  1.0000
  S   S207      1.0  0.84186  0.95414  0.27599  1.0000
  C   C767      1.0  0.90980  0.60065  0.04457  1.0000
  C   C768      1.0  0.92776  0.63922  0.05116  1.0000
  S   S208      1.0  0.57270  0.70805  0.10008  1.0000
  S   S209      1.0  0.56858  0.83414  0.21300  1.0000
  S   S210      1.0  0.00630  0.80266  0.06389  1.0000
  S   S211      1.0  0.93218  0.71233  0.08197  1.0000
  H   H935      1.0  0.55041  0.74621  0.03015  1.0000
  C   C769      1.0  0.86938  0.93992  0.01806  1.0000
  S   S212      1.0  0.73129  0.99814  0.24873  1.0000
  H   H936      1.0  0.81356  0.01432  0.11220  1.0000
  S   S213      1.0  0.99855  0.78898  0.30535  1.0000
  S   S214      1.0  0.53367  0.73041  0.17943  1.0000
  C   C770      1.0  0.76965  0.96675  0.33098  1.0000
  S   S215      1.0  0.96718  0.81990  0.22465  1.0000
  H   H937      1.0  0.97673  0.68766  0.17841  1.0000
  S   S216      1.0  0.80754  0.99685  0.19980  1.0000
  C   C771      1.0  0.92497  0.89067  0.02966  1.0000
  C   C772      1.0  0.89015  0.91445  0.03817  1.0000
  H   H938      1.0  0.94076  0.87128  0.04537  1.0000
  H   H939      1.0  0.87934  0.91322  0.06046  1.0000
  C   C773      1.0  0.87614  0.91722  0.26076  1.0000
  C   C774      1.0  0.90466  0.89729  0.27923  1.0000
  C   C775      1.0  0.93245  0.86760  0.26830  1.0000
  C   C776      1.0  0.93189  0.85703  0.23879  1.0000
  C   C777      1.0  0.90351  0.87716  0.22015  1.0000
  C   C778      1.0  0.87572  0.90719  0.23108  1.0000
  H   H940      1.0  0.90538  0.90493  0.30216  1.0000
  H   H941      1.0  0.95455  0.85335  0.28281  1.0000
  H   H942      1.0  0.90293  0.86948  0.19723  1.0000
  H   H943      1.0  0.85389  0.92226  0.21659  1.0000
  C   C779      1.0  0.66033  0.93306  0.18038  1.0000
  C   C780      1.0  0.66033  0.92072  0.20953  1.0000
  C   C781      1.0  0.63217  0.89032  0.21917  1.0000
  C   C782      1.0  0.60391  0.87169  0.19974  1.0000
  C   C783      1.0  0.60397  0.88380  0.17049  1.0000
  C   C784      1.0  0.63204  0.91442  0.16089  1.0000
  H   H944      1.0  0.68226  0.93423  0.22470  1.0000
  H   H945      1.0  0.63243  0.88115  0.24182  1.0000
  H   H946      1.0  0.58226  0.86999  0.15529  1.0000
  H   H947      1.0  0.63185  0.92375  0.13828  1.0000
  H   H948      1.0  0.81598  0.74521  0.02696  1.0000
  C   C785      1.0  0.86473  0.59353  0.30367  1.0000
  C   C786      1.0  0.88589  0.61982  0.28438  1.0000
  C   C787      1.0  0.91881  0.64535  0.29426  1.0000
  C   C788      1.0  0.81494  0.77165  0.01160  1.0000
  H   H949      1.0  0.87055  0.70335  0.01757  1.0000
  C   C789      1.0  0.54304  0.82018  0.05565  1.0000
  H   H950      1.0  0.87634  0.62099  0.26177  1.0000
  H   H951      1.0  0.93415  0.66603  0.27928  1.0000
  H   H952      1.0  0.01680  0.59507  0.29828  1.0000
  H   H953      1.0  0.97887  0.65916  0.12815  1.0000
  C   C790      1.0  0.64694  0.59344  0.12895  1.0000
  C   C791      1.0  0.61762  0.61159  0.14774  1.0000
  C   C792      1.0  0.59443  0.64635  0.13902  1.0000
  C   C793      1.0  0.60057  0.66360  0.11145  1.0000
  C   C794      1.0  0.63000  0.64555  0.09268  1.0000
  C   C795      1.0  0.65300  0.61055  0.10133  1.0000
  H   H954      1.0  0.61251  0.59846  0.16908  1.0000
  H   H955      1.0  0.57150  0.65938  0.15357  1.0000
  H   H956      1.0  0.63495  0.65856  0.07129  1.0000
  H   H957      1.0  0.67548  0.59695  0.08662  1.0000
  C   C796      1.0  0.87482  0.58607  0.06003  1.0000
  C   C797      1.0  0.85784  0.61041  0.08218  1.0000
  C   C798      1.0  0.87581  0.64902  0.08879  1.0000
  C   C799      1.0  0.91076  0.66355  0.07329  1.0000
  H   H958      1.0  0.92320  0.58190  0.02748  1.0000
  S   S217      1.0  0.00732  0.71352  0.25812  1.0000
  H   H959      1.0  0.91617  0.80202  0.02077  1.0000
  C   C800      1.0  0.01252  0.65897  0.12552  1.0000
  N   N58       1.0  0.67394  0.75530  0.17385  1.0000
  C   C801      1.0  0.64276  0.77270  0.15313  1.0000
  C   C802      1.0  0.69366  0.71926  0.15944  1.0000
  C   C803      1.0  0.65056  0.74089  0.19980  1.0000
  C   C804      1.0  0.70675  0.78515  0.18299  1.0000
  C   C805      1.0  0.70735  0.82688  0.17352  1.0000
  C   C806      1.0  0.73932  0.77284  0.20230  1.0000
  C   C807      1.0  0.73862  0.85425  0.18290  1.0000
  C   C808      1.0  0.77037  0.80051  0.21157  1.0000
  C   C809      1.0  0.76996  0.84116  0.20193  1.0000
  H   H960      1.0  0.65793  0.78359  0.13275  1.0000
  H   H961      1.0  0.61896  0.74932  0.14645  1.0000
  H   H962      1.0  0.62496  0.79854  0.16310  1.0000
  H   H963      1.0  0.71319  0.72911  0.14062  1.0000
  H   H964      1.0  0.66973  0.69711  0.15096  1.0000
  H   H965      1.0  0.71404  0.70135  0.17443  1.0000
  H   H966      1.0  0.62532  0.71864  0.19377  1.0000
  H   H967      1.0  0.67107  0.72489  0.21577  1.0000
  H   H968      1.0  0.63555  0.76729  0.21133  1.0000
  H   H969      1.0  0.68385  0.83941  0.15909  1.0000
  H   H970      1.0  0.74087  0.74173  0.21059  1.0000
  H   H971      1.0  0.73829  0.88606  0.17559  1.0000
  H   H972      1.0  0.79483  0.79052  0.22646  1.0000
  H   H973      1.0  0.79387  0.86264  0.20935  1.0000
  C   C810      1.0  0.97898  0.71715  0.16618  1.0000
  Fe  Fe110     1.0  0.00615  0.72023  0.30660  1.0000
  H   H974      1.0  0.60581  0.64357  0.32783  1.0000
  S   S218      1.0  0.98352  0.74549  0.00665  1.0000
  H   H975      1.0  0.88780  0.76444  0.04142  1.0000
  S   S219      1.0  0.82553  0.96922  0.02938  1.0000
  H   H976      1.0  0.76089  0.00438  0.07052  1.0000
  Fe  Fe111     1.0  0.80198  0.99608  0.24819  1.0000
  C   C811      1.0  0.01584  0.98410  0.22695  1.0000
  H   H977      1.0  0.75414  0.54857  0.21215  1.0000
  H   H978      1.0  0.55672  0.94574  0.19879  1.0000
  Fe  Fe112     1.0  0.00556  0.78291  0.25709  1.0000
  C   C812      1.0  0.53321  0.77013  0.01746  1.0000
  H   H979      1.0  0.55641  0.78560  0.00304  1.0000
  H   H980      1.0  0.72199  0.01032  0.09783  1.0000
  Fe  Fe113     1.0  0.98589  0.73735  0.05498  1.0000
  C   C813      1.0  0.54479  0.97673  0.19981  1.0000
  H   H981      1.0  0.55851  0.79780  0.07061  1.0000
  H   H982      1.0  0.00401  0.90865  0.20137  1.0000
  Fe  Fe114     1.0  0.73740  0.00385  0.20029  1.0000
  C   C814      1.0  0.93111  0.64458  0.32353  1.0000
  S   S220      1.0  0.73161  0.52798  0.06365  1.0000
  H   H983      1.0  0.90992  0.00302  0.23207  1.0000
  H   H984      1.0  0.74570  0.52026  0.17933  1.0000
  N   N59       1.0  0.85735  0.78407  0.00155  1.0000
  H   H985      1.0  0.95577  0.71671  0.14796  1.0000
  H   H986      1.0  0.76931  0.98857  0.31230  1.0000
  H   H987      1.0  0.78443  0.93769  0.32321  1.0000
  H   H988      1.0  0.56892  0.83443  0.04302  1.0000
  H   H989      1.0  0.87107  0.81693  0.04142  1.0000
  H   H990      1.0  0.79895  0.79712  0.02345  1.0000
  C   C815      1.0  0.02208  0.76214  0.13763  1.0000
  Fe  Fe115     1.0  0.00855  0.80891  0.01532  1.0000
  H   H991      1.0  0.00812  0.60410  0.09916  1.0000
  C   C816      1.0  0.57382  0.00745  0.20723  1.0000
  H   H992      1.0  0.00972  0.90825  0.25391  1.0000
  H   H993      1.0  0.01011  0.78916  0.15005  1.0000
  H   H994      1.0  0.95964  0.94600  0.23107  1.0000
  H   H995      1.0  0.96830  0.74225  0.18101  1.0000
  H   H996      1.0  0.98064  0.98760  0.00050  1.0000
  H   H997      1.0  0.78435  0.54901  0.00478  1.0000
  H   H998      1.0  0.00158  0.75791  0.11818  1.0000
  H   H999      1.0  0.54589  0.85886  0.00115  1.0000
  C   C817      1.0  0.53349  0.52051  0.12912  1.0000
  C   C818      1.0  0.94328  0.00937  0.23013  1.0000
  H   H1000     1.0  0.60641  0.99943  0.21126  1.0000
  S   S221      1.0  0.85330  0.53751  0.05078  1.0000
  N   N60       1.0  0.02245  0.72434  0.15558  1.0000
  H   H1001     1.0  0.53537  0.72822  0.26477  1.0000
  C   C819      1.0  0.93927  0.89219  0.00092  1.0000
  Fe  Fe116     1.0  0.78563  0.52427  0.32257  1.0000
  H   H1002     1.0  0.56726  0.52386  0.12891  1.0000
  H   H1003     1.0  0.70565  0.52173  0.20696  1.0000
  H   H1004     1.0  0.83902  0.84827  0.99944  1.0000
  C   C820      1.0  0.74011  0.51972  0.20322  1.0000
  S   S222      1.0  0.54025  0.78641  0.62900  1.0000
  H   H1005     1.0  0.89721  0.63274  0.50628  1.0000
  S   S223      1.0  0.67581  0.98512  0.42071  1.0000
  S   S224      1.0  0.82651  0.97383  0.52858  1.0000
  H   H1006     1.0  0.95704  0.67816  0.52023  1.0000
  S   S225      1.0  0.56684  0.83346  0.46500  1.0000
  C   C821      1.0  0.57803  0.00837  0.48767  1.0000
  C   C822      1.0  0.52976  0.54831  0.35872  1.0000
  C   C823      1.0  0.86780  0.94203  0.51609  1.0000
  C   C824      1.0  0.88400  0.94655  0.48802  1.0000
  C   C825      1.0  0.91734  0.92161  0.47866  1.0000
  H   H1007     1.0  0.87138  0.96977  0.47365  1.0000
  H   H1008     1.0  0.92994  0.92573  0.45702  1.0000
  C   C826      1.0  0.64665  0.94252  0.43345  1.0000
  C   C827      1.0  0.65095  0.92784  0.46191  1.0000
  C   C828      1.0  0.62638  0.89432  0.47138  1.0000
  C   C829      1.0  0.59781  0.87500  0.45238  1.0000
  C   C830      1.0  0.59384  0.88957  0.42387  1.0000
  C   C831      1.0  0.61801  0.92330  0.41451  1.0000
  H   H1009     1.0  0.67307  0.94230  0.47666  1.0000
  H   H1010     1.0  0.62970  0.88317  0.49346  1.0000
  H   H1011     1.0  0.57209  0.87494  0.40902  1.0000
  H   H1012     1.0  0.61465  0.93438  0.39242  1.0000
  C   C832      1.0  0.63440  0.58637  0.38680  1.0000
  C   C833      1.0  0.60618  0.60315  0.40703  1.0000
  C   C834      1.0  0.57850  0.63505  0.39899  1.0000
  C   C835      1.0  0.57810  0.64971  0.37036  1.0000
  C   C836      1.0  0.60608  0.63262  0.35006  1.0000
  C   C837      1.0  0.63436  0.60135  0.35827  1.0000
  H   H1013     1.0  0.60535  0.59106  0.42893  1.0000
  H   H1014     1.0  0.55669  0.64746  0.41471  1.0000
  H   H1015     1.0  0.96528  0.76432  0.60591  1.0000
  H   H1016     1.0  0.94455  0.63911  0.60899  1.0000
  C   C838      1.0  0.61294  0.62978  0.65467  1.0000
  S   S226      1.0  0.84513  0.57691  0.53899  1.0000
  H   H1017     1.0  0.88528  0.59347  0.59506  1.0000
  C   C839      1.0  0.90758  0.63397  0.52872  1.0000
  S   S227      1.0  0.56806  0.67400  0.61321  1.0000
  H   H1018     1.0  0.01671  0.94139  0.41430  1.0000
  S   S228      1.0  0.99850  0.69218  0.57666  1.0000
  Fe  Fe117     1.0  0.01399  0.81508  0.51016  1.0000
  S   S229      1.0  0.97624  0.86111  0.48383  1.0000
  C   C840      1.0  0.76343  0.90253  0.41248  1.0000
  C   C841      1.0  0.93469  0.89172  0.49713  1.0000
  C   C842      1.0  0.91881  0.88724  0.52532  1.0000
  C   C843      1.0  0.88554  0.91248  0.53478  1.0000
  H   H1019     1.0  0.93187  0.86421  0.53971  1.0000
  H   H1020     1.0  0.87322  0.90884  0.55655  1.0000
  S   S230      1.0  0.70486  0.54284  0.65278  1.0000
  C   C844      1.0  0.66870  0.58127  0.64195  1.0000
  C   C845      1.0  0.66377  0.59188  0.61266  1.0000
  C   C846      1.0  0.63315  0.62077  0.60438  1.0000
  C   C847      1.0  0.60768  0.63990  0.62529  1.0000
  H   H1021     1.0  0.01574  0.93770  0.56984  1.0000
  H   H1022     1.0  0.86330  0.53094  0.47011  1.0000
  H   H1023     1.0  0.68314  0.57748  0.59631  1.0000
  H   H1024     1.0  0.62918  0.62836  0.58160  1.0000
  H   H1025     1.0  0.80808  0.99176  0.59216  1.0000
  H   H1026     1.0  0.91701  0.01821  0.52409  1.0000
  C   C848      1.0  0.88717  0.60967  0.54969  1.0000
  C   C849      1.0  0.90079  0.61169  0.57865  1.0000
  C   C850      1.0  0.93454  0.63751  0.58650  1.0000
  C   C851      1.0  0.95517  0.66154  0.56555  1.0000
  C   C852      1.0  0.94144  0.65984  0.53659  1.0000
  H   H1027     1.0  0.65574  0.58856  0.34243  1.0000
  H   H1028     1.0  0.74095  0.57230  0.43948  1.0000
  S   S231      1.0  0.54098  0.68667  0.35835  1.0000
  C   C853      1.0  0.57803  0.64033  0.49324  1.0000
  H   H1029     1.0  0.62846  0.64512  0.46229  1.0000
  C   C854      1.0  0.53621  0.01337  0.49559  1.0000
  C   C855      1.0  0.97747  0.98902  0.52875  1.0000
  C   C856      1.0  0.96194  0.75853  0.62966  1.0000
  C   C857      1.0  0.02121  0.99055  0.52257  1.0000
  C   C858      1.0  0.01833  0.87509  0.41172  1.0000
  C   C859      1.0  0.00773  0.81806  0.64212  1.0000
  C   C860      1.0  0.55041  0.70557  0.51244  1.0000
  C   C861      1.0  0.56792  0.52105  0.62959  1.0000
  H   H1030     1.0  0.71715  0.00614  0.58727  1.0000
  C   C862      1.0  0.91056  0.61762  0.34270  1.0000
  H   H1031     1.0  0.59530  0.98160  0.49519  1.0000
  H   H1032     1.0  0.96011  0.52110  0.63992  1.0000
  C   C863      1.0  0.77475  0.57450  0.44107  1.0000
  H   H1033     1.0  0.77549  0.62801  0.41336  1.0000
  H   H1034     1.0  0.98618  0.79201  0.44797  1.0000
  H   H1035     1.0  0.98767  0.87413  0.40167  1.0000
  C   C864      1.0  0.58014  0.72616  0.49468  1.0000
  C   C865      1.0  0.02725  0.53831  0.58245  1.0000
  H   H1036     1.0  0.57742  0.60696  0.49267  1.0000
  H   H1037     1.0  0.85278  0.63559  0.41483  1.0000
  S   S232      1.0  0.78335  0.53700  0.37031  1.0000
  C   C866      1.0  0.83774  0.61086  0.42674  1.0000
  H   H1038     1.0  0.58222  0.75935  0.49444  1.0000
  H   H1039     1.0  0.99365  0.81991  0.36982  1.0000
  C   C867      1.0  0.61509  0.93198  0.65975  1.0000
  H   H1040     1.0  0.57500  0.55348  0.62657  1.0000
  H   H1041     1.0  0.86543  0.95470  0.38537  1.0000
  C   C868      1.0  0.98007  0.84470  0.62669  1.0000
  C   C869      1.0  0.60768  0.70451  0.47673  1.0000
  H   H1042     1.0  0.61435  0.94283  0.63751  1.0000
  S   S233      1.0  0.66778  0.54556  0.39778  1.0000
  H   H1043     1.0  0.54177  0.57094  0.34352  1.0000
  H   H1044     1.0  0.77306  0.99048  0.62222  1.0000
  H   H1045     1.0  0.86179  0.57200  0.34796  1.0000
  N   N61       1.0  0.02317  0.79770  0.40923  1.0000
  S   S234      1.0  0.53271  0.79919  0.38535  1.0000
  H   H1046     1.0  0.93246  0.77303  0.63750  1.0000
  H   H1047     1.0  0.86863  0.90348  0.42369  1.0000
  C   C870      1.0  0.86186  0.58321  0.44279  1.0000
  H   H1048     1.0  0.72215  0.54850  0.48438  1.0000
  H   H1049     1.0  0.00378  0.76581  0.37016  1.0000
  H   H1050     1.0  0.95882  0.81509  0.41827  1.0000
  C   C871      1.0  0.01636  0.79627  0.37736  1.0000
  Fe  Fe118     1.0  0.72505  0.01660  0.44868  1.0000
  C   C872      1.0  0.79836  0.54560  0.45756  1.0000
  H   H1051     1.0  0.73625  0.96000  0.33595  1.0000
  C   C873      1.0  0.84268  0.55104  0.45805  1.0000
  S   S235      1.0  0.97199  0.67659  0.33690  1.0000
  Fe  Fe119     1.0  0.79328  0.01368  0.49515  1.0000
  H   H1052     1.0  0.62978  0.72120  0.46321  1.0000
  H   H1053     1.0  0.91989  0.61672  0.36537  1.0000
  H   H1054     1.0  0.02009  0.59967  0.60237  1.0000
  C   C874      1.0  0.60677  0.66168  0.47610  1.0000
  N   N62       1.0  0.99922  0.77354  0.64610  1.0000
  H   H1055     1.0  0.95758  0.72461  0.63207  1.0000
  H   H1056     1.0  0.96814  0.76084  0.41816  1.0000
  C   C875      1.0  0.02489  0.90357  0.63633  1.0000
  S   S236      1.0  0.81895  0.54276  0.62027  1.0000
  C   C876      1.0  0.83387  0.99954  0.34570  1.0000
  H   H1057     1.0  0.96328  0.96410  0.54073  1.0000
  H   H1058     1.0  0.56498  0.77966  0.53956  1.0000
  S   S237      1.0  0.01958  0.74734  0.49988  1.0000
  C   C877      1.0  0.79425  0.60663  0.42600  1.0000
  C   C878      1.0  0.79361  0.01140  0.60932  1.0000
  H   H1059     1.0  0.57183  0.88173  0.65153  1.0000
  H   H1060     1.0  0.96691  0.90654  0.61238  1.0000
  H   H1061     1.0  0.76443  0.55127  0.51019  1.0000
  N   N63       1.0  0.79287  0.98381  0.35637  1.0000
  C   C879      1.0  0.74740  0.53024  0.49494  1.0000
  C   C880      1.0  0.79698  0.95185  0.37922  1.0000
  H   H1062     1.0  0.89567  0.58670  0.44353  1.0000
  H   H1063     1.0  0.72978  0.93909  0.38210  1.0000
  S   S238      1.0  0.79286  0.99861  0.44765  1.0000
  H   H1064     1.0  0.75391  0.01208  0.55794  1.0000
  H   H1065     1.0  0.80420  0.87029  0.44209  1.0000
  C   C881      1.0  0.54597  0.75616  0.55116  1.0000
  C   C882      1.0  0.83858  0.91111  0.41398  1.0000
  C   C883      1.0  0.76075  0.93166  0.39016  1.0000
  H   H1066     1.0  0.95140  0.83383  0.61670  1.0000
  H   H1067     1.0  0.96349  0.56735  0.61986  1.0000
  C   C884      1.0  0.80228  0.89230  0.42440  1.0000
  H   H1068     1.0  0.56764  0.73743  0.56489  1.0000
  H   H1069     1.0  0.00876  0.54867  0.63987  1.0000
  C   C885      1.0  0.55012  0.66176  0.51120  1.0000
  Fe  Fe120     1.0  0.81550  0.53383  0.57199  1.0000
  C   C886      1.0  0.98232  0.79117  0.42393  1.0000
  S   S239      1.0  0.01871  0.80860  0.55861  1.0000
  H   H1070     1.0  0.73503  0.88854  0.42097  1.0000
  C   C887      1.0  0.83622  0.94058  0.39180  1.0000
  H   H1071     1.0  0.00790  0.90820  0.53667  1.0000
  H   H1072     1.0  0.94504  0.53685  0.57250  1.0000
  C   C888      1.0  0.98872  0.88679  0.62393  1.0000
  H   H1073     1.0  0.99887  0.53727  0.38251  1.0000
  C   C889      1.0  0.98161  0.53946  0.62597  1.0000
  H   H1074     1.0  0.94690  0.52679  0.34473  1.0000
  C   C890      1.0  0.64314  0.60027  0.66292  1.0000
  Fe  Fe121     1.0  0.53135  0.71967  0.64058  1.0000
  H   H1075     1.0  0.73725  0.01061  0.37553  1.0000
  H   H1076     1.0  0.85349  0.97415  0.33682  1.0000
  H   H1077     1.0  0.52887  0.64333  0.52402  1.0000
  C   C891      1.0  0.87748  0.59228  0.33286  1.0000
  H   H1078     1.0  0.85171  0.01581  0.36319  1.0000
  Fe  Fe122     1.0  0.75275  0.51895  0.62062  1.0000
  H   H1079     1.0  0.92507  0.58509  0.76766  1.0000
  S   S240      1.0  0.72382  0.58196  0.89614  1.0000
  C   C892      1.0  0.98048  0.86683  0.89765  1.0000
  H   H1080     1.0  0.96110  0.65082  0.77945  1.0000
  H   H1081     1.0  0.89231  0.65813  0.85952  1.0000
  S   S241      1.0  0.86327  0.53701  0.79728  1.0000
  S   S242      1.0  0.83258  0.97336  0.76670  1.0000
  H   H1082     1.0  0.85567  0.59229  0.84746  1.0000
  S   S243      1.0  0.67464  0.00160  0.92256  1.0000
  C   C893      1.0  0.90516  0.53272  0.95837  1.0000
  C   C894      1.0  0.91760  0.60104  0.78768  1.0000
  Fe  Fe123     1.0  0.00798  0.80584  0.75312  1.0000
  S   S244      1.0  0.53441  0.72857  0.94322  1.0000
  Fe  Fe124     1.0  0.74388  0.52863  0.86789  1.0000
  C   C895      1.0  0.93808  0.63836  0.79432  1.0000
  H   H1083     1.0  0.53751  0.55984  0.87560  1.0000
  S   S245      1.0  0.98390  0.74118  0.74863  1.0000
  S   S246      1.0  0.95484  0.70591  0.82929  1.0000
  H   H1084     1.0  0.73620  0.52244  0.99604  1.0000
  S   S247      1.0  0.98227  0.85791  0.72567  1.0000
  H   H1085     1.0  0.74780  0.53033  0.73205  1.0000
  H   H1086     1.0  0.96084  0.97405  0.76224  1.0000
  H   H1087     1.0  0.01307  0.72577  0.92861  1.0000
  H   H1088     1.0  0.59323  0.64404  0.67092  1.0000
  H   H1089     1.0  0.86798  0.96067  0.97361  1.0000
  H   H1090     1.0  0.92964  0.91934  0.95864  1.0000
  C   C896      1.0  0.65008  0.95396  0.93029  1.0000
  C   C897      1.0  0.66190  0.93060  0.95447  1.0000
  C   C898      1.0  0.64208  0.89267  0.96002  1.0000
  C   C899      1.0  0.61030  0.87771  0.94150  1.0000
  C   C900      1.0  0.59801  0.90132  0.91749  1.0000
  C   C901      1.0  0.61789  0.93936  0.91193  1.0000
  H   H1091     1.0  0.68654  0.94159  0.96879  1.0000
  H   H1092     1.0  0.99675  0.71431  0.89185  1.0000
  H   H1093     1.0  0.57362  0.89008  0.90308  1.0000
  H   H1094     1.0  0.60865  0.95726  0.89313  1.0000
  C   C902      1.0  0.87275  0.94020  0.75429  1.0000
  C   C903      1.0  0.89055  0.91191  0.77390  1.0000
  C   C904      1.0  0.92347  0.88583  0.76522  1.0000
  C   C905      1.0  0.93917  0.88820  0.73689  1.0000
  C   C906      1.0  0.92146  0.91651  0.71728  1.0000
  C   C907      1.0  0.88817  0.94227  0.72586  1.0000
  H   H1095     1.0  0.87885  0.91024  0.79594  1.0000
  H   H1096     1.0  0.93701  0.86430  0.78053  1.0000
  H   H1097     1.0  0.93363  0.91864  0.69537  1.0000
  H   H1098     1.0  0.87485  0.96406  0.71063  1.0000
  C   C908      1.0  0.64008  0.95259  0.68046  1.0000
  C   C909      1.0  0.64053  0.93843  0.70920  1.0000
  C   C910      1.0  0.61602  0.90412  0.71715  1.0000
  C   C911      1.0  0.59127  0.88331  0.69643  1.0000
  C   C912      1.0  0.99204  0.79842  0.87833  1.0000
  H   H1099     1.0  0.01595  0.92292  0.76364  1.0000
  H   H1100     1.0  0.65931  0.95420  0.72540  1.0000
  H   H1101     1.0  0.61630  0.89365  0.73949  1.0000
  C   C913      1.0  0.55394  0.74385  0.75935  1.0000
  C   C914      1.0  0.67348  0.60210  0.88929  1.0000
  C   C915      1.0  0.65816  0.63413  0.90680  1.0000
  C   C916      1.0  0.61844  0.65134  0.90132  1.0000
  C   C917      1.0  0.59394  0.63661  0.87822  1.0000
  C   C918      1.0  0.60961  0.60506  0.86042  1.0000
  C   C919      1.0  0.64916  0.58766  0.86601  1.0000
  H   H1102     1.0  0.67694  0.64556  0.92475  1.0000
  H   H1103     1.0  0.60674  0.67581  0.91505  1.0000
  H   H1104     1.0  0.59101  0.59381  0.84231  1.0000
  H   H1105     1.0  0.66079  0.56314  0.85228  1.0000
  C   C920      1.0  0.88774  0.58424  0.80670  1.0000
  C   C921      1.0  0.87843  0.60511  0.83258  1.0000
  C   C922      1.0  0.89925  0.64233  0.83938  1.0000
  C   C923      1.0  0.92914  0.65912  0.82024  1.0000
  N   N64       1.0  0.75885  0.68395  0.82724  1.0000
  C   C924      1.0  0.75246  0.64085  0.81746  1.0000
  C   C925      1.0  0.79604  0.70044  0.81158  1.0000
  C   C926      1.0  0.76905  0.68365  0.85880  1.0000
  C   C927      1.0  0.71992  0.70787  0.82214  1.0000
  C   C928      1.0  0.68185  0.69601  0.83580  1.0000
  C   C929      1.0  0.71827  0.74296  0.80361  1.0000
  C   C930      1.0  0.64464  0.71794  0.83145  1.0000
  C   C931      1.0  0.68080  0.76466  0.79936  1.0000
  C   C932      1.0  0.64415  0.75227  0.81334  1.0000
  H   H1106     1.0  0.74254  0.63958  0.79420  1.0000
  H   H1107     1.0  0.78171  0.62229  0.81968  1.0000
  H   H1108     1.0  0.72804  0.62468  0.83045  1.0000
  H   H1109     1.0  0.79127  0.69985  0.78755  1.0000
  H   H1110     1.0  0.82473  0.68174  0.81585  1.0000
  H   H1111     1.0  0.80361  0.73248  0.81853  1.0000
  H   H1112     1.0  0.79896  0.66705  0.86329  1.0000
  H   H1113     1.0  0.77211  0.71557  0.86743  1.0000
  H   H1114     1.0  0.74465  0.66764  0.87191  1.0000
  H   H1115     1.0  0.68055  0.66960  0.85001  1.0000
  H   H1116     1.0  0.74540  0.75436  0.79211  1.0000
  H   H1117     1.0  0.61597  0.70820  0.84220  1.0000
  H   H1118     1.0  0.68016  0.79134  0.78514  1.0000
  H   H1119     1.0  0.61521  0.76917  0.81004  1.0000
  S   S248      1.0  0.98123  0.86119  0.98866  1.0000
  S   S249      1.0  0.01805  0.80143  0.80145  1.0000
  C   C933      1.0  0.58395  0.71256  0.75789  1.0000
  H   H1120     1.0  0.93580  0.52461  0.96699  1.0000
  H   H1121     1.0  0.55886  0.77071  0.74589  1.0000
  C   C934      1.0  0.96919  0.83515  0.87869  1.0000
  Fe  Fe125     1.0  0.99913  0.73454  0.79604  1.0000
  H   H1122     1.0  0.96514  0.78420  0.68573  1.0000
  Fe  Fe126     1.0  0.53591  0.79369  0.92615  1.0000
  S   S250      1.0  0.66797  0.99747  0.67007  1.0000
  H   H1123     1.0  0.88379  0.83564  0.97836  1.0000
  H   H1124     1.0  0.96262  0.89521  0.89810  1.0000
  H   H1125     1.0  0.79640  0.56516  0.92885  1.0000
  C   C935      1.0  0.82845  0.52383  0.95888  1.0000
  H   H1126     1.0  0.85981  0.59592  0.90869  1.0000
  H   H1127     1.0  0.01953  0.77271  0.69088  1.0000
  C   C936      1.0  0.91876  0.91794  0.98091  1.0000
  H   H1128     1.0  0.02268  0.88620  0.93158  1.0000
  S   S251      1.0  0.56014  0.84101  0.70777  1.0000
  H   H1129     1.0  0.61056  0.71569  0.74338  1.0000
  C   C937      1.0  0.99164  0.76531  0.67731  1.0000
  C   C938      1.0  0.76534  0.53588  0.98655  1.0000
  H   H1130     1.0  0.89055  0.78655  0.94451  1.0000
  H   H1131     1.0  0.92119  0.73022  0.91745  1.0000
  H   H1132     1.0  0.53197  0.82281  0.77528  1.0000
  C   C939      1.0  0.57966  0.67729  0.77486  1.0000
  C   C940      1.0  0.90187  0.56178  0.93621  1.0000
  S   S252      1.0  0.79203  0.00082  0.94916  1.0000
  C   C941      1.0  0.54546  0.67332  0.79343  1.0000
  H   H1133     1.0  0.79459  0.76264  0.99286  1.0000
  H   H1134     1.0  0.81948  0.99516  0.84121  1.0000
  C   C942      1.0  0.88378  0.94141  0.98935  1.0000
  C   C943      1.0  0.89147  0.75692  0.95512  1.0000
  S   S253      1.0  0.58742  0.82937  0.94956  1.0000
  H   H1135     1.0  0.74933  0.00971  0.81687  1.0000
  C   C944      1.0  0.02525  0.95460  0.76678  1.0000
  H   H1136     1.0  0.92992  0.57578  0.92727  1.0000
  H   H1137     1.0  0.60294  0.65305  0.77373  1.0000
  S   S254      1.0  0.74600  0.53648  0.81965  1.0000
  H   H1138     1.0  0.56224  0.98721  0.69485  1.0000
  C   C945      1.0  0.86245  0.57305  0.92577  1.0000
  C   C946      1.0  0.90943  0.72467  0.93923  1.0000
  C   C947      1.0  0.82625  0.55481  0.93718  1.0000
  H   H1139     1.0  0.65171  0.87463  0.97865  1.0000
  S   S255      1.0  0.54364  0.65673  0.87099  1.0000
  H   H1140     1.0  0.64656  0.59200  0.68561  1.0000
  C   C948      1.0  0.99302  0.98381  0.76590  1.0000
  H   H1141     1.0  0.98435  0.73219  0.68131  1.0000
  H   H1142     1.0  0.83204  0.82016  0.96615  1.0000
  C   C949      1.0  0.91280  0.68550  0.95137  1.0000
  H   H1143     1.0  0.75532  0.56186  0.97238  1.0000
  H   H1144     1.0  0.98160  0.77452  0.86361  1.0000
  C   C950      1.0  0.02456  0.71942  0.90615  1.0000
  C   C951      1.0  0.89812  0.67831  0.97943  1.0000
  H   H1145     1.0  0.94257  0.83898  0.86417  1.0000
  C   C952      1.0  0.52958  0.99513  0.69743  1.0000
  C   C953      1.0  0.53073  0.52858  0.88210  1.0000
  H   H1146     1.0  0.76317  0.00163  0.87094  1.0000
  H   H1147     1.0  0.92730  0.66076  0.93917  1.0000
  C   C954      1.0  0.59095  0.89733  0.66765  1.0000
  H   H1148     1.0  0.79524  0.52292  0.75250  1.0000
  C   C955      1.0  0.85280  0.82359  0.98554  1.0000
  H   H1149     1.0  0.55040  0.01115  0.93380  1.0000
  C   C956      1.0  0.87612  0.75064  0.98387  1.0000
  H   H1150     1.0  0.90124  0.64790  0.98899  1.0000
  C   C957      1.0  0.00351  0.99084  0.98333  1.0000
  H   H1151     1.0  0.54238  0.64601  0.80687  1.0000
  C   C958      1.0  0.88024  0.71032  0.99556  1.0000
  C   C959      1.0  0.01454  0.86181  0.91637  1.0000
  Fe  Fe127     1.0  0.79518  0.01290  0.99707  1.0000
  Fe  Fe128     1.0  0.79449  0.01570  0.73747  1.0000
  S   S256      1.0  0.72546  0.01751  0.74814  1.0000
  C   C960      1.0  0.02757  0.79260  0.89660  1.0000
  H   H1152     1.0  0.92140  0.01819  0.98548  1.0000
