data_image0
_chemical_formula_structural       CH2FeS2FeS2FeSFeS3FeS2FeS2FeSFeS3HFeSCH3FeS2FeS2FeS2FeSFeS3FeS2FeS2FeSFeS3C4HC6H6C3HCNC6H6CH2CH2C7H4C6H4C6H8CHC3H2CHC3NCH2SHC3H2NCHSH2CNC9H14NC6H11CH2CH2CHC7H9C2H2C2HC3HC5H5SC2NC9H8CFeHCH2CHNHC2H2CHCH2C3H2CHC2H5CHCHCH6NCHFeSCH2C2HCSHCH3C2H3CH3NCHC2H4C2HC2H2CH2CH5CHCHC4H2CHCNCH2CH4CHCHCH2C2HSFeS2FeSFeS4FeSFeSCH2CFeS2FeS2Fe2S3FeS2FeS2FeHFeS3H2C8H4C6H3CHC6H2C6H4NCNHCHC3HC4HCH3C2H2C3H6SH6SCH5C2SHCHS2CH3CFeH4C2NC8H4CH5CH3C6H2CNH4CH2SHCH2C3H2C2H2C2H3C2H2C2NHCHCHCH2C3HFeSHC2H3CHCHCN2H7SH3CH2CHCH4NC9H12C2HCHCH7NHCHSHCHCH2CH2C2H2C2H3CH2C2FeC3H5CFeSFeSHFeSFeHSFeS2FeS2FeSFeS3FeS2FeS2FeSFeS3FeS2FeS2FeSFeS3HC6H2CH2CHC5H3C6H4C6H4CH2C2HC3HCHC2HSH3C6H5CH4CSH2C2HC4HC2H3C3H4CH2CHCHC3HC2H5CHNC9H12C4HCNC4H14SCH4C3NH3CH3C4H3C2HCNH2CH2C2H2CH4C4HCHCHCNH3NH3C2NC2HCH6C2H2C2H5CHCSH6CH6CHSFeC2HSHCH2CH2CH3C2H2C2FeHC2HC2SCH2C5HNCFeHC2SCHC2H2CHNSH2CNH8CHC2H2CHSCH2C2HCHCH4S2CH5SCH3SC5FeSH2SFeH2SCH2CH3C2HC3H2NH3C3H4C4H6C5HCH3CS2CH2CHC2H3C2FeHFeH3CHC2SCHC2H3SHC5H4C4HCH4SH2FeCH2CHSH3C4HNCHNH4FeSHCSFeSFeSHSFeS2FeS2FeHFeCS2FeS2FeS2FeSFeS3FeS2FeSHFeSFeS3HCSNHC2H2CH2CHCHC2HC3H2C3H2C6H3NC6H7C5H2CH2C2NC6H4C6H5CH4C2H2CH2CHCHCH2CH2C3SCHC2HNC9H14NC7H11NCH3C2NCSCHCH3CHCH4CH2CH3FeCNHCHC2HSHCH2SCHC2H3CHCH2CH3CH4C2HC4H3CH3CHNSHCH3C2HCH5C2HSCHFeS2CFeHSCFeS2FeSHFeSFeS3FeS2FeS2FeSFeS3FeS2FeS2FeCFeS3HCH2CNC2HCHC7H6C6H4C2H2CH3CH3C2H6C7H5C6H4C4H4CH2CH4C2H3FeC2HC2HCHC2H2C2HC2HC2H4C4H2C2SC2H2CHCH2CHCHCHCH2CH2CH4C4HCHCHC4NHS2HC2HNC9H20C2H2NC9NH3CH4CH4NC9HCHNCH3CH2CH4CHCHNHCHCH2CH2SH3CH2CHNCSH3CHS3HFeS2CFeCHSFeS2FeS2FeSFeS3FeS2FeS2FeSFeS3FeSHFeS2FeSFeS3FeS2FeS2FeSFeS3HCHC4H5C7H4CHC3H2SC6H5CH4C7H5CH2FeC6H4C6H4C3HCH2C4H3CH6C2H2C2HC3H3NH4C2FeCH8C2H7C2HCHC3H6CH2CH3CH4CH2C5HCNH2NC6H14CH3CH3CH3NCHC3HCH4NH3NC7H6CH2CHNC3H4CHCH2CHC6FeC2H3CHN2C9H4CHCHC3H2CH3C2H2SHCH3SHCHC2HC3H2FeS2FeS2FeCFeHS2FeH2FeS2FeCFeS3C4H4SCH2CNH4CH2C2HCH5SHC6H4C2HNCHC4HC3HCH10CHSC2H4C2NC9H19C4NC3HSHSHC2H2CHSC3HCH4CHCNC3H2FeSCFeSH2CFeSHSFeS2FeSHFe2S3FeS2FeSHFeSFeCS2FeS2FeS2FeSFeS3C6H4C6H4C6H4C6H5CNHFeCH4CH4CH2C3HCHC3HCHCHCNC2NHSH5CHC4H4CH2CHNC9H11C3HCSCH2C2NC9H14C3H6CH2CH2SCH2SHC3H4CH2CH2NHC2HSH3C2HC3HSH2CH3CH4C3H2CNC2HCH7CHCSCHFeHFeS2FeHS2FeHCFeS2FeSHSHNHSCSH2FeSFeSCFeS2FeSFeSCFeSFeS3FeHCFeS2FeHFeS3FeS2FeS2FeHFeS3HC6H2SHC5NH3C6H2C6H6C3H5CHC5H2CHC2HC6H3C7H2CHCHFeC3H2SC2HCNHC2H5CNC2HC6H7C3H7C2H3SH2SHC2HNH2C2HCH2C2H2C2H2CH6C2HC5NC9H15SHNH4C2HCHCSHCH4CH2CH2CHCNHCSCH4C4SHCFeCH4C2H2CH2C2H3NH2CHCHSHS2H2CH2FeHCH2CHCNHCHCH2C4HC2HSC3H2NH5CH2C3H2CSH3FeSHFeS2FeCFeS3FeSCFeSHSFeS2FeS2FeS2FeHFeS3FeC2FeS2FeSFeSFeS2FeS2FeCFeS3FeS2FeSHFeSFeSH2C6H5CSC6H5C6H4C6H3C6H4C7H4C6H5CHCFeH2CH4C3H2C2HCH4NC9H19CHC2HCHC3H3SCHC2NH4SCSHSC4H2C2H3C2H4SNH4C3H2C3SH8C6H6CH4NSHC6H7CH2CNC9H12CHSHNSH3C2HNCSCHCSNH2C2H2C2H3CH3CHCH2C6HCH2CHCHCH2CHCH3C3HCHCHCH2CHC3H2C2HCH2NC2H2NC2H4C2H3SHCHFeSCFeSHFeSFeS3FeC2FeS2FeHFeS3FeS2FeS2FeCFeHS2FeCHFeHSFeHFeCS2CH3CHCHC3HCSC7H4C3SCHC2HCH2C6H4NC2H4C3H2CH3CHCH5CHSCHCSHCNHSCH2CHCH4CSH2C2H2CHCH8C6HCH2SCHSHC4H4S2HNCH2C2HCHCHCH2CH3C3H4C4H3CHCHCHCH2CH3CHNH2FeSHS2FeHFeS2FeH2S2C3H5CHCHSCHCHC2HC5H4CHC3H3C4NH5CH4SH3C2H6C2HFeC3HCS2C2HC3SCHC2HCHCHCHFeHCHNH2CHC2S2HCFeSHC2H4CHCHC2HC2HCH6CH3CH2NSCHFeH3C3NC3H2CFeS2FeH2SFeS2FeHSFe2S3FeS2FeSHFeSFeS3FeSCFeS2FeSFeS3FeSCFeS2FeSFeS3C2H2SC6H3C2HC6H4C6H4C6H5C2HFeCH2C6H7C3HCH2NC2HCNSH3CSHCHC2HCH2CHC3HNH8NC9H12NCHC3H4CHCHC2H3C3HCNC9H13CH3C2SC4NCH3FeCHC3HCH2C2H6CHC3H3CH4SHCH2C2HNH4CHC3H3C2H2CH3CH5C2HCH3CHC3HCHNCH3CH2CH2CSH9SCH2CHSCH3CHC3FeS2HFeH2S2FeS2FeSFeHSC2SFeS2FeS2FeHFeS3FeS2FeS2FeSFeS3C2HCH2CSH2C2HCHC3NHC2H3C2HC7H4C6H4C6H5CHC2H3C5H4C4H3CHCHC5H4CH5CSH4NCH2C6H2FeH9C2HCH3CH2C3HCHC2H4CH3CHCHC2H4C2SH2NC3SHNC9H14NH6FeHC3HCHC2HC3HCHC3SCHC3NC5H8S2CH2CHC2HC5HCHCNSHCH4CSHFeS2FeHFe2S3CH2CFeS2FeS2FeSFeS3FeS2FeS2FeSFeS4FeS2FeSHFeSFeS3HC5HC6H6C6H4C6H4CHC3H2C2HC2H6CHC3NH7C2HCHC6H4CFeC2H2C4HCHCHCH3NC6H9C2HCH4CH3CHSHCH4NH6CHCHC2HC3HNH3CHC2HC2HC4H2CH2CH4SC3H3CHC2H2C2H4CHC2H5NHCSH2CH3NHCHC7H8C3HC2SCHC2HCH2CH2CH2C2H5CHFeSCFeS2FeHFeS3CHNC2HC2HC3HNCH2CH3CHCH2CHCHCHC6H2C3H4C3HC3HCH6CHC2H3SC2H5C4H2CHCH2C3H2NH3CHC2H5CHNHCSH3CNCH3CH5CH5C2HCHC2SCNHFeHSFeSCFeSCS2HCHC2HCH2C2HCHSHC2H4CHNH2CHCHC2H3CHCNCHCH6CHCH2C2FeC4HCH3C2H2CH3CH3CHCH3NC3H3C2H2CHS2HCH3CH2CHCH2C2H2SC3HCH4FeCSHNCFeHSH2S2FeS2FeS2FeSFeHS2FeS2FeS2FeCFeS3HSCFeHC4HC2H2SCHCH3C7FeH2C6H4C6H5C3H4SH4CHNC3H3C2HSH2CH2SHNH2C3SC4HCHCSC3H2C2H4C2NC5H2C2HC2H2CH4C4HSC2HC2H2SHCH2FeHFeCH3NH2NHCH2SH3C2HCH2CH3CH2CNH4CH2SHCHFeHCHCH3C4H2SCHCH4CHC2SCH3C2H4NCH2SCH2CHCHCH4SHCH7CH2CHCH3CH3C2FeS2FeSFeSFeS3FeS2FeSCFeSFeS3HFeS2FeHFeS2HCFeS2FeHFeSFeHS2H2CHCHC3H2C2HCSCHC3H2CHNH5C6H5NH2C7H5CH2C6H7C2HNHSCHNC9H13SH2C2NC3H5NC2H2CNC3H3C2H3CNCH4CH5C2H4CH3CHNCH3C2H3SC2HFeCHCNHCHC2SC4H3C2HCHC2HCHCSH2CHFeHSC2HCH4CHSHCHCHC3HC3HC4HC2HC2HC2HCHCHCHC4HCSHCH2CH3C6HFeS2FeS3CFeS2FeS2FeSFeS3FeS2FeS2FeSFeS3HC3FeS2FeS2FeSFeS3FeS2FeS2FeSFeS3C6H5C5H4C3H2CH3C6H4C2HC6H4C6H5CH2CH3C2HC6H4CH2C3H4C2H2C5HCHC3NC9H14CH8C2H2NHNSH6CH2CHC3HCHNC2H2CHCH8C2HCHCH3C3HNC2H4CHNH3CH3CH4CH3C4HCHCH2C2H2CH4CHC2NC4H2CH4CH2C2HC5HC2HC2HCH2NC2HC2H2FeHCH2NC3SC2H2C2HCNC2H2CFeHC2HSHCH8CHCH3CH5CHCHNCHC2HCH5C3HCH
_chemical_formula_sum              "C2400 H2880 Fe320 S640 N160"
_cell_length_a       56.2316
_cell_length_b       56.2884
_cell_length_c       100.869
_cell_angle_alpha    78.5553
_cell_angle_beta     78.6058
_cell_angle_gamma    78.6272

_space_group_name_H-M_alt    "P 1"
_space_group_IT_number       1

loop_
  _space_group_symop_operation_xyz
  'x, y, z'

loop_
  _atom_site_type_symbol
  _atom_site_label
  _atom_site_symmetry_multiplicity
  _atom_site_fract_x
  _atom_site_fract_y
  _atom_site_fract_z
  _atom_site_occupancy
  C   C1        1.0  0.16255  0.29296  0.11433  1.0000
  H   H1        1.0  0.17135  0.30324  0.11988  1.0000
  H   H2        1.0  0.14883  0.25881  0.10603  1.0000
  Fe  Fe1       1.0  0.18801  0.19734  0.11295  1.0000
  S   S1        1.0  0.21083  0.21142  0.09345  1.0000
  S   S2        1.0  0.14852  0.19730  0.11201  1.0000
  Fe  Fe2       1.0  0.23077  0.18603  0.12845  1.0000
  S   S3        1.0  0.25760  0.19903  0.10988  1.0000
  S   S4        1.0  0.24035  0.17359  0.14974  1.0000
  Fe  Fe3       1.0  0.22693  0.23067  0.10605  1.0000
  S   S5        1.0  0.23050  0.27004  0.09673  1.0000
  Fe  Fe4       1.0  0.23900  0.17879  0.09882  1.0000
  S   S6        1.0  0.25236  0.15579  0.08210  1.0000
  S   S7        1.0  0.20140  0.21933  0.12533  1.0000
  S   S8        1.0  0.21494  0.16310  0.11771  1.0000
  Fe  Fe5       1.0  0.24829  0.42431  0.11946  1.0000
  S   S9        1.0  0.21756  0.45597  0.12207  1.0000
  S   S10       1.0  0.28722  0.43035  0.11100  1.0000
  Fe  Fe6       1.0  0.21463  0.38626  0.13044  1.0000
  S   S11       1.0  0.18130  0.41507  0.13422  1.0000
  S   S12       1.0  0.21054  0.34644  0.13766  1.0000
  Fe  Fe7       1.0  0.19620  0.43462  0.11356  1.0000
  S   S13       1.0  0.17294  0.45463  0.09766  1.0000
  Fe  Fe8       1.0  0.20592  0.43359  0.14246  1.0000
  S   S14       1.0  0.19315  0.44860  0.16238  1.0000
  S   S15       1.0  0.22792  0.40465  0.10910  1.0000
  S   S16       1.0  0.23806  0.40314  0.14043  1.0000
  H   H3        1.0  0.22998  0.11701  0.00642  1.0000
  Fe  Fe9       1.0  0.27493  0.02888  0.22278  1.0000
  S   S17       1.0  0.24428  0.01870  0.21491  1.0000
  C   C2        1.0  0.25019  0.46074  0.20040  1.0000
  H   H4        1.0  0.22412  0.42660  0.99910  1.0000
  H   H5        1.0  0.13523  0.08189  0.00298  1.0000
  H   H6        1.0  0.17761  0.27918  0.10996  1.0000
  Fe  Fe10      1.0  0.23989  0.05801  0.20426  1.0000
  S   S18       1.0  0.23679  0.06500  0.18171  1.0000
  S   S19       1.0  0.27161  0.06766  0.21129  1.0000
  Fe  Fe11      1.0  0.12045  0.15966  0.04956  1.0000
  S   S20       1.0  0.13236  0.19046  0.03356  1.0000
  S   S21       1.0  0.14783  0.14160  0.06347  1.0000
  Fe  Fe12      1.0  0.07401  0.16114  0.03768  1.0000
  S   S22       1.0  0.08288  0.19191  0.02043  1.0000
  S   S23       1.0  0.03977  0.14342  0.04301  1.0000
  Fe  Fe13      1.0  0.12174  0.17078  0.01890  1.0000
  S   S24       1.0  0.15202  0.16487  0.00086  1.0000
  Fe  Fe14      1.0  0.09299  0.20826  0.03677  1.0000
  S   S25       1.0  0.07932  0.24613  0.04213  1.0000
  S   S26       1.0  0.11206  0.13880  0.03484  1.0000
  S   S27       1.0  0.08177  0.17884  0.05411  1.0000
  Fe  Fe15      1.0  0.12511  0.42463  0.02856  1.0000
  S   S28       1.0  0.09369  0.42961  0.04596  1.0000
  S   S29       1.0  0.13983  0.45994  0.01920  1.0000
  Fe  Fe16      1.0  0.12131  0.37034  0.03055  1.0000
  S   S30       1.0  0.08980  0.37165  0.04806  1.0000
  S   S31       1.0  0.13611  0.33627  0.02079  1.0000
  Fe  Fe17      1.0  0.07490  0.40763  0.03605  1.0000
  S   S32       1.0  0.03804  0.41930  0.02876  1.0000
  Fe  Fe18      1.0  0.11191  0.39322  0.05610  1.0000
  S   S33       1.0  0.12031  0.38185  0.07765  1.0000
  S   S34       1.0  0.10525  0.40509  0.01796  1.0000
  S   S35       1.0  0.14457  0.38958  0.03935  1.0000
  C   C3        1.0  0.04765  0.37016  0.00626  1.0000
  C   C4        1.0  0.27930  0.04331  0.14275  1.0000
  C   C5        1.0  0.01064  0.40778  0.03627  1.0000
  C   C6        1.0  0.17243  0.12928  0.18878  1.0000
  H   H7        1.0  0.02365  0.38741  0.05461  1.0000
  C   C7        1.0  0.09673  0.26986  0.03635  1.0000
  C   C8        1.0  0.09160  0.28953  0.04359  1.0000
  C   C9        1.0  0.10412  0.30955  0.03904  1.0000
  C   C10       1.0  0.12146  0.31042  0.02704  1.0000
  C   C11       1.0  0.12711  0.29039  0.01994  1.0000
  C   C12       1.0  0.11484  0.27001  0.02463  1.0000
  H   H8        1.0  0.07782  0.28932  0.05275  1.0000
  H   H9        1.0  0.10034  0.32422  0.04489  1.0000
  H   H10       1.0  0.14071  0.29083  0.01069  1.0000
  H   H11       1.0  0.11884  0.25482  0.01899  1.0000
  H   H12       1.0  0.24167  0.13275  0.04505  1.0000
  H   H13       1.0  0.00349  0.36390  0.02620  1.0000
  C   C13       1.0  0.99716  0.17911  0.01458  1.0000
  C   C14       1.0  0.13880  0.27086  0.09851  1.0000
  C   C15       1.0  0.17595  0.45761  0.04870  1.0000
  H   H14       1.0  0.03438  0.17770  0.01767  1.0000
  C   C16       1.0  0.26576  0.42540  0.16548  1.0000
  N   N1        1.0  0.30772  0.06615  0.10573  1.0000
  C   C17       1.0  0.15775  0.43460  0.09236  1.0000
  C   C18       1.0  0.14344  0.44340  0.08196  1.0000
  C   C19       1.0  0.13214  0.42726  0.07723  1.0000
  C   C20       1.0  0.13464  0.40241  0.08314  1.0000
  C   C21       1.0  0.14862  0.39377  0.09370  1.0000
  C   C22       1.0  0.16037  0.40975  0.09821  1.0000
  H   H15       1.0  0.14108  0.46268  0.07755  1.0000
  H   H16       1.0  0.12110  0.43412  0.06920  1.0000
  H   H17       1.0  0.15061  0.37467  0.09836  1.0000
  H   H18       1.0  0.17138  0.40279  0.10624  1.0000
  H   H19       1.0  0.24634  0.41349  0.21143  1.0000
  H   H20       1.0  0.07043  0.32866  0.99717  1.0000
  C   C23       1.0  0.19601  0.05397  0.04759  1.0000
  H   H21       1.0  0.30765  0.44954  0.13894  1.0000
  H   H22       1.0  0.21236  0.16684  0.03984  1.0000
  C   C24       1.0  0.30697  0.00967  0.13365  1.0000
  H   H23       1.0  0.18629  0.47156  0.18604  1.0000
  H   H24       1.0  0.14029  0.09047  0.05385  1.0000
  C   C25       1.0  0.01126  0.26574  0.04444  1.0000
  C   C26       1.0  0.14778  0.18161  0.09869  1.0000
  C   C27       1.0  0.12641  0.18483  0.09293  1.0000
  C   C28       1.0  0.12622  0.17274  0.08202  1.0000
  C   C29       1.0  0.14724  0.15694  0.07711  1.0000
  C   C30       1.0  0.16845  0.15356  0.08298  1.0000
  C   C31       1.0  0.16883  0.16613  0.09359  1.0000
  H   H25       1.0  0.11003  0.19673  0.09684  1.0000
  H   H26       1.0  0.10970  0.17528  0.07759  1.0000
  H   H27       1.0  0.18479  0.14144  0.07922  1.0000
  H   H28       1.0  0.18548  0.16360  0.09784  1.0000
  C   C32       1.0  0.23945  0.14321  0.15836  1.0000
  C   C33       1.0  0.24230  0.13741  0.17220  1.0000
  C   C34       1.0  0.24148  0.11347  0.17945  1.0000
  C   C35       1.0  0.23791  0.09516  0.17287  1.0000
  C   C36       1.0  0.23519  0.10086  0.15900  1.0000
  C   C37       1.0  0.23594  0.12484  0.15175  1.0000
  H   H29       1.0  0.24500  0.15155  0.17737  1.0000
  H   H30       1.0  0.24345  0.10927  0.19016  1.0000
  H   H31       1.0  0.23219  0.08680  0.15389  1.0000
  H   H32       1.0  0.23390  0.12908  0.14108  1.0000
  C   C38       1.0  0.22688  0.29088  0.10817  1.0000
  C   C39       1.0  0.22186  0.28320  0.12234  1.0000
  C   C40       1.0  0.21712  0.30044  0.13126  1.0000
  C   C41       1.0  0.21761  0.32541  0.12609  1.0000
  C   C42       1.0  0.22301  0.33308  0.11192  1.0000
  C   C43       1.0  0.22768  0.31581  0.10298  1.0000
  H   H33       1.0  0.22149  0.26401  0.12645  1.0000
  H   H34       1.0  0.21308  0.29441  0.14222  1.0000
  H   H35       1.0  0.22344  0.35228  0.10785  1.0000
  H   H36       1.0  0.23168  0.32183  0.09203  1.0000
  H   H37       1.0  0.18876  0.11133  0.03671  1.0000
  H   H38       1.0  0.27164  0.09333  0.00371  1.0000
  H   H39       1.0  0.18075  0.16475  0.04050  1.0000
  H   H40       1.0  0.27772  0.40455  0.21417  1.0000
  C   C44       1.0  0.30934  0.00332  0.02170  1.0000
  H   H41       1.0  0.06476  0.37813  0.00509  1.0000
  C   C45       1.0  0.17627  0.06870  0.05449  1.0000
  C   C46       1.0  0.18708  0.44044  0.00816  1.0000
  C   C47       1.0  0.17051  0.46129  0.01143  1.0000
  H   H42       1.0  0.23316  0.06409  0.01647  1.0000
  H   H43       1.0  0.18112  0.42272  0.01040  1.0000
  C   C48       1.0  0.14850  0.09426  0.99932  1.0000
  H   H44       1.0  0.03398  0.23461  0.03649  1.0000
  C   C49       1.0  0.29331  0.13012  0.06893  1.0000
  C   C50       1.0  0.28420  0.14648  0.07824  1.0000
  C   C51       1.0  0.30043  0.15414  0.08476  1.0000
  N   N2        1.0  0.15013  0.30962  0.10345  1.0000
  C   C52       1.0  0.22255  0.48457  0.15519  1.0000
  H   H45       1.0  0.28076  0.12424  0.06387  1.0000
  H   H46       1.0  0.29350  0.16682  0.09193  1.0000
  S   S36       1.0  0.31337  0.00685  0.22150  1.0000
  H   H47       1.0  0.24207  0.03745  0.00820  1.0000
  C   C53       1.0  0.29131  0.46084  0.10982  1.0000
  C   C54       1.0  0.31942  0.49079  0.06042  1.0000
  C   C55       1.0  0.14251  0.11834  0.00212  1.0000
  H   H48       1.0  0.28930  0.45655  0.21150  1.0000
  H   H49       1.0  0.12462  0.12446  0.00773  1.0000
  N   N3        1.0  0.27017  0.43905  0.20054  1.0000
  C   C56       1.0  0.29860  0.01255  0.00985  1.0000
  H   H50       1.0  0.22954  0.41833  0.04308  1.0000
  S   S37       1.0  0.28191  0.99402  0.00412  1.0000
  H   H51       1.0  0.19952  0.14001  0.04927  1.0000
  H   H52       1.0  0.17249  0.46476  0.03804  1.0000
  C   C57       1.0  0.21650  0.46899  0.04177  1.0000
  N   N4        1.0  0.16973  0.23020  0.05464  1.0000
  C   C58       1.0  0.14378  0.22669  0.05968  1.0000
  C   C59       1.0  0.17543  0.22971  0.03970  1.0000
  C   C60       1.0  0.18545  0.20882  0.06157  1.0000
  C   C61       1.0  0.17347  0.25420  0.05711  1.0000
  C   C62       1.0  0.19249  0.25671  0.06390  1.0000
  C   C63       1.0  0.15878  0.27621  0.05184  1.0000
  C   C64       1.0  0.19609  0.27981  0.06551  1.0000
  C   C65       1.0  0.16267  0.29925  0.05333  1.0000
  C   C66       1.0  0.18125  0.30105  0.06020  1.0000
  H   H53       1.0  0.13046  0.24046  0.05418  1.0000
  H   H54       1.0  0.14064  0.20845  0.05833  1.0000
  H   H55       1.0  0.13860  0.22761  0.07080  1.0000
  H   H56       1.0  0.16250  0.24367  0.03396  1.0000
  H   H57       1.0  0.17407  0.21161  0.03735  1.0000
  H   H58       1.0  0.19435  0.23359  0.03539  1.0000
  H   H59       1.0  0.18194  0.20832  0.07288  1.0000
  H   H60       1.0  0.18157  0.19104  0.05997  1.0000
  H   H61       1.0  0.20538  0.20899  0.05770  1.0000
  H   H62       1.0  0.20516  0.24121  0.06789  1.0000
  H   H63       1.0  0.14450  0.27572  0.04625  1.0000
  H   H64       1.0  0.21078  0.28121  0.07073  1.0000
  H   H65       1.0  0.15141  0.31582  0.04897  1.0000
  H   H66       1.0  0.18435  0.31895  0.06123  1.0000
  N   N5        1.0  0.15765  0.15188  0.15267  1.0000
  C   C67       1.0  0.17300  0.17160  0.14859  1.0000
  C   C68       1.0  0.16067  0.13931  0.14065  1.0000
  C   C69       1.0  0.13152  0.16339  0.15561  1.0000
  C   C70       1.0  0.16466  0.13514  0.16511  1.0000
  C   C71       1.0  0.16563  0.14469  0.17698  1.0000
  C   C72       1.0  0.17011  0.10915  0.16598  1.0000
  H   H67       1.0  0.19290  0.16369  0.14727  1.0000
  H   H68       1.0  0.16915  0.18350  0.13879  1.0000
  H   H69       1.0  0.16977  0.18419  0.15618  1.0000
  H   H70       1.0  0.17999  0.12999  0.13805  1.0000
  H   H71       1.0  0.15627  0.15248  0.13130  1.0000
  H   H72       1.0  0.14804  0.12565  0.14242  1.0000
  H   H73       1.0  0.12820  0.17460  0.16392  1.0000
  H   H74       1.0  0.12549  0.17587  0.14638  1.0000
  H   H75       1.0  0.11932  0.14920  0.15888  1.0000
  H   H76       1.0  0.16138  0.16418  0.17722  1.0000
  H   H77       1.0  0.16990  0.10006  0.15755  1.0000
  C   C73       1.0  0.23586  0.02175  0.03467  1.0000
  H   H78       1.0  0.04213  0.30240  0.00611  1.0000
  H   H79       1.0  0.32333  0.48604  0.07109  1.0000
  C   C74       1.0  0.26286  0.42055  0.21259  1.0000
  H   H80       1.0  0.19929  0.45797  0.06929  1.0000
  H   H81       1.0  0.29814  0.08962  0.02118  1.0000
  C   C75       1.0  0.02674  0.33519  0.01571  1.0000
  H   H82       1.0  0.25828  0.42847  0.22226  1.0000
  C   C76       1.0  0.17835  0.48418  0.00849  1.0000
  C   C77       1.0  0.13152  0.32809  0.11016  1.0000
  C   C78       1.0  0.13809  0.29677  0.09581  1.0000
  C   C79       1.0  0.12462  0.31034  0.08545  1.0000
  C   C80       1.0  0.12609  0.25961  0.09155  1.0000
  C   C81       1.0  0.11210  0.29889  0.07851  1.0000
  C   C82       1.0  0.11270  0.27358  0.08161  1.0000
  H   H83       1.0  0.11634  0.31940  0.11695  1.0000
  H   H84       1.0  0.13973  0.33738  0.11652  1.0000
  H   H85       1.0  0.12311  0.34299  0.10261  1.0000
  H   H86       1.0  0.14939  0.28312  0.12218  1.0000
  H   H87       1.0  0.12348  0.33004  0.08270  1.0000
  H   H88       1.0  0.28268  0.10914  0.04163  1.0000
  H   H89       1.0  0.10179  0.30979  0.07073  1.0000
  H   H90       1.0  0.10272  0.26480  0.07632  1.0000
  H   H91       1.0  0.25439  0.45070  0.09036  1.0000
  C   C83       1.0  0.30516  0.06876  0.17173  1.0000
  C   C84       1.0  0.21137  0.44268  0.00178  1.0000
  H   H92       1.0  0.17708  0.07243  0.06454  1.0000
  H   H93       1.0  0.29254  0.07533  0.18075  1.0000
  C   C85       1.0  0.22633  0.04846  0.01409  1.0000
  C   C86       1.0  0.07193  0.32988  0.00783  1.0000
  H   H94       1.0  0.30022  0.10330  0.09516  1.0000
  C   C87       1.0  0.29544  0.02854  0.18047  1.0000
  C   C88       1.0  0.28481  0.40567  0.16404  1.0000
  C   C89       1.0  0.30197  0.05040  0.11920  1.0000
  H   H95       1.0  0.13811  0.08256  0.03086  1.0000
  C   C90       1.0  0.19523  0.04883  0.03443  1.0000
  C   C91       1.0  0.29908  0.39681  0.17436  1.0000
  C   C92       1.0  0.26954  0.18046  0.23237  1.0000
  C   C93       1.0  0.05411  0.34655  0.02829  1.0000
  C   C94       1.0  0.15925  0.13464  0.99722  1.0000
  H   H96       1.0  0.31092  0.03787  0.09341  1.0000
  H   H97       1.0  0.23226  0.45575  0.19984  1.0000
  H   H98       1.0  0.30163  0.00872  0.18375  1.0000
  H   H99       1.0  0.08894  0.33780  0.00713  1.0000
  H   H100      1.0  0.19690  0.42704  0.06915  1.0000
  S   S38       1.0  0.23686  0.11334  0.23823  1.0000
  C   C95       1.0  0.27509  0.42796  0.18791  1.0000
  C   C96       1.0  0.00414  0.34751  0.02204  1.0000
  N   N6        1.0  0.20647  0.14235  0.02725  1.0000
  C   C97       1.0  0.20477  0.16225  0.01521  1.0000
  C   C98       1.0  0.18799  0.12651  0.02783  1.0000
  C   C99       1.0  0.19968  0.15402  0.03975  1.0000
  C   C100      1.0  0.23144  0.12752  0.02594  1.0000
  C   C101      1.0  0.24088  0.11565  0.01435  1.0000
  C   C102      1.0  0.24711  0.12458  0.03586  1.0000
  C   C103      1.0  0.26465  0.10204  0.01270  1.0000
  C   C104      1.0  0.27083  0.11095  0.03407  1.0000
  C   C105      1.0  0.27960  0.09983  0.02252  1.0000
  H   H101      1.0  0.18667  0.17467  0.01623  1.0000
  H   H102      1.0  0.21949  0.17359  0.01377  1.0000
  H   H103      1.0  0.20623  0.15505  0.00553  1.0000
  H   H104      1.0  0.19056  0.11824  0.01841  1.0000
  H   H105      1.0  0.16890  0.13704  0.02892  1.0000
  H   H106      1.0  0.05392  0.32851  0.03519  1.0000
  H   H107      1.0  0.20648  0.42971  0.03209  1.0000
  H   H108      1.0  0.24523  0.03574  0.03701  1.0000
  C   C106      1.0  0.02586  0.31341  0.01079  1.0000
  Fe  Fe19      1.0  0.21991  0.03286  0.23317  1.0000
  H   H109      1.0  0.24584  0.45149  0.17761  1.0000
  C   C107      1.0  0.20623  0.01314  0.02292  1.0000
  H   H110      1.0  0.16102  0.33632  0.08571  1.0000
  H   H111      1.0  0.19892  0.41173  0.04849  1.0000
  C   C108      1.0  0.17661  0.09392  0.17790  1.0000
  H   H112      1.0  0.17379  0.13699  0.19759  1.0000
  N   N7        1.0  0.20258  0.44907  0.04900  1.0000
  H   H113      1.0  0.28830  0.39708  0.15496  1.0000
  C   C109      1.0  0.32742  0.04025  0.01885  1.0000
  C   C110      1.0  0.26092  0.43643  0.17719  1.0000
  H   H114      1.0  0.21156  0.04675  0.05282  1.0000
  H   H115      1.0  0.24708  0.46889  0.20991  1.0000
  C   C111      1.0  0.29019  0.01865  0.14435  1.0000
  H   H116      1.0  0.23993  0.44982  0.02557  1.0000
  C   C112      1.0  0.17794  0.10395  0.18922  1.0000
  H   H117      1.0  0.18148  0.07418  0.17826  1.0000
  H   H118      1.0  0.12648  0.23990  0.09404  1.0000
  C   C113      1.0  0.30177  0.03598  0.00273  1.0000
  C   C114      1.0  0.20651  0.44251  0.06349  1.0000
  C   C115      1.0  0.00846  0.39213  0.04893  1.0000
  H   H119      1.0  0.04009  0.36027  0.03330  1.0000
  H   H120      1.0  0.17196  0.05679  0.01863  1.0000
  C   C116      1.0  0.16897  0.32243  0.09385  1.0000
  H   H121      1.0  0.26607  0.05019  0.15109  1.0000
  C   C117      1.0  0.23096  0.48449  0.08412  1.0000
  C   C118      1.0  0.31236  0.46633  0.14071  1.0000
  H   H122      1.0  0.03267  0.38335  0.01115  1.0000
  H   H123      1.0  0.17819  0.33249  0.09928  1.0000
  H   H124      1.0  0.18359  0.30910  0.08882  1.0000
  H   H125      1.0  0.25998  0.46992  0.12507  1.0000
  H   H126      1.0  0.21275  0.05618  0.00704  1.0000
  C   C119      1.0  0.00354  0.30512  0.01186  1.0000
  H   H127      1.0  0.31854  0.47365  0.05674  1.0000
  C   C120      1.0  0.01538  0.24451  0.03865  1.0000
  H   H128      1.0  0.22641  0.43692  0.06417  1.0000
  C   C121      1.0  0.25341  0.46875  0.08401  1.0000
  H   H129      1.0  0.29381  0.07188  0.16347  1.0000
  H   H130      1.0  0.27582  0.07791  0.12986  1.0000
  H   H131      1.0  0.21458  0.47862  0.09048  1.0000
  H   H132      1.0  0.18371  0.09203  0.19826  1.0000
  H   H133      1.0  0.31995  0.04712  0.19519  1.0000
  H   H134      1.0  0.16804  0.47251  0.05482  1.0000
  N   N8        1.0  0.04978  0.34507  0.01448  1.0000
  C   C122      1.0  0.23496  0.46643  0.03002  1.0000
  H   H135      1.0  0.11710  0.47788  0.12809  1.0000
  Fe  Fe20      1.0  0.24471  0.07758  0.22982  1.0000
  S   S39       1.0  0.25709  0.46960  0.23595  1.0000
  C   C123      1.0  0.01718  0.17103  0.02168  1.0000
  H   H136      1.0  0.28377  0.03521  0.18970  1.0000
  H   H137      1.0  0.25508  0.18716  0.22620  1.0000
  C   C124      1.0  0.29269  0.44723  0.20236  1.0000
  C   C125      1.0  0.01503  0.15401  0.03382  1.0000
  H   H138      1.0  0.22755  0.47903  0.14521  1.0000
  C   C126      1.0  0.29516  0.09204  0.10532  1.0000
  S   S40       1.0  0.21250  0.07128  0.22167  1.0000
  H   H139      1.0  0.28004  0.47341  0.15569  1.0000
  C   C127      1.0  0.20251  0.48637  0.00214  1.0000
  H   H140      1.0  0.04387  0.37011  0.99585  1.0000
  H   H141      1.0  0.29932  0.46045  0.19325  1.0000
  H   H142      1.0  0.25050  0.00962  0.02877  1.0000
  C   C128      1.0  0.28350  0.15729  0.23158  1.0000
  C   C129      1.0  0.31276  0.02522  0.12125  1.0000
  H   H143      1.0  0.15848  0.46248  0.14503  1.0000
  H   H144      1.0  0.27477  0.09356  0.10700  1.0000
  H   H145      1.0  0.22144  0.00002  0.01808  1.0000
  C   C130      1.0  0.31644  0.04955  0.00708  1.0000
  H   H146      1.0  0.16496  0.44253  0.05286  1.0000
  H   H147      1.0  0.25465  0.47564  0.19170  1.0000
  H   H148      1.0  0.30048  0.10100  0.11294  1.0000
  N   N9        1.0  0.21562  0.03328  0.02679  1.0000
  C   C131      1.0  0.20983  0.42626  0.04286  1.0000
  H   H149      1.0  0.28027  0.05410  0.09767  1.0000
  C   C132      1.0  0.21906  0.46572  0.99862  1.0000
  C   C133      1.0  0.14260  0.47686  0.14782  1.0000
  H   H150      1.0  0.29158  0.46321  0.07668  1.0000
  H   H151      1.0  0.30560  0.39996  0.19398  1.0000
  H   H152      1.0  0.19610  0.00250  0.03204  1.0000
  H   H153      1.0  0.02667  0.27233  0.04669  1.0000
  C   C134      1.0  0.15545  0.07890  0.04851  1.0000
  C   C135      1.0  0.28508  0.05909  0.13040  1.0000
  H   H154      1.0  0.14911  0.47116  0.12195  1.0000
  C   C136      1.0  0.29430  0.40769  0.18616  1.0000
  C   C137      1.0  0.17382  0.05972  0.02862  1.0000
  H   H155      1.0  0.19360  0.02000  0.01526  1.0000
  H   H156      1.0  0.22908  0.00996  0.04437  1.0000
  C   C138      1.0  0.15429  0.07450  0.03556  1.0000
  H   H157      1.0  0.25440  0.43214  0.15755  1.0000
  H   H158      1.0  0.31373  0.38126  0.17327  1.0000
  C   C139      1.0  0.31854  0.12097  0.06634  1.0000
  H   H159      1.0  0.30250  0.06842  0.08484  1.0000
  H   H160      1.0  0.28324  0.03042  0.17279  1.0000
  H   H161      1.0  0.07211  0.35240  0.02778  1.0000
  H   H162      1.0  0.30797  0.43174  0.20406  1.0000
  H   H163      1.0  0.29335  0.04347  0.99373  1.0000
  C   C140      1.0  0.19929  0.48047  0.17819  1.0000
  H   H164      1.0  0.31956  0.06727  0.00121  1.0000
  C   C141      1.0  0.20576  0.47299  0.16529  1.0000
  H   H165      1.0  0.07519  0.31099  0.01383  1.0000
  C   C142      1.0  0.30000  0.05618  0.09498  1.0000
  C   C143      1.0  0.29675  0.47976  0.15012  1.0000
  C   C144      1.0  0.31134  0.46948  0.10086  1.0000
  C   C145      1.0  0.27455  0.47675  0.11754  1.0000
  H   H166      1.0  0.27971  0.14597  0.22495  1.0000
  H   H167      1.0  0.31942  0.08088  0.16869  1.0000
  C   C146      1.0  0.13414  0.48626  0.12489  1.0000
  H   H168      1.0  0.26087  0.48367  0.01414  1.0000
  C   C147      1.0  0.17139  0.08610  0.99178  1.0000
  N   N10       1.0  0.31613  0.04243  0.17499  1.0000
  C   C148      1.0  0.32353  0.01718  0.02626  1.0000
  H   H169      1.0  0.32460  0.45707  0.09506  1.0000
  H   H170      1.0  0.99999  0.21924  0.03121  1.0000
  C   C149      1.0  0.27480  0.47628  0.07605  1.0000
  H   H171      1.0  0.28560  0.00640  0.15388  1.0000
  H   H172      1.0  0.14608  0.48316  0.15693  1.0000
  H   H173      1.0  0.12610  0.46768  0.15121  1.0000
  H   H174      1.0  0.32562  0.01725  0.11321  1.0000
  C   C150      1.0  0.32572  0.14510  0.08210  1.0000
  H   H175      1.0  0.00324  0.28848  0.00805  1.0000
  C   C151      1.0  0.30158  0.14821  0.23978  1.0000
  H   H176      1.0  0.99906  0.19211  0.00513  1.0000
  C   C152      1.0  0.21141  0.49207  0.04632  1.0000
  H   H177      1.0  0.31179  0.12979  0.23947  1.0000
  H   H178      1.0  0.32545  0.10847  0.05909  1.0000
  C   C153      1.0  0.24724  0.48589  0.02327  1.0000
  C   C154      1.0  0.17170  0.48513  0.34224  1.0000
  H   H179      1.0  0.25639  0.21426  0.26508  1.0000
  S   S41       1.0  0.23384  0.06335  0.47627  1.0000
  Fe  Fe21      1.0  0.22372  0.05364  0.44067  1.0000
  S   S42       1.0  0.20864  0.08888  0.44874  1.0000
  S   S43       1.0  0.22272  0.04674  0.41937  1.0000
  Fe  Fe22      1.0  0.24526  0.08482  0.45538  1.0000
  S   S44       1.0  0.25877  0.12079  0.45371  1.0000
  Fe  Fe23      1.0  0.19825  0.06516  0.46900  1.0000
  S   S45       1.0  0.26147  0.05125  0.44574  1.0000
  S   S46       1.0  0.21003  0.03020  0.46033  1.0000
  S   S47       1.0  0.11779  0.02448  0.34386  1.0000
  S   S48       1.0  0.11466  0.06250  0.36510  1.0000
  Fe  Fe24      1.0  0.08891  0.04147  0.35953  1.0000
  S   S49       1.0  0.05214  0.05985  0.35345  1.0000
  Fe  Fe25      1.0  0.14410  0.04221  0.35104  1.0000
  S   S50       1.0  0.17534  0.05636  0.33588  1.0000
  C   C155      1.0  0.14677  0.03638  0.28670  1.0000
  H   H180      1.0  0.14203  0.00258  0.26001  1.0000
  H   H181      1.0  0.30807  0.04422  0.40880  1.0000
  C   C156      1.0  0.28400  0.47614  0.25471  1.0000
  Fe  Fe26      1.0  0.25413  0.21238  0.30584  1.0000
  S   S51       1.0  0.28990  0.18620  0.30431  1.0000
  S   S52       1.0  0.25166  0.25184  0.29517  1.0000
  Fe  Fe27      1.0  0.22538  0.17354  0.32291  1.0000
  S   S53       1.0  0.25881  0.14445  0.32290  1.0000
  S   S54       1.0  0.18828  0.16559  0.33412  1.0000
  Fe  Fe28      1.0  0.27760  0.17337  0.32668  1.0000
  Fe  Fe29      1.0  0.26784  0.15961  0.30057  1.0000
  S   S55       1.0  0.28511  0.13253  0.28609  1.0000
  S   S56       1.0  0.24336  0.20154  0.32858  1.0000
  S   S57       1.0  0.23283  0.18685  0.30024  1.0000
  Fe  Fe30      1.0  0.23562  0.39930  0.32919  1.0000
  S   S58       1.0  0.25754  0.42822  0.32953  1.0000
  S   S59       1.0  0.19485  0.40470  0.33692  1.0000
  Fe  Fe31      1.0  0.28136  0.36147  0.32237  1.0000
  S   S60       1.0  0.30692  0.38761  0.32235  1.0000
  S   S61       1.0  0.29608  0.32087  0.32311  1.0000
  Fe  Fe32      1.0  0.28163  0.39831  0.34116  1.0000
  H   H182      1.0  0.21259  0.07938  0.29480  1.0000
  Fe  Fe33      1.0  0.28047  0.41535  0.31054  1.0000
  S   S62       1.0  0.29392  0.44482  0.29349  1.0000
  S   S63       1.0  0.25820  0.37021  0.34202  1.0000
  S   S64       1.0  0.25652  0.38832  0.30928  1.0000
  H   H183      1.0  0.19065  0.09450  0.39705  1.0000
  H   H184      1.0  0.28476  0.20104  0.40207  1.0000
  C   C157      1.0  0.00000  0.04864  0.41245  1.0000
  C   C158      1.0  0.19014  0.00205  0.31720  1.0000
  C   C159      1.0  0.26496  0.27091  0.30250  1.0000
  C   C160      1.0  0.26118  0.29642  0.29800  1.0000
  C   C161      1.0  0.27093  0.31201  0.30407  1.0000
  C   C162      1.0  0.28466  0.30208  0.31463  1.0000
  C   C163      1.0  0.28889  0.27653  0.31889  1.0000
  C   C164      1.0  0.27890  0.26100  0.31294  1.0000
  H   H185      1.0  0.25053  0.30416  0.28986  1.0000
  H   H186      1.0  0.26789  0.33165  0.30058  1.0000
  H   H187      1.0  0.29971  0.26872  0.32694  1.0000
  H   H188      1.0  0.28210  0.24135  0.31639  1.0000
  C   C165      1.0  0.24947  0.11742  0.25215  1.0000
  C   C166      1.0  0.23935  0.13786  0.25866  1.0000
  C   C167      1.0  0.24941  0.14218  0.26950  1.0000
  C   C168      1.0  0.27008  0.12638  0.27365  1.0000
  C   C169      1.0  0.27997  0.10574  0.26727  1.0000
  C   C170      1.0  0.26957  0.10111  0.25663  1.0000
  H   H189      1.0  0.22381  0.15057  0.25521  1.0000
  H   H190      1.0  0.24153  0.15804  0.27438  1.0000
  H   H191      1.0  0.29600  0.09347  0.27042  1.0000
  C   C171      1.0  0.26753  0.46294  0.25187  1.0000
  H   H192      1.0  0.13931  0.02522  0.28144  1.0000
  C   C172      1.0  0.19538  0.12328  0.48130  1.0000
  C   C173      1.0  0.28389  0.45105  0.27745  1.0000
  C   C174      1.0  0.26722  0.43801  0.27464  1.0000
  C   C175      1.0  0.25927  0.44379  0.26184  1.0000
  C   C176      1.0  0.00343  0.05706  0.35525  1.0000
  C   C177      1.0  0.14794  0.05150  0.30725  1.0000
  H   H193      1.0  0.26061  0.42338  0.28229  1.0000
  H   H194      1.0  0.24659  0.43344  0.25969  1.0000
  C   C178      1.0  0.17709  0.08760  0.33412  1.0000
  C   C179      1.0  0.19802  0.09629  0.32626  1.0000
  C   C180      1.0  0.20101  0.12062  0.32569  1.0000
  C   C181      1.0  0.18319  0.13628  0.33308  1.0000
  C   C182      1.0  0.16165  0.12794  0.34037  1.0000
  C   C183      1.0  0.15855  0.10363  0.34084  1.0000
  H   H195      1.0  0.21231  0.08402  0.32092  1.0000
  H   H196      1.0  0.21729  0.12710  0.31970  1.0000
  H   H197      1.0  0.14760  0.14014  0.34590  1.0000
  H   H198      1.0  0.14208  0.09722  0.34664  1.0000
  N   N11       1.0  0.28717  0.16701  0.39463  1.0000
  C   C184      1.0  0.02535  0.04677  0.36037  1.0000
  N   N12       1.0  0.22411  0.46919  0.37066  1.0000
  H   H199      1.0  0.03515  0.46456  0.39432  1.0000
  C   C185      1.0  0.13856  0.03682  0.30062  1.0000
  H   H200      1.0  0.23706  0.00378  0.43886  1.0000
  C   C186      1.0  0.28715  0.12714  0.44388  1.0000
  C   C187      1.0  0.30365  0.10957  0.43714  1.0000
  C   C188      1.0  0.30034  0.22568  0.25214  1.0000
  H   H201      1.0  0.28452  0.23655  0.24739  1.0000
  C   C189      1.0  0.27794  0.10274  0.39242  1.0000
  C   C190      1.0  0.19488  0.04243  0.41528  1.0000
  C   C191      1.0  0.19529  0.03449  0.40288  1.0000
  C   C192      1.0  0.17334  0.03212  0.39894  1.0000
  H   H202      1.0  0.17059  0.12890  0.37941  1.0000
  C   C193      1.0  0.17238  0.04760  0.42385  1.0000
  H   H203      1.0  0.21263  0.03026  0.39624  1.0000
  H   H204      1.0  0.24614  0.99799  0.41509  1.0000
  H   H205      1.0  0.26833  0.18641  0.27544  1.0000
  C   C194      1.0  0.18860  0.12619  0.37248  1.0000
  C   C195      1.0  0.29304  0.15066  0.44266  1.0000
  H   H206      1.0  0.04704  0.47391  0.41472  1.0000
  H   H207      1.0  0.31963  0.17485  0.43392  1.0000
  C   C196      1.0  0.16608  0.44247  0.34926  1.0000
  C   C197      1.0  0.18470  0.43576  0.33852  1.0000
  C   C198      1.0  0.19627  0.45386  0.32948  1.0000
  H   H208      1.0  0.03936  0.08639  0.41332  1.0000
  H   H209      1.0  0.15702  0.42852  0.35625  1.0000
  H   H210      1.0  0.21031  0.44890  0.32103  1.0000
  H   H211      1.0  0.30895  0.42776  0.40287  1.0000
  H   H212      1.0  0.19585  0.48208  0.28549  1.0000
  H   H213      1.0  0.31666  0.43416  0.34537  1.0000
  S   S65       1.0  0.28832  0.39794  0.36255  1.0000
  H   H214      1.0  0.27790  0.01807  0.41011  1.0000
  H   H215      1.0  0.00548  0.03782  0.42179  1.0000
  H   H216      1.0  0.27868  0.44254  0.40857  1.0000
  H   H217      1.0  0.31893  0.45441  0.43101  1.0000
  H   H218      1.0  0.22457  0.16757  0.48581  1.0000
  H   H219      1.0  0.24361  0.11561  0.48336  1.0000
  S   S66       1.0  0.25104  0.03975  0.24211  1.0000
  C   C199      1.0  0.32336  0.42830  0.35505  1.0000
  H   H220      1.0  0.21434  0.01176  0.29845  1.0000
  H   H221      1.0  0.27754  0.08536  0.25165  1.0000
  H   H222      1.0  0.31270  0.17228  0.27388  1.0000
  H   H223      1.0  0.19819  0.17094  0.47726  1.0000
  H   H224      1.0  0.22644  0.44875  0.39089  1.0000
  C   C200      1.0  0.29736  0.44612  0.40347  1.0000
  C   C201      1.0  0.00299  0.01903  0.37768  1.0000
  S   S67       1.0  0.32589  0.24246  0.37074  1.0000
  H   H225      1.0  0.29165  0.44274  0.43089  1.0000
  C   C202      1.0  0.28525  0.99469  0.42956  1.0000
  H   H226      1.0  0.27448  0.21555  0.27747  1.0000
  S   S68       1.0  0.09453  0.00971  0.37658  1.0000
  S   S69       1.0  0.30371  0.16157  0.34193  1.0000
  C   C203      1.0  0.30935  0.00212  0.47644  1.0000
  H   H227      1.0  0.04940  0.01891  0.39814  1.0000
  H   H228      1.0  0.19005  0.10659  0.29119  1.0000
  H   H229      1.0  0.26048  0.30972  0.38025  1.0000
  C   C204      1.0  0.28656  0.48801  0.36800  1.0000
  Fe  Fe34      1.0  0.24679  0.02997  0.46605  1.0000
  H   H230      1.0  0.28331  0.21352  0.34068  1.0000
  H   H231      1.0  0.00228  0.00254  0.34890  1.0000
  H   H232      1.0  0.25845  0.18601  0.40823  1.0000
  H   H233      1.0  0.29227  0.24509  0.35215  1.0000
  C   C205      1.0  0.24296  0.48386  0.37120  1.0000
  C   C206      1.0  0.15965  0.46718  0.35118  1.0000
  N   N13       1.0  0.20154  0.10048  0.37497  1.0000
  C   C207      1.0  0.18425  0.08407  0.37429  1.0000
  C   C208      1.0  0.20748  0.09483  0.38908  1.0000
  C   C209      1.0  0.22450  0.09764  0.36486  1.0000
  C   C210      1.0  0.24353  0.11097  0.36477  1.0000
  C   C211      1.0  0.22858  0.08215  0.35478  1.0000
  C   C212      1.0  0.26547  0.10849  0.35543  1.0000
  C   C213      1.0  0.25058  0.07989  0.34546  1.0000
  C   C214      1.0  0.26904  0.09287  0.34585  1.0000
  H   H234      1.0  0.19948  0.13962  0.37398  1.0000
  H   H235      1.0  0.17751  0.08851  0.36430  1.0000
  H   H236      1.0  0.19305  0.06444  0.37577  1.0000
  H   H237      1.0  0.21741  0.10850  0.39122  1.0000
  C   C215      1.0  0.15077  0.03764  0.40739  1.0000
  H   H238      1.0  0.21922  0.07648  0.39087  1.0000
  H   H239      1.0  0.24137  0.12379  0.37176  1.0000
  H   H240      1.0  0.21493  0.07192  0.35367  1.0000
  H   H241      1.0  0.30583  0.48040  0.36528  1.0000
  H   H242      1.0  0.25308  0.06840  0.33768  1.0000
  C   C216      1.0  0.31524  0.15669  0.43474  1.0000
  H   H243      1.0  0.32248  0.15201  0.40057  1.0000
  H   H244      1.0  0.32797  0.45733  0.46060  1.0000
  H   H245      1.0  0.27439  0.45611  0.36529  1.0000
  C   C217      1.0  0.18312  0.09842  0.26732  1.0000
  C   C218      1.0  0.27922  0.14264  0.39849  1.0000
  C   C219      1.0  0.26668  0.13427  0.41178  1.0000
  C   C220      1.0  0.28474  0.12608  0.38892  1.0000
  C   C221      1.0  0.26005  0.11086  0.41517  1.0000
  C   C222      1.0  0.28865  0.01409  0.41828  1.0000
  H   H246      1.0  0.07927  0.06213  0.39219  1.0000
  H   H247      1.0  0.16983  0.04996  0.26857  1.0000
  C   C223      1.0  0.32252  0.30811  0.37390  1.0000
  N   N14       1.0  0.19394  0.07963  0.27798  1.0000
  H   H248      1.0  0.26195  0.21229  0.24181  1.0000
  H   H249      1.0  0.17237  0.07622  0.30598  1.0000
  H   H250      1.0  0.29928  0.09140  0.43800  1.0000
  H   H251      1.0  0.32213  0.15431  0.38266  1.0000
  C   C224      1.0  0.01737  0.05928  0.40185  1.0000
  H   H252      1.0  0.26213  0.14522  0.41988  1.0000
  H   H253      1.0  0.18473  0.47033  0.37371  1.0000
  S   S70       1.0  0.16108  0.07541  0.48170  1.0000
  H   H254      1.0  0.07324  0.02449  0.40611  1.0000
  C   C225      1.0  0.16448  0.05050  0.27941  1.0000
  H   H255      1.0  0.03636  0.05802  0.42485  1.0000
  H   H256      1.0  0.30933  0.29738  0.37191  1.0000
  C   C226      1.0  0.04644  0.06629  0.41492  1.0000
  C   C227      1.0  0.27884  0.18269  0.40546  1.0000
  C   C228      1.0  0.32598  0.11555  0.42930  1.0000
  H   H257      1.0  0.14550  0.47232  0.35955  1.0000
  H   H258      1.0  0.31405  0.38890  0.38513  1.0000
  C   C229      1.0  0.05960  0.06585  0.39088  1.0000
  C   C230      1.0  0.02100  0.46963  0.40275  1.0000
  H   H259      1.0  0.14139  0.05206  0.31805  1.0000
  H   H260      1.0  0.17739  0.09003  0.25960  1.0000
  C   C231      1.0  0.17495  0.06514  0.28593  1.0000
  C   C232      1.0  0.02775  0.47492  0.41426  1.0000
  H   H261      1.0  0.29671  0.45537  0.39269  1.0000
  H   H262      1.0  0.28582  0.09153  0.33838  1.0000
  H   H263      1.0  0.04454  0.01928  0.41621  1.0000
  C   C233      1.0  0.15041  0.04518  0.41990  1.0000
  C   C234      1.0  0.21473  0.06325  0.27112  1.0000
  H   H264      1.0  0.26301  0.48292  0.40155  1.0000
  H   H265      1.0  0.16669  0.11045  0.27196  1.0000
  C   C235      1.0  0.32180  0.40295  0.37749  1.0000
  C   C236      1.0  0.26837  0.47424  0.36804  1.0000
  N   N15       1.0  0.04365  0.05513  0.40330  1.0000
  H   H266      1.0  0.31193  0.32323  0.37936  1.0000
  C   C237      1.0  0.31305  0.41042  0.36499  1.0000
  H   H267      1.0  0.18499  0.13148  0.36174  1.0000
  C   C238      1.0  0.26562  0.09515  0.40553  1.0000
  H   H268      1.0  0.21912  0.10248  0.28032  1.0000
  C   C239      1.0  0.31207  0.18549  0.34790  1.0000
  H   H269      1.0  0.28694  0.17432  0.41484  1.0000
  H   H270      1.0  0.16758  0.08577  0.38234  1.0000
  C   C240      1.0  0.18981  0.47843  0.33135  1.0000
  C   C241      1.0  0.27266  0.20453  0.26980  1.0000
  C   C242      1.0  0.20109  0.00003  0.30374  1.0000
  H   H271      1.0  0.28266  0.19941  0.37917  1.0000
  Fe  Fe35      1.0  0.12276  0.02925  0.38102  1.0000
  S   S71       1.0  0.12278  0.03554  0.40255  1.0000
  H   H272      1.0  0.22958  0.07354  0.26528  1.0000
  C   C243      1.0  0.27734  0.18079  0.38218  1.0000
  C   C244      1.0  0.30995  0.44569  0.42483  1.0000
  H   H273      1.0  0.19653  0.11043  0.26146  1.0000
  H   H274      1.0  0.17182  0.05371  0.43344  1.0000
  H   H275      1.0  0.31663  0.22389  0.24388  1.0000
  C   C245      1.0  0.20427  0.09252  0.28650  1.0000
  H   H276      1.0  0.30786  0.32015  0.34998  1.0000
  C   C246      1.0  0.16592  0.06542  0.30010  1.0000
  H   H277      1.0  0.19462  0.48593  0.38495  1.0000
  C   C247      1.0  0.30334  0.22701  0.35301  1.0000
  N   N16       1.0  0.29538  0.20116  0.25958  1.0000
  N   N17       1.0  0.30755  0.46066  0.41114  1.0000
  H   H278      1.0  0.26057  0.07697  0.40830  1.0000
  H   H279      1.0  0.28443  0.17156  0.37309  1.0000
  H   H280      1.0  0.00280  0.00465  0.38657  1.0000
  H   H281      1.0  0.05455  0.08618  0.38853  1.0000
  H   H282      1.0  0.27954  0.11929  0.35529  1.0000
  H   H283      1.0  0.19495  0.01516  0.32235  1.0000
  H   H284      1.0  0.28249  0.09039  0.38496  1.0000
  S   S72       1.0  0.18627  0.02109  0.24747  1.0000
  H   H285      1.0  0.20688  0.12095  0.47115  1.0000
  H   H286      1.0  0.30529  0.48014  0.26952  1.0000
  H   H287      1.0  0.00346  0.07217  0.34674  1.0000
  C   C248      1.0  0.05302  0.02834  0.40606  1.0000
  H   H288      1.0  0.20913  0.05454  0.26351  1.0000
  H   H289      1.0  0.05865  0.05795  0.38176  1.0000
  C   C249      1.0  0.29828  0.20915  0.34648  1.0000
  H   H290      1.0  0.04196  0.01903  0.37526  1.0000
  C   C250      1.0  0.29235  0.47002  0.26741  1.0000
  H   H291      1.0  0.28039  0.16433  0.44787  1.0000
  H   H292      1.0  0.22592  0.34378  0.37660  1.0000
  H   H293      1.0  0.22298  0.04833  0.27870  1.0000
  H   H294      1.0  0.01995  0.08214  0.38134  1.0000
  N   N18       1.0  0.21233  0.31850  0.33767  1.0000
  C   C251      1.0  0.21701  0.29609  0.33121  1.0000
  C   C252      1.0  0.18525  0.32482  0.34175  1.0000
  C   C253      1.0  0.22098  0.33880  0.32724  1.0000
  C   C254      1.0  0.22516  0.31530  0.34957  1.0000
  C   C255      1.0  0.24568  0.29645  0.35171  1.0000
  C   C256      1.0  0.21860  0.33245  0.35882  1.0000
  C   C257      1.0  0.25807  0.29445  0.36273  1.0000
  C   C258      1.0  0.23106  0.33021  0.36983  1.0000
  C   C259      1.0  0.25067  0.31119  0.37181  1.0000
  H   H295      1.0  0.21244  0.27975  0.33884  1.0000
  H   H296      1.0  0.20615  0.29823  0.32281  1.0000
  H   H297      1.0  0.23643  0.29195  0.32623  1.0000
  H   H298      1.0  0.17835  0.31146  0.35071  1.0000
  H   H299      1.0  0.17524  0.32489  0.33325  1.0000
  H   H300      1.0  0.17948  0.34363  0.34439  1.0000
  H   H301      1.0  0.24137  0.33556  0.32452  1.0000
  H   H302      1.0  0.21324  0.34110  0.31763  1.0000
  H   H303      1.0  0.21578  0.35667  0.33103  1.0000
  H   H304      1.0  0.25296  0.28334  0.34482  1.0000
  H   H305      1.0  0.20450  0.34838  0.35729  1.0000
  H   H306      1.0  0.27381  0.28005  0.36406  1.0000
  C   C260      1.0  0.30585  0.02947  0.41744  1.0000
  C   C261      1.0  0.00971  0.48238  0.42490  1.0000
  H   H307      1.0  0.13305  0.04935  0.42655  1.0000
  C   C262      1.0  0.22740  0.44556  0.38025  1.0000
  H   H308      1.0  0.25084  0.10478  0.42545  1.0000
  C   C263      1.0  0.02518  0.02725  0.37136  1.0000
  H   H309      1.0  0.12482  0.02590  0.30631  1.0000
  H   H310      1.0  0.02267  0.00506  0.28441  1.0000
  H   H311      1.0  0.25693  0.18313  0.38381  1.0000
  H   H312      1.0  0.24527  0.43369  0.37730  1.0000
  H   H313      1.0  0.06614  0.06369  0.41616  1.0000
  H   H314      1.0  0.30263  0.02104  0.47244  1.0000
  H   H315      1.0  0.22712  0.15392  0.47099  1.0000
  N   N19       1.0  0.20727  0.13533  0.48945  1.0000
  H   H316      1.0  0.17387  0.02600  0.38937  1.0000
  C   C264      1.0  0.19843  0.48176  0.37430  1.0000
  H   H317      1.0  0.29473  0.13097  0.37871  1.0000
  S   S73       1.0  0.15398  0.01021  0.36729  1.0000
  H   H318      1.0  0.21305  0.45284  0.35571  1.0000
  C   C265      1.0  0.29195  0.18602  0.24986  1.0000
  H   H319      1.0  0.21293  0.43449  0.38039  1.0000
  C   C266      1.0  0.00824  0.07355  0.39005  1.0000
  H   H320      1.0  0.32136  0.18133  0.38962  1.0000
  H   H321      1.0  0.22476  0.48108  0.34897  1.0000
  C   C267      1.0  0.29224  0.48488  0.41275  1.0000
  H   H322      1.0  0.19226  0.10460  0.48651  1.0000
  H   H323      1.0  0.31834  0.20207  0.27430  1.0000
  C   C268      1.0  0.30576  0.16218  0.24886  1.0000
  C   C269      1.0  0.31441  0.16352  0.39171  1.0000
  H   H324      1.0  0.30393  0.23709  0.25917  1.0000
  H   H325      1.0  0.30911  0.34805  0.35558  1.0000
  C   C270      1.0  0.22695  0.46381  0.35657  1.0000
  C   C271      1.0  0.27365  0.19468  0.24135  1.0000
  H   H326      1.0  0.21415  0.47991  0.26907  1.0000
  H   H327      1.0  0.17713  0.13401  0.47943  1.0000
  H   H328      1.0  0.01511  0.48676  0.43376  1.0000
  C   C272      1.0  0.32214  0.22120  0.36098  1.0000
  H   H329      1.0  0.24519  0.45293  0.35333  1.0000
  H   H330      1.0  0.32153  0.42735  0.42404  1.0000
  C   C273      1.0  0.31991  0.02621  0.42778  1.0000
  C   C274      1.0  0.31662  0.00778  0.43911  1.0000
  Fe  Fe36      1.0  0.12509  0.99396  0.36123  1.0000
  C   C275      1.0  0.32068  0.33176  0.35153  1.0000
  C   C276      1.0  0.31602  0.19006  0.26724  1.0000
  C   C277      1.0  0.21448  0.15805  0.48057  1.0000
  H   H331      1.0  0.31933  0.15351  0.25530  1.0000
  H   H332      1.0  0.29068  0.49076  0.24705  1.0000
  H   H333      1.0  0.19936  0.49222  0.32455  1.0000
  H   H334      1.0  0.32718  0.00561  0.44732  1.0000
  H   H335      1.0  0.00136  0.99357  0.33288  1.0000
  C   C278      1.0  0.20083  0.49283  0.27514  1.0000
  Fe  Fe37      1.0  0.29854  0.05057  0.72143  1.0000
  S   S74       1.0  0.25937  0.06801  0.72733  1.0000
  Fe  Fe38      1.0  0.28350  0.01831  0.70366  1.0000
  S   S75       1.0  0.24328  0.03248  0.70922  1.0000
  H   H336      1.0  0.15809  0.38768  0.62859  1.0000
  Fe  Fe39      1.0  0.25534  0.06936  0.70539  1.0000
  S   S76       1.0  0.24067  0.09952  0.68912  1.0000
  Fe  Fe40      1.0  0.25153  0.02945  0.73053  1.0000
  H   H337      1.0  0.03877  0.45614  0.63882  1.0000
  S   S77       1.0  0.29559  0.05522  0.69915  1.0000
  Fe  Fe41      1.0  0.11943  0.18429  0.67564  1.0000
  S   S78       1.0  0.14405  0.19459  0.65576  1.0000
  S   S79       1.0  0.13249  0.16062  0.69461  1.0000
  Fe  Fe42      1.0  0.07282  0.20716  0.66348  1.0000
  S   S80       1.0  0.09403  0.21786  0.64256  1.0000
  S   S81       1.0  0.03219  0.22148  0.66619  1.0000
  Fe  Fe43      1.0  0.11733  0.18081  0.64647  1.0000
  S   S82       1.0  0.13263  0.15139  0.63340  1.0000
  Fe  Fe44      1.0  0.11825  0.23074  0.65400  1.0000
  S   S83       1.0  0.12747  0.26884  0.64549  1.0000
  S   S84       1.0  0.09383  0.16884  0.66644  1.0000
  S   S85       1.0  0.09579  0.22177  0.67477  1.0000
  Fe  Fe45      1.0  0.14200  0.42212  0.65688  1.0000
  S   S86       1.0  0.12654  0.45270  0.66881  1.0000
  S   S87       1.0  0.16653  0.43115  0.63681  1.0000
  Fe  Fe46      1.0  0.12065  0.38346  0.67918  1.0000
  S   S88       1.0  0.10376  0.41101  0.69322  1.0000
  S   S89       1.0  0.11637  0.34363  0.68662  1.0000
  Fe  Fe47      1.0  0.09263  0.43493  0.67404  1.0000
  S   S90       1.0  0.05509  0.45639  0.67151  1.0000
  Fe  Fe48      1.0  0.13922  0.42619  0.68670  1.0000
  S   S91       1.0  0.16400  0.43369  0.70006  1.0000
  S   S92       1.0  0.10715  0.40646  0.66048  1.0000
  S   S93       1.0  0.15714  0.39645  0.67431  1.0000
  Fe  Fe49      1.0  0.11748  0.05049  0.59352  1.0000
  S   S94       1.0  0.13217  0.08067  0.57801  1.0000
  S   S95       1.0  0.13799  0.03425  0.61117  1.0000
  Fe  Fe50      1.0  0.07194  0.05569  0.58018  1.0000
  S   S96       1.0  0.08357  0.08604  0.56333  1.0000
  S   S97       1.0  0.03455  0.04436  0.58734  1.0000
  Fe  Fe51      1.0  0.12151  0.06277  0.56251  1.0000
  S   S98       1.0  0.15465  0.05344  0.54632  1.0000
  Fe  Fe52      1.0  0.09350  0.10085  0.58032  1.0000
  S   S99       1.0  0.08113  0.13920  0.58523  1.0000
  S   S100      1.0  0.10886  0.03116  0.57811  1.0000
  S   S101      1.0  0.07983  0.07212  0.59700  1.0000
  H   H338      1.0  0.21307  0.03027  0.55451  1.0000
  C   C279      1.0  0.15525  0.05887  0.52845  1.0000
  C   C280      1.0  0.13491  0.07139  0.52248  1.0000
  C   C281      1.0  0.13675  0.07615  0.50810  1.0000
  C   C282      1.0  0.15881  0.06825  0.49968  1.0000
  C   C283      1.0  0.17901  0.05550  0.50571  1.0000
  C   C284      1.0  0.17729  0.05106  0.52003  1.0000
  H   H339      1.0  0.11787  0.07755  0.52889  1.0000
  H   H340      1.0  0.12105  0.08602  0.50348  1.0000
  C   C285      1.0  0.12561  0.46856  0.60147  1.0000
  H   H341      1.0  0.19316  0.04166  0.52459  1.0000
  H   H342      1.0  0.03389  0.14062  0.60593  1.0000
  C   C286      1.0  0.01317  0.19990  0.66679  1.0000
  H   H343      1.0  0.04175  0.04833  0.55755  1.0000
  C   C287      1.0  0.28971  0.04156  0.65596  1.0000
  C   C288      1.0  0.23361  0.01382  0.64334  1.0000
  C   C289      1.0  0.03290  0.43685  0.67651  1.0000
  C   C290      1.0  0.03837  0.41374  0.68444  1.0000
  C   C291      1.0  0.16619  0.16710  0.51814  1.0000
  H   H344      1.0  0.99968  0.24710  0.63551  1.0000
  H   H345      1.0  0.05618  0.40784  0.68756  1.0000
  H   H346      1.0  0.04307  0.28121  0.66459  1.0000
  C   C292      1.0  0.09491  0.14293  0.59877  1.0000
  C   C293      1.0  0.08853  0.16475  0.60432  1.0000
  C   C294      1.0  0.09953  0.16751  0.61521  1.0000
  C   C295      1.0  0.11718  0.14855  0.62039  1.0000
  C   C296      1.0  0.12320  0.12670  0.61495  1.0000
  C   C297      1.0  0.11194  0.12381  0.60430  1.0000
  H   H347      1.0  0.07530  0.17960  0.60012  1.0000
  H   H348      1.0  0.09485  0.18447  0.61935  1.0000
  H   H349      1.0  0.13673  0.11193  0.61894  1.0000
  H   H350      1.0  0.11663  0.10674  0.60035  1.0000
  C   C298      1.0  0.12286  0.28971  0.65705  1.0000
  C   C299      1.0  0.12176  0.31493  0.65197  1.0000
  C   C300      1.0  0.11894  0.33182  0.66097  1.0000
  C   C301      1.0  0.11758  0.32349  0.67507  1.0000
  C   C302      1.0  0.11792  0.29838  0.68016  1.0000
  C   C303      1.0  0.12049  0.28154  0.67119  1.0000
  H   H351      1.0  0.12340  0.32134  0.64104  1.0000
  H   H352      1.0  0.11819  0.35120  0.65706  1.0000
  H   H353      1.0  0.11688  0.29184  0.69107  1.0000
  H   H354      1.0  0.12156  0.26215  0.67521  1.0000
  C   C304      1.0  0.05018  0.29230  0.69184  1.0000
  H   H355      1.0  0.03914  0.16838  0.67355  1.0000
  H   H356      1.0  0.05864  0.47175  0.57696  1.0000
  C   C305      1.0  0.15033  0.44593  0.62348  1.0000
  C   C306      1.0  0.16095  0.46272  0.61290  1.0000
  H   H357      1.0  0.20669  0.02512  0.62992  1.0000
  C   C307      1.0  0.14840  0.47439  0.60203  1.0000
  C   C308      1.0  0.01251  0.49204  0.58347  1.0000
  C   C309      1.0  0.18654  0.30931  0.64116  1.0000
  H   H358      1.0  0.19466  0.37790  0.64763  1.0000
  C   C310      1.0  0.02379  0.27003  0.63880  1.0000
  H   H359      1.0  0.29708  0.04474  0.64480  1.0000
  C   C311      1.0  0.18142  0.28933  0.66490  1.0000
  C   C312      1.0  0.16499  0.46317  0.70321  1.0000
  H   H360      1.0  0.20498  0.02694  0.68312  1.0000
  S   S102      1.0  0.29923  0.99332  0.68781  1.0000
  H   H361      1.0  0.30204  0.04791  0.66145  1.0000
  H   H362      1.0  0.20358  0.45407  0.70424  1.0000
  H   H363      1.0  0.15274  0.37589  0.64651  1.0000
  C   C313      1.0  0.21061  0.11633  0.69114  1.0000
  C   C314      1.0  0.19357  0.11204  0.70313  1.0000
  C   C315      1.0  0.16973  0.12598  0.70418  1.0000
  C   C316      1.0  0.16276  0.14402  0.69322  1.0000
  C   C317      1.0  0.17981  0.14807  0.68124  1.0000
  C   C318      1.0  0.20363  0.13435  0.68022  1.0000
  H   H364      1.0  0.19882  0.09822  0.71162  1.0000
  H   H365      1.0  0.15664  0.12277  0.71351  1.0000
  H   H366      1.0  0.17484  0.16203  0.67281  1.0000
  H   H367      1.0  0.21680  0.13791  0.67097  1.0000
  H   H368      1.0  0.17632  0.35054  0.66320  1.0000
  C   C319      1.0  0.00498  0.31188  0.64124  1.0000
  H   H369      1.0  0.04270  0.44904  0.58859  1.0000
  H   H370      1.0  0.01426  0.14566  0.58443  1.0000
  H   H371      1.0  0.18896  0.30690  0.63060  1.0000
  H   H372      1.0  0.17968  0.27288  0.67247  1.0000
  C   C320      1.0  0.02375  0.14764  0.61542  1.0000
  S   S103      1.0  0.29073  0.01195  0.72529  1.0000
  H   H373      1.0  0.06756  0.28265  0.69478  1.0000
  H   H374      1.0  0.19402  0.99964  0.66970  1.0000
  C   C321      1.0  0.24829  0.04673  0.65069  1.0000
  C   C322      1.0  0.02110  0.17476  0.67074  1.0000
  H   H375      1.0  0.00074  0.27021  0.66852  1.0000
  C   C323      1.0  0.01999  0.06522  0.62127  1.0000
  C   C324      1.0  0.12718  0.44066  0.62314  1.0000
  C   C325      1.0  0.00667  0.04485  0.55302  1.0000
  C   C326      1.0  0.15902  0.37038  0.63622  1.0000
  H   H376      1.0  0.03912  0.25501  0.63866  1.0000
  C   C327      1.0  0.21820  0.03113  0.63562  1.0000
  C   C328      1.0  0.18147  0.11992  0.51170  1.0000
  H   H377      1.0  0.27092  0.08777  0.64526  1.0000
  H   H378      1.0  0.14522  0.14985  0.53652  1.0000
  H   H379      1.0  0.15683  0.43306  0.73316  1.0000
  C   C329      1.0  0.02058  0.39832  0.68866  1.0000
  C   C330      1.0  0.05029  0.46618  0.58784  1.0000
  C   C331      1.0  0.20018  0.40960  0.73374  1.0000
  H   H380      1.0  0.25940  0.00728  0.65694  1.0000
  H   H381      1.0  0.06203  0.32761  0.68715  1.0000
  H   H382      1.0  0.17452  0.31312  0.67994  1.0000
  H   H383      1.0  0.06581  0.46152  0.59371  1.0000
  C   C332      1.0  0.23202  0.06393  0.64289  1.0000
  H   H384      1.0  0.15878  0.10805  0.53085  1.0000
  H   H385      1.0  0.20494  0.06949  0.62961  1.0000
  C   C333      1.0  0.18714  0.46753  0.70585  1.0000
  H   H386      1.0  0.01141  0.13848  0.67464  1.0000
  C   C334      1.0  0.14392  0.48103  0.70479  1.0000
  H   H387      1.0  0.02142  0.15354  0.64206  1.0000
  C   C335      1.0  0.14870  0.00249  0.61281  1.0000
  C   C336      1.0  0.02048  0.47762  0.60735  1.0000
  C   C337      1.0  0.11505  0.45163  0.61201  1.0000
  H   H388      1.0  0.17855  0.34290  0.61727  1.0000
  C   C338      1.0  0.01555  0.10713  0.62616  1.0000
  C   C339      1.0  0.24827  0.02145  0.65085  1.0000
  H   H389      1.0  0.25420  0.02716  0.67652  1.0000
  H   H390      1.0  0.14547  0.35975  0.63456  1.0000
  H   H391      1.0  0.20300  0.38729  0.62986  1.0000
  H   H392      1.0  0.26597  0.05185  0.68011  1.0000
  H   H393      1.0  0.16009  0.18541  0.52069  1.0000
  C   C340      1.0  0.03097  0.27938  0.69250  1.0000
  H   H394      1.0  0.24987  0.02386  0.57644  1.0000
  N   N20       1.0  0.14906  0.09443  0.66667  1.0000
  C   C341      1.0  0.12787  0.10054  0.65913  1.0000
  C   C342      1.0  0.13956  0.09991  0.68076  1.0000
  C   C343      1.0  0.16696  0.11093  0.65975  1.0000
  C   C344      1.0  0.16144  0.06851  0.66720  1.0000
  C   C345      1.0  0.17996  0.05881  0.67549  1.0000
  C   C346      1.0  0.15594  0.05233  0.65944  1.0000
  C   C347      1.0  0.19131  0.03418  0.67647  1.0000
  C   C348      1.0  0.16757  0.02780  0.66042  1.0000
  C   C349      1.0  0.18507  0.01870  0.66898  1.0000
  H   H395      1.0  0.11391  0.08841  0.66364  1.0000
  H   H396      1.0  0.11836  0.11981  0.65940  1.0000
  H   H397      1.0  0.13379  0.09940  0.64803  1.0000
  H   H398      1.0  0.12718  0.08693  0.68667  1.0000
  H   H399      1.0  0.12903  0.11893  0.68066  1.0000
  H   H400      1.0  0.15444  0.09902  0.68670  1.0000
  H   H401      1.0  0.17403  0.10801  0.64899  1.0000
  H   H402      1.0  0.15838  0.13067  0.65931  1.0000
  H   H403      1.0  0.18295  0.10812  0.66516  1.0000
  H   H404      1.0  0.18574  0.07018  0.68134  1.0000
  H   H405      1.0  0.14266  0.05810  0.65254  1.0000
  H   H406      1.0  0.18793  0.17995  0.49945  1.0000
  C   C350      1.0  0.99754  0.40547  0.68451  1.0000
  C   C351      1.0  0.15882  0.44719  0.73852  1.0000
  C   C352      1.0  0.03586  0.47078  0.61757  1.0000
  C   C353      1.0  0.18528  0.28801  0.65098  1.0000
  H   H407      1.0  0.00527  0.46225  0.66653  1.0000
  C   C354      1.0  0.32422  0.10458  0.72744  1.0000
  N   N21       1.0  0.05030  0.29762  0.64340  1.0000
  C   C355      1.0  0.05776  0.28015  0.65552  1.0000
  C   C356      1.0  0.06932  0.29344  0.63124  1.0000
  C   C357      1.0  0.04988  0.32284  0.64592  1.0000
  C   C358      1.0  0.02635  0.29342  0.64108  1.0000
  H   H408      1.0  0.16316  0.03369  0.57320  1.0000
  H   H409      1.0  0.32125  0.14408  0.72363  1.0000
  H   H410      1.0  0.05982  0.13828  0.63059  1.0000
  H   H411      1.0  0.03152  0.16403  0.61608  1.0000
  H   H412      1.0  0.29175  0.02138  0.65956  1.0000
  H   H413      1.0  0.19627  0.41802  0.72325  1.0000
  H   H414      1.0  0.07475  0.28377  0.65828  1.0000
  H   H415      1.0  0.19116  0.02599  0.59784  1.0000
  H   H416      1.0  0.07294  0.27400  0.62960  1.0000
  H   H417      1.0  0.08736  0.29754  0.63236  1.0000
  H   H418      1.0  0.06375  0.30519  0.62175  1.0000
  H   H419      1.0  0.03636  0.32696  0.65516  1.0000
  H   H420      1.0  0.06808  0.32523  0.64782  1.0000
  H   H421      1.0  0.04537  0.33697  0.63696  1.0000
  S   S104      1.0  0.11014  0.48233  0.58771  1.0000
  C   C359      1.0  0.22037  0.00242  0.57889  1.0000
  H   H422      1.0  0.22660  0.10041  0.49833  1.0000
  H   H423      1.0  0.00422  0.15413  0.61408  1.0000
  H   H424      1.0  0.21987  0.35962  0.63826  1.0000
  H   H425      1.0  0.27668  0.08589  0.66236  1.0000
  C   C360      1.0  0.22483  0.43959  0.73410  1.0000
  C   C361      1.0  0.21727  0.05611  0.63547  1.0000
  C   C362      1.0  0.24488  0.00574  0.57861  1.0000
  N   N22       1.0  0.26386  0.05421  0.65887  1.0000
  H   H426      1.0  0.11897  0.42758  0.63121  1.0000
  H   H427      1.0  0.00358  0.47604  0.58350  1.0000
  H   H428      1.0  0.18642  0.27042  0.64781  1.0000
  C   C363      1.0  0.19191  0.35179  0.62058  1.0000
  H   H429      1.0  0.06177  0.26078  0.65381  1.0000
  H   H430      1.0  0.02481  0.38073  0.69509  1.0000
  H   H431      1.0  0.21277  0.04547  0.58863  1.0000
  C   C364      1.0  0.04718  0.31763  0.68746  1.0000
  C   C365      1.0  0.20860  0.04036  0.56336  1.0000
  C   C366      1.0  0.17971  0.33339  0.65937  1.0000
  C   C367      1.0  0.20120  0.37062  0.63783  1.0000
  H   H432      1.0  0.19362  0.05604  0.56104  1.0000
  H   H433      1.0  0.01283  0.04696  0.54205  1.0000
  H   H434      1.0  0.21046  0.34029  0.61911  1.0000
  C   C368      1.0  0.00964  0.44429  0.67257  1.0000
  C   C369      1.0  0.16545  0.12357  0.52389  1.0000
  H   H435      1.0  0.09751  0.44696  0.61157  1.0000
  C   C370      1.0  0.18393  0.33274  0.64508  1.0000
  N   N23       1.0  0.03094  0.48591  0.59287  1.0000
  H   H436      1.0  0.07854  0.48899  0.63320  1.0000
  H   H437      1.0  0.02261  0.34990  0.68022  1.0000
  C   C371      1.0  0.25437  0.04718  0.67360  1.0000
  H   H438      1.0  0.22465  0.04883  0.56365  1.0000
  H   H439      1.0  0.23030  0.08351  0.64240  1.0000
  C   C372      1.0  0.02304  0.04565  0.56177  1.0000
  C   C373      1.0  0.26431  0.08107  0.65626  1.0000
  H   H440      1.0  0.16298  0.01571  0.65448  1.0000
  H   H441      1.0  0.03441  0.11868  0.57011  1.0000
  C   C374      1.0  0.17864  0.31198  0.66908  1.0000
  H   H442      1.0  0.19290  0.36947  0.61334  1.0000
  H   H443      1.0  0.24592  0.09178  0.65955  1.0000
  H   H444      1.0  0.23538  0.05697  0.67645  1.0000
  H   H445      1.0  0.06417  0.11624  0.61961  1.0000
  C   C375      1.0  0.00805  0.29164  0.68864  1.0000
  C   C376      1.0  0.01515  0.04271  0.57594  1.0000
  C   C377      1.0  0.00585  0.31739  0.68395  1.0000
  C   C378      1.0  0.03032  0.08435  0.62363  1.0000
  H   H446      1.0  0.22178  0.44972  0.72381  1.0000
  C   C379      1.0  0.19035  0.13983  0.50230  1.0000
  H   H447      1.0  0.18095  0.05366  0.58685  1.0000
  C   C380      1.0  0.00535  0.15789  0.67143  1.0000
  H   H448      1.0  0.05520  0.47213  0.61502  1.0000
  C   C381      1.0  0.17727  0.01720  0.57527  1.0000
  N   N24       1.0  0.18413  0.35584  0.63503  1.0000
  H   H449      1.0  0.04998  0.08090  0.62322  1.0000
  H   H450      1.0  0.01196  0.12433  0.64934  1.0000
  H   H451      1.0  0.03468  0.25977  0.69591  1.0000
  N   N25       1.0  0.20094  0.02396  0.57635  1.0000
  H   H452      1.0  0.09373  0.47750  0.64765  1.0000
  H   H453      1.0  0.23924  0.12683  0.49932  1.0000
  H   H454      1.0  0.01154  0.10122  0.59309  1.0000
  C   C382      1.0  0.19636  0.03792  0.58787  1.0000
  C   C383      1.0  0.18225  0.16365  0.50591  1.0000
  N   N26       1.0  0.02610  0.12840  0.62768  1.0000
  C   C384      1.0  0.18801  0.48870  0.71098  1.0000
  C   C385      1.0  0.02669  0.46163  0.63118  1.0000
  H   H455      1.0  0.19598  0.04911  0.49935  1.0000
  C   C386      1.0  0.02504  0.33013  0.68354  1.0000
  H   H456      1.0  0.00497  0.33028  0.64286  1.0000
  H   H457      1.0  0.17888  0.46679  0.61312  1.0000
  H   H458      1.0  0.31130  0.10446  0.72080  1.0000
  H   H459      1.0  0.18670  0.10133  0.50964  1.0000
  H   H460      1.0  0.12450  0.99520  0.60055  1.0000
  H   H461      1.0  0.12671  0.47773  0.70286  1.0000
  C   C387      1.0  0.15779  0.14712  0.52709  1.0000
  C   C388      1.0  0.23012  0.11886  0.49279  1.0000
  H   H462      1.0  0.30635  0.99722  0.52285  1.0000
  H   H463      1.0  0.03172  0.04833  0.61882  1.0000
  C   C389      1.0  0.00127  0.26526  0.63700  1.0000
  C   C390      1.0  0.05255  0.12215  0.62905  1.0000
  H   H464      1.0  0.17927  0.00657  0.56680  1.0000
  H   H465      1.0  0.05564  0.10736  0.63795  1.0000
  H   H466      1.0  0.01703  0.12987  0.55629  1.0000
  H   H467      1.0  0.32515  0.37432  0.73557  1.0000
  H   H468      1.0  0.02009  0.09816  0.56446  1.0000
  C   C391      1.0  0.01746  0.11740  0.56633  1.0000
  H   H469      1.0  0.30578  0.48646  0.73516  1.0000
  C   C392      1.0  0.01269  0.13878  0.64003  1.0000
  S   S105      1.0  0.32903  0.05383  0.73249  1.0000
  H   H470      1.0  0.17452  0.00352  0.62578  1.0000
  H   H471      1.0  0.16914  0.00664  0.58498  1.0000
  H   H472      1.0  0.00755  0.24150  0.68965  1.0000
  H   H473      1.0  0.24163  0.42552  0.73268  1.0000
  H   H474      1.0  0.15670  0.48734  0.59388  1.0000
  H   H475      1.0  0.21715  0.39568  0.73238  1.0000
  C   C393      1.0  0.00200  0.45911  0.63499  1.0000
  H   H476      1.0  0.23397  0.99430  0.64372  1.0000
  H   H477      1.0  0.12186  0.46512  0.73647  1.0000
  H   H478      1.0  0.19787  0.99619  0.53216  1.0000
  H   H479      1.0  0.22427  0.99618  0.50939  1.0000
  H   H480      1.0  0.20502  0.49141  0.71336  1.0000
  H   H481      1.0  0.18504  0.39936  0.73912  1.0000
  C   C394      1.0  0.99662  0.14692  0.58069  1.0000
  H   H482      1.0  0.22939  0.45287  0.73960  1.0000
  S   S106      1.0  0.22121  0.02793  0.95690  1.0000
  Fe  Fe53      1.0  0.26006  0.03266  0.95684  1.0000
  C   C395      1.0  0.30836  0.99846  0.75994  1.0000
  C   C396      1.0  0.31081  0.47171  0.74330  1.0000
  H   H483      1.0  0.20057  0.45185  0.97148  1.0000
  S   S107      1.0  0.25145  0.04616  0.97715  1.0000
  H   H484      1.0  0.23291  0.03384  0.92302  1.0000
  C   C397      1.0  0.29254  0.46100  0.75271  1.0000
  H   H485      1.0  0.30890  0.01821  0.75580  1.0000
  H   H486      1.0  0.29192  0.09727  0.80339  1.0000
  C   C398      1.0  0.24826  0.02825  0.91482  1.0000
  H   H487      1.0  0.26494  0.03414  0.91665  1.0000
  H   H488      1.0  0.28515  0.43352  0.77050  1.0000
  C   C399      1.0  0.19134  0.47067  0.97152  1.0000
  H   H489      1.0  0.22371  0.48607  0.96180  1.0000
  H   H490      1.0  0.19744  0.46955  0.75350  1.0000
  H   H491      1.0  0.27481  0.47546  0.78123  1.0000
  C   C400      1.0  0.30624  0.03614  0.92806  1.0000
  C   C401      1.0  0.31420  0.01106  0.93207  1.0000
  H   H492      1.0  0.32479  0.13331  0.76458  1.0000
  H   H493      1.0  0.32001  0.14585  0.77990  1.0000
  C   C402      1.0  0.13940  0.48518  0.74668  1.0000
  C   C403      1.0  0.29304  0.11450  0.79588  1.0000
  Fe  Fe54      1.0  0.26136  0.00647  0.98599  1.0000
  H   H494      1.0  0.15695  0.46034  0.98221  1.0000
  C   C404      1.0  0.32387  0.48532  0.81531  1.0000
  C   C405      1.0  0.27553  0.00530  0.89056  1.0000
  H   H495      1.0  0.20597  0.09617  0.98103  1.0000
  C   C406      1.0  0.27460  0.99476  0.90464  1.0000
  C   C407      1.0  0.31195  0.13486  0.77439  1.0000
  S   S108      1.0  0.17800  0.05531  0.98914  1.0000
  C   C408      1.0  0.28183  0.05719  0.77637  1.0000
  H   H496      1.0  0.29549  0.12044  0.75615  1.0000
  H   H497      1.0  0.27399  0.12329  0.79440  1.0000
  C   C409      1.0  0.32146  0.02601  0.96742  1.0000
  C   C410      1.0  0.23061  0.99482  0.91110  1.0000
  C   C411      1.0  0.18835  0.10228  0.98695  1.0000
  C   C412      1.0  0.29657  0.00018  0.88086  1.0000
  C   C413      1.0  0.18107  0.44784  0.74306  1.0000
  H   H498      1.0  0.31613  0.04468  0.97027  1.0000
  N   N27       1.0  0.20303  0.42850  0.74148  1.0000
  C   C414      1.0  0.20804  0.41585  0.75525  1.0000
  Fe  Fe55      1.0  0.21390  0.03717  0.97822  1.0000
  H   H499      1.0  0.31403  0.01282  0.97631  1.0000
  C   C415      1.0  0.29924  0.44184  0.76317  1.0000
  C   C416      1.0  0.32631  0.37679  0.74609  1.0000
  S   S109      1.0  0.28171  0.05263  0.93812  1.0000
  C   C417      1.0  0.32536  0.47077  0.80543  1.0000
  H   H500      1.0  0.31656  0.33251  0.76732  1.0000
  C   C418      1.0  0.32406  0.43359  0.76435  1.0000
  C   C419      1.0  0.29749  0.09531  0.77578  1.0000
  H   H501      1.0  0.29653  0.06441  0.79275  1.0000
  H   H502      1.0  0.30527  0.00131  0.94140  1.0000
  C   C420      1.0  0.18215  0.12662  0.98955  1.0000
  H   H503      1.0  0.32882  0.41911  0.77258  1.0000
  N   N28       1.0  0.30871  0.11032  0.78259  1.0000
  S   S110      1.0  0.23032  0.01543  0.75108  1.0000
  H   H504      1.0  0.26016  0.01804  0.88698  1.0000
  H   H505      1.0  0.21285  0.42848  0.76115  1.0000
  C   C421      1.0  0.29173  0.10316  0.76233  1.0000
  N   N29       1.0  0.25249  0.00138  0.91478  1.0000
  H   H506      1.0  0.30920  0.37209  0.75293  1.0000
  H   H507      1.0  0.31213  0.06790  0.91265  1.0000
  H   H508      1.0  0.32621  0.39671  0.74588  1.0000
  H   H509      1.0  0.27796  0.03934  0.78176  1.0000
  H   H510      1.0  0.29413  0.14597  0.77206  1.0000
  H   H511      1.0  0.30035  0.12681  0.80094  1.0000
  H   H512      1.0  0.26801  0.05428  0.75839  1.0000
  H   H513      1.0  0.24360  0.03923  0.90497  1.0000
  C   C422      1.0  0.16677  0.47551  0.97756  1.0000
  H   H514      1.0  0.23280  0.99789  0.77958  1.0000
  C   C423      1.0  0.16078  0.48623  0.75137  1.0000
  C   C424      1.0  0.29238  0.07176  0.78258  1.0000
  H   H515      1.0  0.22378  0.40041  0.75459  1.0000
  H   H516      1.0  0.31365  0.46703  0.78728  1.0000
  C   C425      1.0  0.31205  0.47919  0.79460  1.0000
  H   H517      1.0  0.27717  0.09471  0.74591  1.0000
  S   S111      1.0  0.26115  0.47082  0.75181  1.0000
  C   C426      1.0  0.28114  0.08845  0.75625  1.0000
  H   H518      1.0  0.21371  0.99956  0.91859  1.0000
  H   H519      1.0  0.29555  0.99710  0.76990  1.0000
  C   C427      1.0  0.27616  0.06556  0.76323  1.0000
  C   C428      1.0  0.31817  0.04847  0.91584  1.0000
  H   H520      1.0  0.19505  0.13927  0.98556  1.0000
  C   C429      1.0  0.18130  0.46783  0.74968  1.0000
  H   H521      1.0  0.31629  0.28895  0.76815  1.0000
  C   C430      1.0  0.20435  0.48999  0.96607  1.0000
  H   H522      1.0  0.19165  0.40825  0.76142  1.0000
  H   H523      1.0  0.29711  0.00881  0.87021  1.0000
  H   H524      1.0  0.31178  0.02597  0.95882  1.0000
  H   H525      1.0  0.22666  0.00469  0.90089  1.0000
  S   S112      1.0  0.22329  0.99792  0.98819  1.0000
  S   S113      1.0  0.27267  0.99342  0.96563  1.0000
  C   C431      1.0  0.32961  0.29811  0.76062  1.0000
  H   H526      1.0  0.16272  0.99333  0.93101  1.0000
  H   H527      1.0  0.19243  0.99458  0.94599  1.0000
  H   H528      1.0  0.26964  0.99400  0.93286  1.0000
  H   H529      1.0  0.31111  0.49246  0.76736  1.0000
  H   H530      1.0  0.23747  0.99394  0.93635  1.0000
  S   S114      1.0  0.24929  0.46829  0.99020  1.0000
  C   C432      1.0  0.13836  0.46562  0.74038  1.0000
  H   H531      1.0  0.30768  0.78264  0.19171  1.0000
  H   H532      1.0  0.26160  0.67400  0.21708  1.0000
  H   H533      1.0  0.25565  0.67097  0.20051  1.0000
  S   S115      1.0  0.26424  0.57057  0.00978  1.0000
  C   C433      1.0  0.20986  0.49915  0.18106  1.0000
  C   C434      1.0  0.29304  0.57765  0.13283  1.0000
  C   C435      1.0  0.16201  0.50870  0.13211  1.0000
  C   C436      1.0  0.32613  0.64129  0.12916  1.0000
  C   C437      1.0  0.22890  0.63501  0.20989  1.0000
  Fe  Fe56      1.0  0.28700  0.54823  0.20642  1.0000
  S   S116      1.0  0.25299  0.57147  0.19975  1.0000
  H   H534      1.0  0.28657  0.57281  0.12443  1.0000
  H   H535      1.0  0.29017  0.51187  0.15960  1.0000
  S   S117      1.0  0.22309  0.52676  0.21655  1.0000
  Fe  Fe57      1.0  0.24511  0.53616  0.19554  1.0000
  H   H536      1.0  0.28505  0.56667  0.16760  1.0000
  H   H537      1.0  0.31544  0.54849  0.00248  1.0000
  S   S118      1.0  0.28020  0.51346  0.20118  1.0000
  C   C438      1.0  0.18763  0.66726  0.22443  1.0000
  H   H538      1.0  0.21352  0.97499  0.23932  1.0000
  H   H539      1.0  0.22522  0.64422  0.19949  1.0000
  C   C439      1.0  0.30451  0.97469  0.20627  1.0000
  H   H540      1.0  0.23077  0.70425  0.21013  1.0000
  H   H541      1.0  0.30004  0.52843  0.07513  1.0000
  H   H542      1.0  0.17819  0.59147  0.21922  1.0000
  C   C440      1.0  0.17711  0.50898  0.11898  1.0000
  C   C441      1.0  0.32830  0.58973  0.19267  1.0000
  H   H543      1.0  0.16563  0.50032  0.01108  1.0000
  C   C442      1.0  0.29218  0.57424  0.15711  1.0000
  C   C443      1.0  0.31021  0.59361  0.13012  1.0000
  C   C444      1.0  0.29644  0.51038  0.10645  1.0000
  H   H544      1.0  0.32481  0.88479  0.19089  1.0000
  H   H545      1.0  0.27218  0.64584  0.21066  1.0000
  N   N30       1.0  0.23300  0.65284  0.21791  1.0000
  H   H546      1.0  0.13650  0.61712  0.22062  1.0000
  H   H547      1.0  0.21957  0.63218  0.23754  1.0000
  H   H548      1.0  0.31468  0.87500  0.16360  1.0000
  C   C445      1.0  0.16957  0.71024  0.22151  1.0000
  C   C446      1.0  0.30909  0.57598  0.03569  1.0000
  C   C447      1.0  0.19812  0.52022  0.11568  1.0000
  H   H549      1.0  0.30729  0.58383  0.04486  1.0000
  H   H550      1.0  0.27828  0.53035  0.04283  1.0000
  H   H551      1.0  0.29822  0.95136  0.19318  1.0000
  H   H552      1.0  0.25156  0.62394  0.23170  1.0000
  C   C448      1.0  0.31195  0.95806  0.19695  1.0000
  C   C449      1.0  0.19270  0.71647  0.21590  1.0000
  C   C450      1.0  0.21346  0.69814  0.21455  1.0000
  C   C451      1.0  0.20455  0.53165  0.12519  1.0000
  H   H553      1.0  0.21314  0.62547  0.21494  1.0000
  H   H554      1.0  0.11596  0.53161  0.13174  1.0000
  H   H555      1.0  0.27031  0.55604  0.14835  1.0000
  H   H556      1.0  0.21218  0.52006  0.07635  1.0000
  H   H557      1.0  0.22097  0.54012  0.12263  1.0000
  H   H558      1.0  0.20977  0.51972  0.10577  1.0000
  C   C452      1.0  0.29068  0.56841  0.01722  1.0000
  C   C453      1.0  0.28859  0.57850  0.02915  1.0000
  C   C454      1.0  0.25652  0.66146  0.21124  1.0000
  C   C455      1.0  0.13711  0.62707  0.24010  1.0000
  C   C456      1.0  0.31353  0.55613  0.01173  1.0000
  H   H559      1.0  0.27103  0.58827  0.03337  1.0000
  C   C457      1.0  0.17057  0.60051  0.22800  1.0000
  H   H560      1.0  0.29584  0.64713  0.18492  1.0000
  H   H561      1.0  0.19534  0.54042  0.14556  1.0000
  H   H562      1.0  0.21915  0.52912  0.04285  1.0000
  C   C458      1.0  0.31156  0.63277  0.18600  1.0000
  S   S119      1.0  0.29835  0.54170  0.10414  1.0000
  S   S120      1.0  0.26952  0.53907  0.22842  1.0000
  C   C459      1.0  0.19006  0.53186  0.13808  1.0000
  H   H563      1.0  0.24538  0.51278  0.15002  1.0000
  H   H564      1.0  0.24507  0.62014  0.20865  1.0000
  C   C460      1.0  0.29994  0.53145  0.06389  1.0000
  H   H565      1.0  0.18464  0.64855  0.22790  1.0000
  C   C461      1.0  0.30801  0.60849  0.19154  1.0000
  C   C462      1.0  0.21150  0.67284  0.21883  1.0000
  H   H566      1.0  0.31666  0.60057  0.11948  1.0000
  H   H567      1.0  0.32471  0.63857  0.11873  1.0000
  H   H568      1.0  0.14902  0.68072  0.23010  1.0000
  C   C463      1.0  0.30933  0.59025  0.15454  1.0000
  C   C464      1.0  0.22661  0.51075  0.17094  1.0000
  Fe  Fe58      1.0  0.23455  0.55973  0.22138  1.0000
  H   H569      1.0  0.10060  0.50768  0.14247  1.0000
  Fe  Fe59      1.0  0.25909  0.50676  0.22257  1.0000
  H   H570      1.0  0.23993  0.65240  0.23822  1.0000
  H   H571      1.0  0.11936  0.52241  0.14946  1.0000
  H   H572      1.0  0.24919  0.53389  0.06228  1.0000
  C   C465      1.0  0.28389  0.56815  0.14629  1.0000
  H   H573      1.0  0.20826  0.50405  1.00000  1.0000
  C   C466      1.0  0.14702  0.61504  0.22880  1.0000
  C   C467      1.0  0.23269  0.50362  0.15796  1.0000
  S   S121      1.0  0.32240  0.58663  0.07215  1.0000
  C   C468      1.0  0.22370  0.51145  0.03941  1.0000
  H   H574      1.0  0.03088  0.85540  0.23558  1.0000
  C   C469      1.0  0.23619  0.63985  0.23192  1.0000
  C   C470      1.0  0.31380  0.49429  0.09909  1.0000
  H   H575      1.0  0.28964  0.60426  0.19483  1.0000
  H   H576      1.0  0.15352  0.72444  0.22259  1.0000
  H   H577      1.0  0.13021  0.53871  0.99199  1.0000
  S   S122      1.0  0.23987  0.53454  0.17405  1.0000
  H   H578      1.0  0.19451  0.73566  0.21257  1.0000
  C   C471      1.0  0.16705  0.68566  0.22575  1.0000
  C   C472      1.0  0.11798  0.51549  0.14010  1.0000
  C   C473      1.0  0.18433  0.59831  0.23844  1.0000
  C   C474      1.0  0.16927  0.52038  0.14157  1.0000
  C   C475      1.0  0.31859  0.60076  0.14090  1.0000
  H   H579      1.0  0.15913  0.52041  0.15186  1.0000
  H   H580      1.0  0.30748  0.64908  0.13410  1.0000
  H   H581      1.0  0.30284  0.86669  0.18957  1.0000
  H   H582      1.0  0.26398  0.51370  0.12184  1.0000
  C   C476      1.0  0.31924  0.79377  0.18413  1.0000
  C   C477      1.0  0.25097  0.51556  0.06820  1.0000
  C   C478      1.0  0.32207  0.98391  0.21098  1.0000
  C   C479      1.0  0.29331  0.51470  0.04485  1.0000
  H   H583      1.0  0.32695  0.85407  0.19986  1.0000
  C   C480      1.0  0.22969  0.50783  0.07619  1.0000
  H   H584      1.0  0.17347  0.50014  0.11118  1.0000
  H   H585      1.0  0.13150  0.50030  0.11561  1.0000
  H   H586      1.0  0.28531  0.54733  0.06157  1.0000
  H   H587      1.0  0.32895  0.50096  0.09195  1.0000
  S   S123      1.0  0.21487  0.58282  0.23741  1.0000
  H   H588      1.0  0.31026  0.82341  0.19521  1.0000
  H   H589      1.0  0.30696  0.98520  0.02729  1.0000
  Fe  Fe60      1.0  0.26789  0.55280  0.99102  1.0000
  C   C481      1.0  0.24152  0.50837  0.02788  1.0000
  H   H590      1.0  0.31481  0.59423  0.16345  1.0000
  H   H591      1.0  0.32494  0.63397  0.15623  1.0000
  C   C482      1.0  0.32092  0.81735  0.18600  1.0000
  H   H592      1.0  0.28519  0.98050  0.20971  1.0000
  S   S124      1.0  0.32476  0.55887  0.19917  1.0000
  H   H593      1.0  0.31555  0.99049  0.13492  1.0000
  H   H594      1.0  0.25074  0.52352  0.02237  1.0000
  H   H595      1.0  0.31024  0.52002  0.03805  1.0000
  C   C483      1.0  0.32256  0.86585  0.19012  1.0000
  C   C484      1.0  0.27705  0.50149  0.11584  1.0000
  C   C485      1.0  0.32370  0.51022  0.14479  1.0000
  C   C486      1.0  0.30247  0.50153  0.15223  1.0000
  H   H596      1.0  0.20480  0.50478  0.19103  1.0000
  N   N31       1.0  0.29644  0.50890  0.05947  1.0000
  C   C487      1.0  0.27422  0.50007  0.06793  1.0000
  H   H597      1.0  0.31764  0.53747  0.05863  1.0000
  N   N32       1.0  0.13962  0.49703  0.13604  1.0000
  H   H598      1.0  0.28915  0.49860  0.04139  1.0000
  H   H599      1.0  0.17380  0.54673  0.99040  1.0000
  H   H600      1.0  0.32688  0.52727  0.14692  1.0000
  H   H601      1.0  0.19755  0.49536  0.05514  1.0000
  Fe  Fe61      1.0  0.09590  0.53099  0.38508  1.0000
  S   S125      1.0  0.10749  0.55905  0.39449  1.0000
  H   H602      1.0  0.31066  0.50089  0.46260  1.0000
  C   C488      1.0  0.25751  0.97974  0.41789  1.0000
  S   S126      1.0  0.15699  0.55644  0.37102  1.0000
  Fe  Fe62      1.0  0.14532  0.53624  0.39213  1.0000
  S   S127      1.0  0.17234  0.52322  0.40732  1.0000
  Fe  Fe63      1.0  0.11813  0.57650  0.37262  1.0000
  S   S128      1.0  0.10477  0.61608  0.36456  1.0000
  H   H603      1.0  0.17002  0.90956  0.30148  1.0000
  S   S129      1.0  0.10440  0.54989  0.36342  1.0000
  Fe  Fe64      1.0  0.26190  0.60241  0.47184  1.0000
  S   S130      1.0  0.28110  0.56527  0.48027  1.0000
  S   S131      1.0  0.26650  0.63922  0.47618  1.0000
  Fe  Fe65      1.0  0.23480  0.58068  0.45414  1.0000
  S   S132      1.0  0.25246  0.54207  0.46109  1.0000
  S   S133      1.0  0.20545  0.59300  0.44050  1.0000
  Fe  Fe66      1.0  0.24454  0.55321  0.48202  1.0000
  H   H604      1.0  0.04634  0.90494  0.32979  1.0000
  Fe  Fe67      1.0  0.28714  0.55790  0.45861  1.0000
  C   C489      1.0  0.14891  0.96382  0.25910  1.0000
  S   S134      1.0  0.22492  0.59093  0.47515  1.0000
  S   S135      1.0  0.27003  0.59595  0.45003  1.0000
  Fe  Fe68      1.0  0.06920  0.90461  0.27483  1.0000
  S   S136      1.0  0.06488  0.89067  0.29739  1.0000
  S   S137      1.0  0.03606  0.91458  0.26415  1.0000
  Fe  Fe69      1.0  0.12390  0.90591  0.27274  1.0000
  S   S138      1.0  0.12343  0.89179  0.29529  1.0000
  S   S139      1.0  0.15966  0.91371  0.25925  1.0000
  Fe  Fe70      1.0  0.10030  0.86535  0.29222  1.0000
  S   S140      1.0  0.10146  0.82546  0.30230  1.0000
  Fe  Fe71      1.0  0.08799  0.91833  0.29798  1.0000
  S   S141      1.0  0.07288  0.94719  0.31136  1.0000
  S   S142      1.0  0.10321  0.87760  0.26946  1.0000
  S   S143      1.0  0.09010  0.93413  0.27567  1.0000
  Fe  Fe72      1.0  0.05523  0.67386  0.28388  1.0000
  S   S144      1.0  0.07857  0.69231  0.29321  1.0000
  S   S145      1.0  0.01669  0.67105  0.29528  1.0000
  Fe  Fe73      1.0  0.09576  0.66322  0.25993  1.0000
  S   S146      1.0  0.12197  0.68093  0.26714  1.0000
  H   H605      1.0  0.13935  0.52793  0.46562  1.0000
  Fe  Fe74      1.0  0.10836  0.66107  0.28795  1.0000
  S   S147      1.0  0.13708  0.64008  0.30043  1.0000
  Fe  Fe75      1.0  0.09003  0.71066  0.27163  1.0000
  S   S148      1.0  0.09689  0.74986  0.26418  1.0000
  S   S149      1.0  0.08430  0.64102  0.28049  1.0000
  S   S150      1.0  0.06444  0.69468  0.26258  1.0000
  H   H606      1.0  0.18799  0.50592  0.30233  1.0000
  C   C490      1.0  0.00504  0.57752  0.34955  1.0000
  S   S151      1.0  0.13118  0.95499  0.35735  1.0000
  N   N33       1.0  0.03965  0.82786  0.26041  1.0000
  H   H607      1.0  0.01506  0.62303  0.32191  1.0000
  C   C491      1.0  0.18421  0.55650  0.27723  1.0000
  C   C492      1.0  0.04448  0.51146  0.37122  1.0000
  H   H608      1.0  0.15809  0.63279  0.45940  1.0000
  H   H609      1.0  0.04008  0.61536  0.35406  1.0000
  C   C493      1.0  0.01907  0.59302  0.33949  1.0000
  H   H610      1.0  0.19091  0.55650  0.48157  1.0000
  H   H611      1.0  0.02376  0.94278  0.30526  1.0000
  C   C494      1.0  0.17856  0.99158  0.24939  1.0000
  H   H612      1.0  0.15241  0.96004  0.32304  1.0000
  C   C495      1.0  0.18271  0.52438  0.29715  1.0000
  H   H613      1.0  0.07435  0.83778  0.26164  1.0000
  C   C496      1.0  0.15458  0.53883  0.46353  1.0000
  C   C497      1.0  0.00614  0.61032  0.32994  1.0000
  H   H614      1.0  0.17005  0.52899  0.45687  1.0000
  C   C498      1.0  0.04988  0.59671  0.35237  1.0000
  C   C499      1.0  0.32686  0.95317  0.48705  1.0000
  C   C500      1.0  0.25616  0.51656  0.40903  1.0000
  H   H615      1.0  0.02657  0.98070  0.34197  1.0000
  H   H616      1.0  0.02434  0.64867  0.27070  1.0000
  C   C501      1.0  0.16597  0.94407  0.25476  1.0000
  C   C502      1.0  0.23692  0.50798  0.37455  1.0000
  C   C503      1.0  0.18792  0.94467  0.28421  1.0000
  H   H617      1.0  0.01352  0.56408  0.35722  1.0000
  H   H618      1.0  0.26613  0.93902  0.43459  1.0000
  C   C504      1.0  0.08842  0.94809  0.32465  1.0000
  C   C505      1.0  0.10675  0.92885  0.32875  1.0000
  C   C506      1.0  0.11925  0.93060  0.33921  1.0000
  C   C507      1.0  0.11362  0.95167  0.34543  1.0000
  C   C508      1.0  0.09477  0.97048  0.34157  1.0000
  C   C509      1.0  0.08227  0.96872  0.33118  1.0000
  H   H619      1.0  0.11131  0.91271  0.32386  1.0000
  H   H620      1.0  0.13364  0.91588  0.34230  1.0000
  H   H621      1.0  0.20533  0.53139  0.25507  1.0000
  N   N34       1.0  0.17147  0.94851  0.29735  1.0000
  C   C510      1.0  0.10020  0.80436  0.29176  1.0000
  C   C511      1.0  0.10990  0.80823  0.27779  1.0000
  C   C512      1.0  0.10903  0.79114  0.26955  1.0000
  C   C513      1.0  0.09849  0.76999  0.27519  1.0000
  C   C514      1.0  0.08886  0.76598  0.28919  1.0000
  C   C515      1.0  0.08979  0.78312  0.29745  1.0000
  H   H622      1.0  0.11849  0.82420  0.27336  1.0000
  H   H623      1.0  0.11661  0.79431  0.25874  1.0000
  H   H624      1.0  0.08040  0.74989  0.29363  1.0000
  H   H625      1.0  0.08216  0.78005  0.30825  1.0000
  H   H626      1.0  0.05627  0.80819  0.27786  1.0000
  H   H627      1.0  0.02700  0.80110  0.27760  1.0000
  H   H628      1.0  0.15885  0.53441  0.31544  1.0000
  C   C516      1.0  0.17435  0.61025  0.24973  1.0000
  C   C517      1.0  0.27857  0.95205  0.43476  1.0000
  C   C518      1.0  0.16716  0.57245  0.28488  1.0000
  C   C519      1.0  0.24611  0.98444  0.44153  1.0000
  C   C520      1.0  0.01153  0.52907  0.38755  1.0000
  H   H629      1.0  0.03147  0.87433  0.28673  1.0000
  H   H630      1.0  0.16088  0.59115  0.28018  1.0000
  C   C521      1.0  0.17792  0.96720  0.30390  1.0000
  H   H631      1.0  0.23448  0.51218  0.25590  1.0000
  H   H632      1.0  0.29417  0.52238  0.37098  1.0000
  C   C522      1.0  0.05672  0.84595  0.25786  1.0000
  C   C523      1.0  0.19547  0.97199  0.24476  1.0000
  N   N35       1.0  0.00978  0.97014  0.28934  1.0000
  C   C524      1.0  0.12680  0.63266  0.31809  1.0000
  C   C525      1.0  0.10555  0.64610  0.32457  1.0000
  C   C526      1.0  0.09883  0.64103  0.33889  1.0000
  C   C527      1.0  0.11295  0.62208  0.34667  1.0000
  C   C528      1.0  0.13359  0.60804  0.34010  1.0000
  C   C529      1.0  0.14074  0.61360  0.32587  1.0000
  H   H633      1.0  0.09470  0.66084  0.31862  1.0000
  H   H634      1.0  0.08269  0.65175  0.34394  1.0000
  H   H635      1.0  0.14449  0.59331  0.34603  1.0000
  H   H636      1.0  0.15719  0.60314  0.32091  1.0000
  C   C530      1.0  0.18068  0.54285  0.41674  1.0000
  C   C531      1.0  0.19700  0.53282  0.42610  1.0000
  C   C532      1.0  0.20480  0.54792  0.43343  1.0000
  C   C533      1.0  0.19614  0.57322  0.43155  1.0000
  C   C534      1.0  0.17944  0.58317  0.42241  1.0000
  C   C535      1.0  0.17180  0.56809  0.41499  1.0000
  H   H637      1.0  0.20389  0.51329  0.42755  1.0000
  H   H638      1.0  0.21766  0.53998  0.44042  1.0000
  H   H639      1.0  0.17257  0.60270  0.42089  1.0000
  H   H640      1.0  0.15919  0.57603  0.40784  1.0000
  H   H641      1.0  0.20412  0.98258  0.28662  1.0000
  C   C536      1.0  0.28548  0.64120  0.48789  1.0000
  H   H642      1.0  0.14898  0.55699  0.45722  1.0000
  H   H643      1.0  0.02967  0.83012  0.28196  1.0000
  H   H644      1.0  0.21813  0.51690  0.37714  1.0000
  H   H645      1.0  0.15882  0.92436  0.31594  1.0000
  C   C537      1.0  0.00169  0.51444  0.36849  1.0000
  C   C538      1.0  0.05829  0.56551  0.33801  1.0000
  H   H646      1.0  0.02338  0.96695  0.26806  1.0000
  H   H647      1.0  0.18561  0.50633  0.47667  1.0000
  C   C539      1.0  0.02749  0.91416  0.33208  1.0000
  H   H648      1.0  0.29681  0.97918  0.44941  1.0000
  H   H649      1.0  0.06386  0.50537  0.36791  1.0000
  C   C540      1.0  0.11788  0.56342  0.48249  1.0000
  H   H650      1.0  0.08110  0.58166  0.48906  1.0000
  C   C541      1.0  0.17103  0.51673  0.48353  1.0000
  H   H651      1.0  0.05450  0.55991  0.32875  1.0000
  C   C542      1.0  0.19508  0.98299  0.29708  1.0000
  H   H652      1.0  0.14322  0.63324  0.25945  1.0000
  H   H653      1.0  0.11288  0.56163  0.47297  1.0000
  C   C543      1.0  0.02872  0.98554  0.28879  1.0000
  H   H654      1.0  0.31613  0.61276  0.46807  1.0000
  H   H655      1.0  0.32393  0.59451  0.45481  1.0000
  C   C544      1.0  0.00631  0.98667  0.34326  1.0000
  C   C545      1.0  0.05801  0.60782  0.32789  1.0000
  C   C546      1.0  0.01561  0.84004  0.25645  1.0000
  S   S152      1.0  0.32463  0.54656  0.44655  1.0000
  C   C547      1.0  0.32556  0.49657  0.45440  1.0000
  H   H656      1.0  0.07815  0.60548  0.32793  1.0000
  C   C548      1.0  0.26395  0.53167  0.41613  1.0000
  C   C549      1.0  0.03788  0.81637  0.27509  1.0000
  H   H657      1.0  0.06975  0.59631  0.35246  1.0000
  N   N36       1.0  0.15298  0.71992  0.29842  1.0000
  C   C550      1.0  0.13940  0.71005  0.29014  1.0000
  C   C551      1.0  0.15999  0.74334  0.29033  1.0000
  C   C552      1.0  0.17599  0.70239  0.30037  1.0000
  C   C553      1.0  0.13755  0.72273  0.31191  1.0000
  C   C554      1.0  0.13024  0.70183  0.32107  1.0000
  C   C555      1.0  0.12921  0.74590  0.31633  1.0000
  C   C556      1.0  0.11566  0.70393  0.33386  1.0000
  C   C557      1.0  0.11441  0.74782  0.32909  1.0000
  C   C558      1.0  0.10769  0.72689  0.33784  1.0000
  H   H658      1.0  0.15007  0.70820  0.27976  1.0000
  H   H659      1.0  0.13507  0.69156  0.29500  1.0000
  H   H660      1.0  0.12164  0.72219  0.28874  1.0000
  H   H661      1.0  0.14350  0.75693  0.28788  1.0000
  H   H662      1.0  0.17161  0.74060  0.28028  1.0000
  H   H663      1.0  0.17061  0.75168  0.29589  1.0000
  H   H664      1.0  0.17245  0.68337  0.30474  1.0000
  H   H665      1.0  0.18867  0.70091  0.29048  1.0000
  H   H666      1.0  0.18590  0.70814  0.30742  1.0000
  H   H667      1.0  0.13567  0.68363  0.31838  1.0000
  H   H668      1.0  0.13352  0.76294  0.31009  1.0000
  H   H669      1.0  0.11045  0.68763  0.34070  1.0000
  H   H670      1.0  0.10798  0.76575  0.33213  1.0000
  H   H671      1.0  0.09619  0.72845  0.34772  1.0000
  N   N37       1.0  0.19544  0.66222  0.45359  1.0000
  C   C559      1.0  0.19466  0.68819  0.45490  1.0000
  C   C560      1.0  0.22140  0.65097  0.44969  1.0000
  C   C561      1.0  0.18229  0.66241  0.44213  1.0000
  C   C562      1.0  0.18487  0.64846  0.46684  1.0000
  C   C563      1.0  0.30284  0.96001  0.48405  1.0000
  C   C564      1.0  0.02697  0.50767  0.36395  1.0000
  C   C565      1.0  0.01441  0.85360  0.24306  1.0000
  H   H672      1.0  0.23915  0.52276  0.40488  1.0000
  H   H673      1.0  0.31619  0.49550  0.42436  1.0000
  H   H674      1.0  0.20682  0.68999  0.46198  1.0000
  H   H675      1.0  0.20105  0.69943  0.44490  1.0000
  H   H676      1.0  0.17563  0.69681  0.45882  1.0000
  H   H677      1.0  0.23295  0.65154  0.45734  1.0000
  H   H678      1.0  0.23005  0.66041  0.43965  1.0000
  H   H679      1.0  0.22277  0.63135  0.44881  1.0000
  H   H680      1.0  0.16250  0.67047  0.44444  1.0000
  H   H681      1.0  0.19027  0.67337  0.43240  1.0000
  H   H682      1.0  0.18374  0.64357  0.43983  1.0000
  N   N38       1.0  0.26721  0.97806  0.43079  1.0000
  C   C566      1.0  0.00081  0.95741  0.36414  1.0000
  H   H683      1.0  0.03838  0.79424  0.25365  1.0000
  H   H684      1.0  0.28271  0.94807  0.44539  1.0000
  H   H685      1.0  0.05594  0.60436  0.31771  1.0000
  C   C567      1.0  0.16574  0.63452  0.46811  1.0000
  C   C568      1.0  0.16639  0.97052  0.31740  1.0000
  N   N39       1.0  0.21137  0.51474  0.27565  1.0000
  C   C569      1.0  0.15605  0.62198  0.48085  1.0000
  S   S153      1.0  0.05783  0.52206  0.39407  1.0000
  C   C570      1.0  0.00575  0.97148  0.27509  1.0000
  H   H686      1.0  0.27267  0.97633  0.40920  1.0000
  C   C571      1.0  0.22044  0.52557  0.26128  1.0000
  H   H687      1.0  0.25316  0.54954  0.41742  1.0000
  H   H688      1.0  0.04633  0.97910  0.28224  1.0000
  H   H689      1.0  0.20940  0.65748  0.47878  1.0000
  C   C572      1.0  0.01353  0.88173  0.28410  1.0000
  H   H690      1.0  0.24502  0.96617  0.41888  1.0000
  C   C573      1.0  0.28002  0.51166  0.37116  1.0000
  H   H691      1.0  0.17641  0.57506  0.46775  1.0000
  H   H692      1.0  0.05396  0.81562  0.24090  1.0000
  H   H693      1.0  0.00545  0.53683  0.39688  1.0000
  H   H694      1.0  0.13096  0.96088  0.26462  1.0000
  C   C574      1.0  0.18256  0.55582  0.47258  1.0000
  H   H695      1.0  0.23189  0.97253  0.44289  1.0000
  H   H696      1.0  0.28336  0.68047  0.48209  1.0000
  C   C575      1.0  0.05058  0.80827  0.25206  1.0000
  H   H697      1.0  0.14045  0.94302  0.28938  1.0000
  H   H698      1.0  0.18507  0.60899  0.25771  1.0000
  H   H699      1.0  0.05057  0.62746  0.32865  1.0000
  Fe  Fe76      1.0  0.14229  0.52809  0.36358  1.0000
  C   C576      1.0  0.25528  0.52161  0.37443  1.0000
  N   N40       1.0  0.16196  0.54166  0.47643  1.0000
  H   H700      1.0  0.22940  0.54175  0.26084  1.0000
  C   C577      1.0  0.14596  0.95638  0.29453  1.0000
  H   H701      1.0  0.01297  0.89151  0.32182  1.0000
  C   C578      1.0  0.29094  0.66420  0.48860  1.0000
  C   C579      1.0  0.00548  0.64866  0.27575  1.0000
  H   H702      1.0  0.06862  0.79845  0.25478  1.0000
  S   S154      1.0  0.13286  0.50629  0.38454  1.0000
  H   H703      1.0  0.29604  0.94726  0.42769  1.0000
  C   C580      1.0  0.02221  0.93375  0.33940  1.0000
  H   H704      1.0  0.06813  0.98365  0.32803  1.0000
  H   H705      1.0  0.18611  0.96133  0.27621  1.0000
  S   S155      1.0  0.16555  0.51601  0.34446  1.0000
  C   C581      1.0  0.28558  0.52375  0.42162  1.0000
  H   H706      1.0  0.19134  0.91875  0.30989  1.0000
  C   C582      1.0  0.18919  0.94828  0.24747  1.0000
  C   C583      1.0  0.15523  0.98745  0.25649  1.0000
  H   H707      1.0  0.02106  0.95158  0.36318  1.0000
  H   H708      1.0  0.20753  0.93942  0.28559  1.0000
  H   H709      1.0  0.19433  0.49920  0.36706  1.0000
  C   C584      1.0  0.01065  0.90106  0.27318  1.0000
  H   H710      1.0  0.07862  0.56362  0.33718  1.0000
  C   C585      1.0  0.29954  0.50076  0.41996  1.0000
  H   H711      1.0  0.03749  0.93895  0.34257  1.0000
  H   H712      1.0  0.25022  0.54010  0.37681  1.0000
  C   C586      1.0  0.19408  0.64833  0.47901  1.0000
  H   H713      1.0  0.04842  0.86192  0.26313  1.0000
  H   H714      1.0  0.29163  0.53548  0.42721  1.0000
  H   H715      1.0  0.04350  0.58334  0.36146  1.0000
  C   C587      1.0  0.03678  0.52157  0.38326  1.0000
  H   H716      1.0  0.03775  0.93826  0.28819  1.0000
  H   H717      1.0  0.14399  0.97455  0.28771  1.0000
  H   H718      1.0  0.14522  0.57713  0.30450  1.0000
  H   H719      1.0  0.08980  0.98644  0.34658  1.0000
  C   C588      1.0  0.17301  0.92433  0.30658  1.0000
  C   C589      1.0  0.00877  0.90669  0.32751  1.0000
  H   H720      1.0  0.29103  0.94627  0.48585  1.0000
  C   C590      1.0  0.15818  0.56455  0.29861  1.0000
  C   C591      1.0  0.17269  0.98744  0.32399  1.0000
  C   C592      1.0  0.16587  0.54053  0.30472  1.0000
  C   C593      1.0  0.19271  0.53196  0.28322  1.0000
  H   H721      1.0  0.05235  0.55183  0.34704  1.0000
  H   H722      1.0  0.00782  0.93122  0.29470  1.0000
  H   H723      1.0  0.13236  0.95811  0.30407  1.0000
  C   C594      1.0  0.29395  0.98449  0.47888  1.0000
  H   H724      1.0  0.18396  0.49824  0.27031  1.0000
  H   H725      1.0  0.16399  0.98917  0.33444  1.0000
  H   H726      1.0  0.20251  0.93308  0.24410  1.0000
  C   C595      1.0  0.15073  0.62429  0.25065  1.0000
  H   H727      1.0  0.19046  0.56385  0.26666  1.0000
  N   N41       1.0  0.04582  0.59097  0.33934  1.0000
  S   S156      1.0  0.10834  0.64648  0.24063  1.0000
  H   H728      1.0  0.18342  0.92973  0.27982  1.0000
  C   C596      1.0  0.02008  0.94450  0.29465  1.0000
  H   H729      1.0  0.03347  0.98454  0.29913  1.0000
  H   H730      1.0  0.06181  0.85328  0.24682  1.0000
  H   H731      1.0  0.19766  0.54751  0.46511  1.0000
  C   C597      1.0  0.99784  0.94637  0.34251  1.0000
  C   C598      1.0  0.23296  0.50666  0.28282  1.0000
  H   H732      1.0  0.15582  0.50581  0.48729  1.0000
  C   C599      1.0  0.27004  0.49351  0.40728  1.0000
  H   H733      1.0  0.24089  0.52266  0.28392  1.0000
  H   H734      1.0  0.25182  0.98263  0.45168  1.0000
  H   H735      1.0  0.99669  0.99016  0.27094  1.0000
  H   H736      1.0  0.14140  0.61157  0.48161  1.0000
  H   H737      1.0  0.22846  0.49593  0.29324  1.0000
  C   C600      1.0  0.99729  0.65804  0.28800  1.0000
  C   C601      1.0  0.14186  0.55431  0.48575  1.0000
  H   H738      1.0  0.03302  0.49887  0.35497  1.0000
  S   S157      1.0  0.26326  0.99221  0.47604  1.0000
  C   C602      1.0  0.29935  0.99245  0.44011  1.0000
  H   H739      1.0  0.24775  0.49446  0.27716  1.0000
  Fe  Fe77      1.0  0.25008  0.55352  0.71804  1.0000
  S   S158      1.0  0.21236  0.57184  0.72623  1.0000
  S   S159      1.0  0.27109  0.56902  0.69774  1.0000
  C   C603      1.0  0.15125  0.96320  0.60569  1.0000
  Fe  Fe78      1.0  0.20204  0.53461  0.72816  1.0000
  H   H740      1.0  0.30200  0.79455  0.61450  1.0000
  S   S160      1.0  0.23919  0.51685  0.71894  1.0000
  C   C604      1.0  0.04210  0.50815  0.59179  1.0000
  Fe  Fe79      1.0  0.22066  0.91384  0.62106  1.0000
  S   S161      1.0  0.21904  0.89514  0.64289  1.0000
  S   S162      1.0  0.18713  0.92368  0.61087  1.0000
  Fe  Fe80      1.0  0.27591  0.91044  0.61654  1.0000
  S   S163      1.0  0.27852  0.89250  0.63830  1.0000
  H   H741      1.0  0.14485  0.95205  0.59997  1.0000
  Fe  Fe81      1.0  0.25242  0.86941  0.63503  1.0000
  S   S164      1.0  0.26073  0.82802  0.64126  1.0000
  Fe  Fe82      1.0  0.24507  0.92021  0.64402  1.0000
  S   S165      1.0  0.23276  0.94201  0.66162  1.0000
  S   S166      1.0  0.25155  0.88602  0.61306  1.0000
  S   S167      1.0  0.24487  0.94023  0.62239  1.0000
  Fe  Fe83      1.0  0.22545  0.66874  0.63989  1.0000
  S   S168      1.0  0.20066  0.69258  0.62564  1.0000
  S   S169      1.0  0.21101  0.65785  0.66236  1.0000
  Fe  Fe84      1.0  0.26972  0.66611  0.61780  1.0000
  S   S170      1.0  0.24894  0.68942  0.60181  1.0000
  S   S171      1.0  0.30947  0.65095  0.61164  1.0000
  Fe  Fe85      1.0  0.23243  0.71336  0.61774  1.0000
  S   S172      1.0  0.22792  0.75472  0.61046  1.0000
  Fe  Fe86      1.0  0.21942  0.66670  0.61098  1.0000
  S   S173      1.0  0.20447  0.65352  0.59500  1.0000
  S   S174      1.0  0.25568  0.69157  0.63313  1.0000
  S   S175      1.0  0.24165  0.64130  0.62580  1.0000
  Fe  Fe87      1.0  0.12087  0.56588  0.59260  1.0000
  S   S176      1.0  0.14627  0.54142  0.57896  1.0000
  S   S177      1.0  0.13139  0.57639  0.61093  1.0000
  Fe  Fe88      1.0  0.07689  0.56884  0.57785  1.0000
  S   S178      1.0  0.09900  0.54522  0.56281  1.0000
  S   S179      1.0  0.03598  0.58272  0.58021  1.0000
  Fe  Fe89      1.0  0.11389  0.52210  0.58118  1.0000
  C   C605      1.0  0.30730  0.63501  0.66435  1.0000
  Fe  Fe90      1.0  0.12907  0.56695  0.56194  1.0000
  S   S180      1.0  0.15038  0.58679  0.54301  1.0000
  S   S181      1.0  0.09002  0.54448  0.59619  1.0000
  S   S182      1.0  0.10552  0.59273  0.57559  1.0000
  H   H742      1.0  0.22529  0.59913  0.56720  1.0000
  C   C606      1.0  0.30994  0.62161  0.67766  1.0000
  H   H743      1.0  0.20787  0.64964  0.54532  1.0000
  H   H744      1.0  0.12743  0.52597  0.62535  1.0000
  C   C607      1.0  0.29143  0.96561  0.67000  1.0000
  N   N42       1.0  0.09506  0.51578  0.63941  1.0000
  C   C608      1.0  0.02847  0.55436  0.56249  1.0000
  C   C609      1.0  0.12075  0.54902  0.66143  1.0000
  H   H745      1.0  0.17509  0.62553  0.54615  1.0000
  C   C610      1.0  0.09443  0.51036  0.66518  1.0000
  H   H746      1.0  0.04799  0.55255  0.55877  1.0000
  C   C611      1.0  0.01382  0.54254  0.55699  1.0000
  C   C612      1.0  0.20646  0.54477  0.51284  1.0000
  C   C613      1.0  0.19105  0.53199  0.52334  1.0000
  C   C614      1.0  0.17414  0.54451  0.53295  1.0000
  C   C615      1.0  0.17266  0.56986  0.53206  1.0000
  C   C616      1.0  0.18852  0.58246  0.52180  1.0000
  C   C617      1.0  0.20538  0.56998  0.51223  1.0000
  H   H747      1.0  0.13617  0.63250  0.56141  1.0000
  H   H748      1.0  0.32727  0.80655  0.51504  1.0000
  H   H749      1.0  0.18768  0.60198  0.52124  1.0000
  H   H750      1.0  0.13114  0.57194  0.51746  1.0000
  H   H751      1.0  0.31649  0.64731  0.55017  1.0000
  H   H752      1.0  0.30615  0.76036  0.60218  1.0000
  C   C618      1.0  0.18657  0.62985  0.60007  1.0000
  C   C619      1.0  0.17557  0.62354  0.61371  1.0000
  C   C620      1.0  0.15932  0.60634  0.61710  1.0000
  C   C621      1.0  0.15414  0.59536  0.60688  1.0000
  C   C622      1.0  0.16603  0.60085  0.59337  1.0000
  C   C623      1.0  0.18206  0.61815  0.59000  1.0000
  H   H753      1.0  0.17895  0.63252  0.62155  1.0000
  H   H754      1.0  0.15018  0.60213  0.62757  1.0000
  H   H755      1.0  0.16227  0.59239  0.58543  1.0000
  H   H756      1.0  0.19052  0.62293  0.57947  1.0000
  C   C624      1.0  0.32043  0.67213  0.59774  1.0000
  C   C625      1.0  0.18050  0.52210  0.65081  1.0000
  H   H757      1.0  0.08807  0.55282  0.62825  1.0000
  H   H758      1.0  0.11941  0.54117  0.68333  1.0000
  C   C626      1.0  0.30882  0.69660  0.59650  1.0000
  H   H759      1.0  0.30302  0.62325  0.57369  1.0000
  H   H760      1.0  0.07113  0.53191  0.62456  1.0000
  H   H761      1.0  0.29484  0.70278  0.60467  1.0000
  C   C627      1.0  0.17133  0.95341  0.61250  1.0000
  H   H762      1.0  0.12923  0.69030  0.59125  1.0000
  H   H763      1.0  0.15674  0.55333  0.69447  1.0000
  H   H764      1.0  0.27025  0.61376  0.52789  1.0000
  C   C628      1.0  0.17918  0.96777  0.62009  1.0000
  C   C629      1.0  0.16525  0.62262  0.49260  1.0000
  H   H765      1.0  0.09891  0.65025  0.56870  1.0000
  H   H766      1.0  0.19408  0.96012  0.62575  1.0000
  H   H767      1.0  0.04995  0.51499  0.58098  1.0000
  H   H768      1.0  0.12164  0.62902  0.58728  1.0000
  H   H769      1.0  0.13076  0.56418  0.65997  1.0000
  H   H770      1.0  0.27959  0.89966  0.58766  1.0000
  C   C630      1.0  0.07852  0.53684  0.63291  1.0000
  C   C631      1.0  0.25258  0.80780  0.63219  1.0000
  C   C632      1.0  0.24177  0.81651  0.62042  1.0000
  C   C633      1.0  0.23489  0.79995  0.61367  1.0000
  C   C634      1.0  0.23866  0.77458  0.61864  1.0000
  C   C635      1.0  0.25011  0.76581  0.63018  1.0000
  C   C636      1.0  0.25711  0.78238  0.63689  1.0000
  H   H771      1.0  0.23841  0.83598  0.61663  1.0000
  H   H772      1.0  0.22612  0.80683  0.60472  1.0000
  H   H773      1.0  0.25313  0.74634  0.63411  1.0000
  H   H774      1.0  0.26557  0.77549  0.64596  1.0000
  H   H775      1.0  0.02226  0.53143  0.54916  1.0000
  C   C637      1.0  0.25407  0.59354  0.68798  1.0000
  C   C638      1.0  0.25950  0.59679  0.67363  1.0000
  C   C639      1.0  0.24675  0.61675  0.66563  1.0000
  C   C640      1.0  0.22834  0.63342  0.67198  1.0000
  C   C641      1.0  0.22273  0.62999  0.68633  1.0000
  C   C642      1.0  0.23560  0.61017  0.69430  1.0000
  H   H776      1.0  0.27347  0.58365  0.66877  1.0000
  H   H777      1.0  0.25084  0.61902  0.65458  1.0000
  H   H778      1.0  0.20852  0.64284  0.69131  1.0000
  H   H779      1.0  0.23173  0.60827  0.70534  1.0000
  C   C643      1.0  0.23234  0.98952  0.51865  1.0000
  C   C644      1.0  0.27705  0.95423  0.66398  1.0000
  C   C645      1.0  0.25198  0.95494  0.66913  1.0000
  C   C646      1.0  0.24149  0.96696  0.68038  1.0000
  H   H780      1.0  0.27625  0.76615  0.57139  1.0000
  H   H781      1.0  0.28533  0.94500  0.65534  1.0000
  H   H782      1.0  0.29886  0.60247  0.65034  1.0000
  H   H783      1.0  0.25441  0.68515  0.55682  1.0000
  C   C647      1.0  0.28984  0.64028  0.57554  1.0000
  H   H784      1.0  0.11347  0.50445  0.62021  1.0000
  H   H785      1.0  0.06426  0.49751  0.64940  1.0000
  C   C648      1.0  0.26468  0.61677  0.53843  1.0000
  H   H786      1.0  0.23821  0.59215  0.54319  1.0000
  H   H787      1.0  0.27484  0.63515  0.58399  1.0000
  H   H788      1.0  0.28983  0.64121  0.53614  1.0000
  H   H789      1.0  0.32302  0.60494  0.67933  1.0000
  C   C649      1.0  0.10412  0.57813  0.50421  1.0000
  C   C650      1.0  0.29724  0.90054  0.58125  1.0000
  H   H790      1.0  0.17638  0.49425  0.66873  1.0000
  H   H791      1.0  0.28450  0.66625  0.65389  1.0000
  H   H792      1.0  0.17902  0.52072  0.68459  1.0000
  Fe  Fe91      1.0  0.24806  0.50842  0.74030  1.0000
  C   C651      1.0  0.28512  0.78221  0.56755  1.0000
  C   C652      1.0  0.21750  0.98955  0.53145  1.0000
  H   H793      1.0  0.29655  0.61804  0.69942  1.0000
  C   C653      1.0  0.26880  0.97161  0.52953  1.0000
  C   C654      1.0  0.14608  0.55800  0.49856  1.0000
  H   H794      1.0  0.26446  0.65488  0.69739  1.0000
  C   C655      1.0  0.27336  0.66304  0.67542  1.0000
  H   H795      1.0  0.17956  0.51726  0.49252  1.0000
  C   C656      1.0  0.29482  0.62901  0.68941  1.0000
  C   C657      1.0  0.30094  0.78386  0.55494  1.0000
  H   H796      1.0  0.24643  0.66956  0.57403  1.0000
  H   H797      1.0  0.08173  0.67435  0.57711  1.0000
  C   C658      1.0  0.31066  0.62244  0.50544  1.0000
  C   C659      1.0  0.28837  0.65581  0.66362  1.0000
  H   H798      1.0  0.10202  0.68151  0.56118  1.0000
  C   C660      1.0  0.23938  0.60858  0.56054  1.0000
  C   C661      1.0  0.25754  0.98053  0.51766  1.0000
  H   H799      1.0  0.16386  0.55176  0.50169  1.0000
  C   C662      1.0  0.31555  0.80510  0.52535  1.0000
  C   C663      1.0  0.25775  0.96209  0.58529  1.0000
  H   H800      1.0  0.16320  0.68831  0.57604  1.0000
  H   H801      1.0  0.08966  0.58694  0.51136  1.0000
  H   H802      1.0  0.25850  0.67853  0.67453  1.0000
  H   H803      1.0  0.29112  0.60257  0.49606  1.0000
  C   C664      1.0  0.10107  0.51699  0.67643  1.0000
  C   C665      1.0  0.25013  0.62471  0.56551  1.0000
  C   C666      1.0  0.17888  0.51318  0.66481  1.0000
  C   C667      1.0  0.23391  0.95814  0.58577  1.0000
  H   H804      1.0  0.31040  0.68409  0.49812  1.0000
  H   H805      1.0  0.21756  0.57990  0.50442  1.0000
  C   C668      1.0  0.30158  0.89361  0.56827  1.0000
  C   C669      1.0  0.13978  0.98766  0.60596  1.0000
  S   S183      1.0  0.31096  0.91701  0.60212  1.0000
  C   C670      1.0  0.11767  0.51002  0.62938  1.0000
  C   C671      1.0  0.11460  0.54224  0.65009  1.0000
  H   H806      1.0  0.29389  0.94184  0.51206  1.0000
  H   H807      1.0  0.29126  0.63291  0.64119  1.0000
  C   C672      1.0  0.11428  0.53621  0.67456  1.0000
  H   H808      1.0  0.22217  0.96736  0.68451  1.0000
  C   C673      1.0  0.30841  0.82327  0.55788  1.0000
  H   H809      1.0  0.29946  0.65195  0.57968  1.0000
  H   H810      1.0  0.30612  0.98337  0.50835  1.0000
  C   C674      1.0  0.24664  0.60461  0.54703  1.0000
  H   H811      1.0  0.26801  0.98028  0.50746  1.0000
  C   C675      1.0  0.14484  0.50241  0.70986  1.0000
  H   H812      1.0  0.19186  0.51245  0.52391  1.0000
  C   C676      1.0  0.22784  0.98073  0.54332  1.0000
  H   H813      1.0  0.29028  0.92428  0.52898  1.0000
  C   C677      1.0  0.30182  0.66267  0.55317  1.0000
  H   H814      1.0  0.31629  0.81256  0.62870  1.0000
  H   H815      1.0  0.27017  0.68800  0.57018  1.0000
  C   C678      1.0  0.25310  0.97193  0.54246  1.0000
  H   H816      1.0  0.16198  0.53465  0.54087  1.0000
  H   H817      1.0  0.30118  0.85401  0.59736  1.0000
  C   C679      1.0  0.26209  0.67495  0.56608  1.0000
  H   H818      1.0  0.02107  0.49757  0.57265  1.0000
  H   H819      1.0  0.30532  0.73185  0.58355  1.0000
  H   H820      1.0  0.28931  0.83680  0.61344  1.0000
  H   H821      1.0  0.22952  0.93970  0.58898  1.0000
  C   C680      1.0  0.30682  0.61847  0.64409  1.0000
  C   C681      1.0  0.31624  0.64539  0.50611  1.0000
  C   C682      1.0  0.31563  0.90883  0.58576  1.0000
  C   C683      1.0  0.10152  0.52245  0.65159  1.0000
  H   H822      1.0  0.19722  0.97346  0.58367  1.0000
  C   C684      1.0  0.01780  0.56854  0.57271  1.0000
  H   H823      1.0  0.28726  0.88727  0.56481  1.0000
  C   C685      1.0  0.28087  0.97781  0.68118  1.0000
  H   H824      1.0  0.26868  0.79949  0.58511  1.0000
  C   C686      1.0  0.27663  0.64970  0.68829  1.0000
  C   C687      1.0  0.21539  0.97792  0.58267  1.0000
  C   C688      1.0  0.30480  0.95523  0.54142  1.0000
  C   C689      1.0  0.26326  0.98580  0.58170  1.0000
  N   N43       1.0  0.29542  0.96147  0.52816  1.0000
  H   H825      1.0  0.31743  0.61262  0.63440  1.0000
  S   S184      1.0  0.22565  0.52927  0.50007  1.0000
  S   S185      1.0  0.16714  0.53162  0.72087  1.0000
  H   H826      1.0  0.29615  0.67428  0.54366  1.0000
  C   C690      1.0  0.28085  0.80099  0.57530  1.0000
  C   C691      1.0  0.26912  0.63686  0.55716  1.0000
  H   H827      1.0  0.11912  0.70660  0.57542  1.0000
  N   N44       1.0  0.16464  0.85633  0.62837  1.0000
  C   C692      1.0  0.14192  0.85102  0.62492  1.0000
  C   C693      1.0  0.15764  0.87938  0.63433  1.0000
  C   C694      1.0  0.18242  0.86087  0.61557  1.0000
  C   C695      1.0  0.17603  0.83523  0.63768  1.0000
  C   C696      1.0  0.17925  0.81092  0.63488  1.0000
  C   C697      1.0  0.18567  0.83822  0.64915  1.0000
  C   C698      1.0  0.19039  0.79083  0.64338  1.0000
  C   C699      1.0  0.19713  0.81802  0.65746  1.0000
  C   C700      1.0  0.19931  0.79437  0.65465  1.0000
  H   H828      1.0  0.13182  0.86748  0.61901  1.0000
  H   H829      1.0  0.14577  0.83664  0.61832  1.0000
  H   H830      1.0  0.12916  0.84494  0.63438  1.0000
  H   H831      1.0  0.14544  0.87670  0.64445  1.0000
  H   H832      1.0  0.14787  0.89464  0.62749  1.0000
  H   H833      1.0  0.17399  0.88655  0.63556  1.0000
  H   H834      1.0  0.18817  0.84443  0.61042  1.0000
  H   H835      1.0  0.17463  0.87642  0.60811  1.0000
  H   H836      1.0  0.19938  0.86579  0.61771  1.0000
  H   H837      1.0  0.17399  0.80717  0.62587  1.0000
  H   H838      1.0  0.18509  0.85600  0.65180  1.0000
  H   H839      1.0  0.19304  0.77248  0.64089  1.0000
  H   H840      1.0  0.20503  0.82078  0.66590  1.0000
  H   H841      1.0  0.20871  0.77884  0.66093  1.0000
  H   H842      1.0  0.12003  0.55274  0.64010  1.0000
  H   H843      1.0  0.24758  0.98732  0.69512  1.0000
  H   H844      1.0  0.20161  0.68023  0.56076  1.0000
  H   H845      1.0  0.29972  0.82046  0.52500  1.0000
  H   H846      1.0  0.18486  0.55329  0.63487  1.0000
  H   H847      1.0  0.28924  0.83601  0.57654  1.0000
  C   C701      1.0  0.27585  0.63263  0.54336  1.0000
  C   C702      1.0  0.31607  0.79361  0.60550  1.0000
  H   H848      1.0  0.24344  0.62755  0.57599  1.0000
  H   H849      1.0  0.31079  0.96509  0.66592  1.0000
  N   N45       1.0  0.18429  0.56940  0.67903  1.0000
  C   C703      1.0  0.18806  0.59473  0.67247  1.0000
  C   C704      1.0  0.16075  0.57147  0.68876  1.0000
  C   C705      1.0  0.20467  0.55861  0.68691  1.0000
  C   C706      1.0  0.18348  0.55342  0.66913  1.0000
  C   C707      1.0  0.18039  0.52853  0.67384  1.0000
  C   C708      1.0  0.18521  0.56192  0.65475  1.0000
  C   C709      1.0  0.18429  0.63569  0.49166  1.0000
  C   C710      1.0  0.18365  0.54640  0.64579  1.0000
  C   C711      1.0  0.12747  0.56966  0.50764  1.0000
  N   N46       1.0  0.32964  0.80570  0.53624  1.0000
  H   H850      1.0  0.18841  0.60623  0.68020  1.0000
  H   H851      1.0  0.20590  0.59473  0.66533  1.0000
  H   H852      1.0  0.16107  0.58257  0.69673  1.0000
  C   C712      1.0  0.31490  0.71312  0.58458  1.0000
  H   H853      1.0  0.14500  0.58023  0.68336  1.0000
  H   H854      1.0  0.20192  0.54066  0.69344  1.0000
  H   H855      1.0  0.22268  0.55581  0.67997  1.0000
  H   H856      1.0  0.20644  0.57069  0.69407  1.0000
  C   C713      1.0  0.30629  0.66631  0.49766  1.0000
  H   H857      1.0  0.18779  0.58046  0.65013  1.0000
  H   H858      1.0  0.30378  0.76872  0.54936  1.0000
  H   H859      1.0  0.21612  0.98038  0.55323  1.0000
  H   H860      1.0  0.30181  0.97155  0.54658  1.0000
  N   N47       1.0  0.12052  0.66736  0.57860  1.0000
  C   C714      1.0  0.11899  0.64725  0.59050  1.0000
  C   C715      1.0  0.11656  0.69088  0.58394  1.0000
  C   C716      1.0  0.10003  0.66845  0.57104  1.0000
  C   C717      1.0  0.14466  0.66255  0.56962  1.0000
  C   C718      1.0  0.14948  0.64408  0.56122  1.0000
  C   C719      1.0  0.16436  0.67520  0.56935  1.0000
  C   C720      1.0  0.17194  0.63972  0.55247  1.0000
  C   C721      1.0  0.18679  0.67061  0.56061  1.0000
  C   C722      1.0  0.19044  0.65318  0.55204  1.0000
  H   H861      1.0  0.13343  0.64641  0.59679  1.0000
  C   C723      1.0  0.29250  0.82146  0.57047  1.0000
  H   H862      1.0  0.15781  0.61272  0.50243  1.0000
  N   N48       1.0  0.28065  0.65339  0.56277  1.0000
  C   C724      1.0  0.31003  0.97944  0.51900  1.0000
  H   H863      1.0  0.27186  0.94683  0.58810  1.0000
  H   H864      1.0  0.09770  0.69501  0.58983  1.0000
  H   H865      1.0  0.17297  0.60451  0.66676  1.0000
  C   C725      1.0  0.30427  0.84727  0.60811  1.0000
  H   H866      1.0  0.06247  0.54319  0.64052  1.0000
  H   H867      1.0  0.10085  0.64953  0.59735  1.0000
  C   C726      1.0  0.16675  0.50588  0.71340  1.0000
  H   H868      1.0  0.25978  0.96518  0.55207  1.0000
  H   H869      1.0  0.29611  0.94033  0.54849  1.0000
  H   H870      1.0  0.08388  0.49554  0.66744  1.0000
  H   H871      1.0  0.32004  0.93083  0.52047  1.0000
  C   C727      1.0  0.25586  0.97827  0.68642  1.0000
  H   H872      1.0  0.31059  0.67442  0.55783  1.0000
  C   C728      1.0  0.29539  0.62032  0.49638  1.0000
  H   H873      1.0  0.09589  0.50710  0.68666  1.0000
  N   N49       1.0  0.32244  0.62739  0.65164  1.0000
  H   H874      1.0  0.12831  0.51573  0.71162  1.0000
  C   C729      1.0  0.30009  0.93868  0.52214  1.0000
  H   H875      1.0  0.17928  0.51014  0.64384  1.0000
  C   C730      1.0  0.31311  0.80443  0.54969  1.0000
  H   H876      1.0  0.02825  0.52345  0.59557  1.0000
  H   H877      1.0  0.19186  0.63567  0.50076  1.0000
  C   C731      1.0  0.31823  0.77398  0.59849  1.0000
  H   H878      1.0  0.32492  0.94806  0.54000  1.0000
  H   H879      1.0  0.31825  0.60619  0.51198  1.0000
  S   S186      1.0  0.26302  0.54331  0.73858  1.0000
  H   H880      1.0  0.13087  0.49468  0.63405  1.0000
  H   H881      1.0  0.30198  0.86357  0.61324  1.0000
  H   H882      1.0  0.05759  0.50464  0.59762  1.0000
  C   C732      1.0  0.32418  0.89536  0.55966  1.0000
  H   H883      1.0  0.31676  0.83962  0.55479  1.0000
  H   H884      1.0  0.30832  0.78759  0.52681  1.0000
  C   C733      1.0  0.08234  0.49404  0.64262  1.0000
  H   H885      1.0  0.99798  0.50774  0.58612  1.0000
  N   N50       1.0  0.32895  0.83230  0.60856  1.0000
  C   C734      1.0  0.09936  0.57510  0.49165  1.0000
  S   S187      1.0  0.32866  0.88767  0.54326  1.0000
  H   H886      1.0  0.32702  0.84515  0.53114  1.0000
  H   H887      1.0  0.28177  0.98872  0.58172  1.0000
  H   H888      1.0  0.31833  0.66302  0.63848  1.0000
  C   C735      1.0  0.16791  0.99228  0.62023  1.0000
  H   H889      1.0  0.17126  0.72702  0.96869  1.0000
  S   S188      1.0  0.22552  0.95531  0.96026  1.0000
  S   S189      1.0  0.20989  0.52350  0.74968  1.0000
  S   S190      1.0  0.21295  0.57872  0.76532  1.0000
  H   H890      1.0  0.17595  0.79834  0.92629  1.0000
  Fe  Fe92      1.0  0.24709  0.55584  0.96479  1.0000
  S   S191      1.0  0.26978  0.51979  0.96057  1.0000
  S   S192      1.0  0.22431  0.57274  0.94808  1.0000
  C   C736      1.0  0.20095  0.95858  0.76177  1.0000
  Fe  Fe93      1.0  0.30039  0.53344  0.96638  1.0000
  C   C737      1.0  0.23136  0.59455  0.77174  1.0000
  H   H891      1.0  0.01697  0.86441  0.88603  1.0000
  S   S193      1.0  0.27849  0.57061  0.96913  1.0000
  Fe  Fe94      1.0  0.12767  0.92354  0.92047  1.0000
  S   S194      1.0  0.10837  0.93263  0.90203  1.0000
  S   S195      1.0  0.14776  0.95404  0.92223  1.0000
  Fe  Fe95      1.0  0.11160  0.87343  0.92872  1.0000
  S   S196      1.0  0.09142  0.87872  0.91112  1.0000
  S   S197      1.0  0.11079  0.83609  0.94166  1.0000
  Fe  Fe96      1.0  0.12406  0.89417  0.89879  1.0000
  S   S198      1.0  0.13931  0.88101  0.87873  1.0000
  Fe  Fe97      1.0  0.07703  0.91648  0.91592  1.0000
  S   S199      1.0  0.03784  0.93499  0.91403  1.0000
  S   S200      1.0  0.14584  0.88592  0.91598  1.0000
  S   S201      1.0  0.09473  0.91039  0.93475  1.0000
  Fe  Fe98      1.0  0.07357  0.68818  0.92329  1.0000
  S   S202      1.0  0.09212  0.71089  0.93285  1.0000
  S   S203      1.0  0.03293  0.68895  0.93117  1.0000
  Fe  Fe99      1.0  0.12092  0.66996  0.90547  1.0000
  S   S204      1.0  0.14319  0.69120  0.91341  1.0000
  S   S205      1.0  0.14142  0.64484  0.89072  1.0000
  Fe  Fe100     1.0  0.12233  0.67827  0.93400  1.0000
  S   S206      1.0  0.14195  0.66668  0.95233  1.0000
  Fe  Fe101     1.0  0.11136  0.72197  0.91148  1.0000
  S   S207      1.0  0.11997  0.75974  0.90178  1.0000
  S   S208      1.0  0.10227  0.65444  0.92634  1.0000
  S   S209      1.0  0.09056  0.70181  0.90169  1.0000
  Fe  Fe102     1.0  0.29436  0.90924  0.83134  1.0000
  S   S210      1.0  0.27397  0.93920  0.81756  1.0000
  H   H892      1.0  0.10325  0.74717  0.95336  1.0000
  Fe  Fe103     1.0  0.26472  0.87033  0.82886  1.0000
  S   S211      1.0  0.24162  0.89713  0.81494  1.0000
  S   S212      1.0  0.25729  0.83196  0.83870  1.0000
  Fe  Fe104     1.0  0.27699  0.91020  0.80462  1.0000
  S   S213      1.0  0.28593  0.91713  0.78158  1.0000
  Fe  Fe105     1.0  0.24042  0.92386  0.82894  1.0000
  S   S214      1.0  0.20617  0.94867  0.83657  1.0000
  S   S215      1.0  0.30055  0.88114  0.81741  1.0000
  S   S216      1.0  0.26036  0.89621  0.84382  1.0000
  Fe  Fe106     1.0  0.26334  0.65708  0.80695  1.0000
  S   S217      1.0  0.24038  0.64490  0.82717  1.0000
  S   S218      1.0  0.27849  0.63337  0.79033  1.0000
  Fe  Fe107     1.0  0.26986  0.70452  0.81575  1.0000
  S   S219      1.0  0.24823  0.69547  0.83671  1.0000
  S   S220      1.0  0.28532  0.73991  0.80767  1.0000
  Fe  Fe108     1.0  0.26817  0.65701  0.83643  1.0000
  S   S221      1.0  0.27920  0.63290  0.85560  1.0000
  Fe  Fe109     1.0  0.22224  0.68444  0.82571  1.0000
  S   S222      1.0  0.18248  0.69985  0.83227  1.0000
  S   S223      1.0  0.29257  0.66672  0.81642  1.0000
  S   S224      1.0  0.24261  0.69587  0.80459  1.0000
  H   H893      1.0  0.14451  0.71504  0.97857  1.0000
  C   C738      1.0  0.19595  0.80495  0.84508  1.0000
  H   H894      1.0  0.20038  0.83092  0.85708  1.0000
  C   C739      1.0  0.25981  0.61898  0.78322  1.0000
  C   C740      1.0  0.23531  0.61774  0.78910  1.0000
  C   C741      1.0  0.22122  0.60548  0.78342  1.0000
  C   C742      1.0  0.31056  0.62813  0.85654  1.0000
  H   H895      1.0  0.31486  0.50346  0.94137  1.0000
  H   H896      1.0  0.01849  0.68464  0.83399  1.0000
  H   H897      1.0  0.22722  0.62614  0.79807  1.0000
  H   H898      1.0  0.20230  0.60454  0.78809  1.0000
  H   H899      1.0  0.16554  0.92395  0.80972  1.0000
  C   C743      1.0  0.15530  0.55933  0.95930  1.0000
  C   C744      1.0  0.26507  0.80670  0.82982  1.0000
  C   C745      1.0  0.26257  0.78312  0.83718  1.0000
  C   C746      1.0  0.26859  0.76253  0.83049  1.0000
  C   C747      1.0  0.27685  0.76541  0.81635  1.0000
  C   C748      1.0  0.27953  0.78897  0.80901  1.0000
  C   C749      1.0  0.27363  0.80958  0.81571  1.0000
  H   H900      1.0  0.25611  0.78075  0.84813  1.0000
  H   H901      1.0  0.26727  0.74437  0.83629  1.0000
  H   H902      1.0  0.28621  0.79128  0.79809  1.0000
  H   H903      1.0  0.27567  0.82765  0.80994  1.0000
  C   C750      1.0  0.13024  0.76177  0.96906  1.0000
  H   H904      1.0  0.15307  0.71524  0.93946  1.0000
  C   C751      1.0  0.25564  0.96212  0.78072  1.0000
  C   C752      1.0  0.26988  0.94428  0.77329  1.0000
  C   C753      1.0  0.27216  0.94847  0.75897  1.0000
  H   H905      1.0  0.17422  0.72823  0.91639  1.0000
  H   H906      1.0  0.25399  0.95908  0.79175  1.0000
  S   S225      1.0  0.23409  0.54150  0.98690  1.0000
  C   C754      1.0  0.15114  0.66007  0.87417  1.0000
  C   C755      1.0  0.16772  0.64691  0.86485  1.0000
  C   C756      1.0  0.17745  0.65909  0.85198  1.0000
  C   C757      1.0  0.17005  0.68435  0.84824  1.0000
  C   C758      1.0  0.15293  0.69743  0.85740  1.0000
  C   C759      1.0  0.14370  0.68537  0.87043  1.0000
  H   H907      1.0  0.17335  0.62732  0.86766  1.0000
  H   H908      1.0  0.19034  0.64883  0.84486  1.0000
  H   H909      1.0  0.14701  0.71694  0.85453  1.0000
  H   H910      1.0  0.13090  0.69563  0.87758  1.0000
  H   H911      1.0  0.22763  0.68880  0.86683  1.0000
  C   C760      1.0  0.13073  0.54839  0.98119  1.0000
  H   H912      1.0  0.30796  0.51962  0.82215  1.0000
  H   H913      1.0  0.02258  0.82136  0.89591  1.0000
  H   H914      1.0  0.25474  0.52454  0.91900  1.0000
  H   H915      1.0  0.04256  0.67491  0.90403  1.0000
  C   C761      1.0  0.19019  0.81673  0.85654  1.0000
  C   C762      1.0  0.15662  0.90055  0.86669  1.0000
  C   C763      1.0  0.17507  0.89038  0.85697  1.0000
  C   C764      1.0  0.19023  0.90521  0.84769  1.0000
  C   C765      1.0  0.18639  0.93046  0.84777  1.0000
  C   C766      1.0  0.16722  0.94092  0.85709  1.0000
  C   C767      1.0  0.15258  0.92588  0.86674  1.0000
  H   H916      1.0  0.17803  0.87089  0.85685  1.0000
  H   H917      1.0  0.20494  0.89698  0.84052  1.0000
  H   H918      1.0  0.16410  0.96052  0.85708  1.0000
  H   H919      1.0  0.13812  0.93388  0.87412  1.0000
  H   H920      1.0  0.21953  0.64441  0.93327  1.0000
  C   C768      1.0  0.02149  0.89129  0.91539  1.0000
  H   H921      1.0  0.02443  0.74955  0.92967  1.0000
  H   H922      1.0  0.03855  0.88219  0.91879  1.0000
  Fe  Fe110     1.0  0.25916  0.50641  0.98306  1.0000
  C   C769      1.0  0.11250  0.81520  0.93053  1.0000
  C   C770      1.0  0.12540  0.81922  0.91714  1.0000
  C   C771      1.0  0.12762  0.80207  0.90843  1.0000
  C   C772      1.0  0.11666  0.78097  0.91297  1.0000
  C   C773      1.0  0.10323  0.77725  0.92623  1.0000
  C   C774      1.0  0.10126  0.79428  0.93503  1.0000
  H   H923      1.0  0.13420  0.83528  0.91359  1.0000
  H   H924      1.0  0.13809  0.80507  0.89822  1.0000
  H   H925      1.0  0.09412  0.76146  0.92964  1.0000
  H   H926      1.0  0.09072  0.79151  0.94524  1.0000
  C   C775      1.0  0.20168  0.59892  0.94956  1.0000
  C   C776      1.0  0.18743  0.60768  0.93912  1.0000
  C   C777      1.0  0.16904  0.62843  0.93994  1.0000
  C   C778      1.0  0.16476  0.64049  0.95124  1.0000
  C   C779      1.0  0.17893  0.63167  0.96173  1.0000
  C   C780      1.0  0.19741  0.61090  0.96090  1.0000
  H   H927      1.0  0.19062  0.59845  0.93033  1.0000
  H   H928      1.0  0.15815  0.63507  0.93182  1.0000
  H   H929      1.0  0.17567  0.64097  0.97050  1.0000
  H   H930      1.0  0.20836  0.60425  0.96899  1.0000
  C   C781      1.0  0.31689  0.97360  0.89856  1.0000
  C   C782      1.0  0.29695  0.50271  0.79326  1.0000
  C   C783      1.0  0.17090  0.55759  0.98017  1.0000
  H   H931      1.0  0.20372  0.52855  0.96222  1.0000
  C   C784      1.0  0.16762  0.95380  0.93394  1.0000
  H   H932      1.0  0.31601  0.78901  0.86412  1.0000
  H   H933      1.0  0.01490  0.66382  0.89064  1.0000
  C   C785      1.0  0.20233  0.95527  0.95058  1.0000
  C   C786      1.0  0.19760  0.93271  0.94857  1.0000
  C   C787      1.0  0.18012  0.93194  0.94043  1.0000
  C   C788      1.0  0.21507  0.91848  0.77389  1.0000
  H   H934      1.0  0.19355  0.99147  0.79487  1.0000
  H   H935      1.0  0.20744  0.91572  0.95340  1.0000
  H   H936      1.0  0.17662  0.91446  0.93903  1.0000
  C   C789      1.0  0.27004  0.60793  0.77157  1.0000
  H   H937      1.0  0.21057  0.81094  0.83720  1.0000
  H   H938      1.0  0.28100  0.55033  0.78062  1.0000
  H   H939      1.0  0.26367  0.62680  0.93078  1.0000
  H   H940      1.0  0.22363  0.92934  0.75203  1.0000
  H   H941      1.0  0.11898  0.71609  0.95497  1.0000
  H   H942      1.0  0.18593  0.76955  0.90963  1.0000
  C   C790      1.0  0.31468  0.57250  0.90413  1.0000
  C   C791      1.0  0.21384  0.93482  0.76162  1.0000
  H   H943      1.0  0.22594  0.90029  0.77376  1.0000
  H   H944      1.0  0.26379  0.58779  0.75671  1.0000
  C   C792      1.0  0.00001  0.68266  0.83324  1.0000
  C   C793      1.0  0.06597  0.90676  0.88171  1.0000
  H   H945      1.0  0.21111  0.96561  0.80410  1.0000
  C   C794      1.0  0.15510  0.49968  0.97828  1.0000
  C   C795      1.0  0.25446  0.98882  0.92904  1.0000
  C   C796      1.0  0.20310  0.92570  0.78634  1.0000
  H   H946      1.0  0.01840  0.89744  0.86840  1.0000
  H   H947      1.0  0.31854  0.65983  0.84156  1.0000
  H   H948      1.0  0.30036  0.53064  0.89835  1.0000
  N   N51       1.0  0.28319  0.51121  0.78163  1.0000
  H   H949      1.0  0.25905  0.54229  0.77241  1.0000
  H   H950      1.0  0.29081  0.51693  0.75952  1.0000
  H   H951      1.0  0.00320  0.86870  0.95120  1.0000
  H   H952      1.0  0.10385  0.72817  0.96990  1.0000
  C   C797      1.0  0.26893  0.53648  0.78139  1.0000
  C   C798      1.0  0.00182  0.90776  0.94663  1.0000
  Fe  Fe111     1.0  0.22427  0.55898  0.74690  1.0000
  C   C799      1.0  0.18935  0.96617  0.77418  1.0000
  H   H953      1.0  0.27606  0.56959  0.93499  1.0000
  H   H954      1.0  0.18321  0.66422  0.89433  1.0000
  H   H955      1.0  0.02713  0.92572  0.86967  1.0000
  H   H956      1.0  0.01956  0.79500  0.92685  1.0000
  H   H957      1.0  0.14202  0.97655  0.80879  1.0000
  H   H958      1.0  0.24794  0.92915  0.90357  1.0000
  H   H959      1.0  0.31492  0.95901  0.82435  1.0000
  H   H960      1.0  0.02140  0.90669  0.94633  1.0000
  C   C800      1.0  0.15860  0.77323  0.94256  1.0000
  C   C801      1.0  0.18960  0.94980  0.78685  1.0000
  H   H961      1.0  0.25711  0.96845  0.92999  1.0000
  H   H962      1.0  0.15855  0.70503  0.96273  1.0000
  H   H963      1.0  0.25489  0.67023  0.87144  1.0000
  H   H964      1.0  0.16189  0.57659  0.98161  1.0000
  H   H965      1.0  0.14708  0.57907  0.95925  1.0000
  H   H966      1.0  0.19552  0.69191  0.89371  1.0000
  H   H967      1.0  0.28846  0.62544  0.90763  1.0000
  C   C802      1.0  0.01633  0.91694  0.91266  1.0000
  C   C803      1.0  0.01443  0.67947  0.92164  1.0000
  H   H968      1.0  0.05778  0.90456  0.89275  1.0000
  C   C804      1.0  0.30905  0.50837  0.81442  1.0000
  H   H969      1.0  0.28891  0.60901  0.76688  1.0000
  C   C805      1.0  0.05640  0.86708  0.88057  1.0000
  C   C806      1.0  0.27810  0.94545  0.87162  1.0000
  C   C807      1.0  0.11503  0.73301  0.95965  1.0000
  H   H970      1.0  0.28307  0.93467  0.75318  1.0000
  H   H971      1.0  0.28758  0.93915  0.89174  1.0000
  H   H972      1.0  0.20517  0.91220  0.79542  1.0000
  H   H973      1.0  0.19349  0.92880  0.81439  1.0000
  H   H974      1.0  0.16495  0.94468  0.82130  1.0000
  H   H975      1.0  0.28476  0.53515  0.80348  1.0000
  C   C808      1.0  0.25584  0.59593  0.76577  1.0000
  H   H976      1.0  0.08607  0.90017  0.88106  1.0000
  H   H977      1.0  0.32764  0.61719  0.82840  1.0000
  C   C809      1.0  0.32788  0.60781  0.81966  1.0000
  H   H978      1.0  0.30826  0.59569  0.87185  1.0000
  H   H979      1.0  0.16710  0.81967  0.87609  1.0000
  H   H980      1.0  0.11946  0.75559  0.97925  1.0000
  C   C810      1.0  0.17523  0.93795  0.81175  1.0000
  H   H981      1.0  0.18928  0.55953  0.97399  1.0000
  H   H982      1.0  0.20632  0.93534  0.91174  1.0000
  H   H983      1.0  0.15413  0.78711  0.94908  1.0000
  H   H984      1.0  0.26166  0.97321  0.74105  1.0000
  C   C811      1.0  0.15221  0.97178  0.79877  1.0000
  H   H985      1.0  0.26386  0.95027  0.85285  1.0000
  H   H986      1.0  0.09658  0.86038  0.87747  1.0000
  C   C812      1.0  0.15117  0.74974  0.94674  1.0000
  C   C813      1.0  0.00778  0.66793  0.90085  1.0000
  C   C814      1.0  0.03862  0.83008  0.89176  1.0000
  C   C815      1.0  0.08264  0.82761  0.88693  1.0000
  C   C816      1.0  0.06205  0.81641  0.89227  1.0000
  H   H987      1.0  0.25730  0.54182  0.93128  1.0000
  C   C817      1.0  0.26023  0.97036  0.75209  1.0000
  N   N52       1.0  0.13774  0.74184  0.96062  1.0000
  H   H988      1.0  0.10082  0.81687  0.88726  1.0000
  H   H989      1.0  0.06436  0.79710  0.89681  1.0000
  N   N53       1.0  0.19010  0.77229  0.83239  1.0000
  C   C818      1.0  0.16790  0.76717  0.82824  1.0000
  C   C819      1.0  0.20409  0.78565  0.82002  1.0000
  C   C820      1.0  0.20564  0.74862  0.83663  1.0000
  C   C821      1.0  0.18342  0.78590  0.84411  1.0000
  C   C822      1.0  0.16553  0.77885  0.85557  1.0000
  C   C823      1.0  0.15959  0.79108  0.86689  1.0000
  H   H990      1.0  0.15443  0.78429  0.82628  1.0000
  H   H991      1.0  0.17266  0.75854  0.81880  1.0000
  H   H992      1.0  0.15849  0.75357  0.83598  1.0000
  H   H993      1.0  0.19409  0.80448  0.81698  1.0000
  H   H994      1.0  0.20743  0.77589  0.81105  1.0000
  H   H995      1.0  0.22278  0.78700  0.82157  1.0000
  H   H996      1.0  0.19545  0.73666  0.84508  1.0000
  H   H997      1.0  0.21222  0.73817  0.82794  1.0000
  H   H998      1.0  0.22202  0.75145  0.84034  1.0000
  H   H999      1.0  0.15621  0.76357  0.85604  1.0000
  H   H1000     1.0  0.14569  0.78548  0.87548  1.0000
  H   H1001     1.0  0.15216  0.98957  0.79164  1.0000
  H   H1002     1.0  0.06363  0.92685  0.87774  1.0000
  H   H1003     1.0  0.23882  0.62997  0.87687  1.0000
  C   C824      1.0  0.17133  0.78000  0.92939  1.0000
  H   H1004     1.0  0.31831  0.56807  0.89392  1.0000
  H   H1005     1.0  0.25440  0.53787  0.79060  1.0000
  H   H1006     1.0  0.11842  0.77787  0.96391  1.0000
  C   C825      1.0  0.19280  0.51425  0.96658  1.0000
  H   H1007     1.0  0.18882  0.68429  0.87857  1.0000
  H   H1008     1.0  0.23761  0.56618  0.90647  1.0000
  H   H1009     1.0  0.19958  0.66007  0.91338  1.0000
  C   C826      1.0  0.17693  0.76383  0.91999  1.0000
  H   H1010     1.0  0.26952  0.64076  0.88714  1.0000
  H   H1011     1.0  0.14425  0.55117  0.95390  1.0000
  H   H1012     1.0  0.32273  0.57582  0.77918  1.0000
  N   N54       1.0  0.17747  0.95832  0.79991  1.0000
  C   C827      1.0  0.27325  0.93960  0.88586  1.0000
  H   H1013     1.0  0.29496  0.80071  0.85224  1.0000
  C   C828      1.0  0.30923  0.58426  0.93030  1.0000
  C   C829      1.0  0.06675  0.89563  0.85976  1.0000
  C   C830      1.0  0.17024  0.74060  0.92380  1.0000
  H   H1014     1.0  0.29611  0.94935  0.86646  1.0000
  C   C831      1.0  0.29153  0.57304  0.92705  1.0000
  H   H1015     1.0  0.06456  0.91509  0.85449  1.0000
  H   H1016     1.0  0.11822  0.54108  0.97628  1.0000
  H   H1017     1.0  0.12265  0.56802  0.98161  1.0000
  H   H1018     1.0  0.17391  0.55906  0.95298  1.0000
  N   N55       1.0  0.05416  0.89338  0.87423  1.0000
  H   H1019     1.0  0.08690  0.88896  0.85894  1.0000
  H   H1020     1.0  0.05925  0.88478  0.85393  1.0000
  H   H1021     1.0  0.14646  0.76814  0.97114  1.0000
  N   N56       1.0  0.20706  0.92716  0.89161  1.0000
  C   C832      1.0  0.18734  0.94832  0.88872  1.0000
  C   C833      1.0  0.20283  0.90609  0.88605  1.0000
  C   C834      1.0  0.20457  0.91996  0.90674  1.0000
  C   C835      1.0  0.23135  0.93388  0.88499  1.0000
  C   C836      1.0  0.25027  0.93386  0.89253  1.0000
  C   C837      1.0  0.23683  0.94041  0.87050  1.0000
  C   C838      1.0  0.25990  0.94595  0.86396  1.0000
  H   H1022     1.0  0.18712  0.95434  0.87758  1.0000
  H   H1023     1.0  0.16874  0.94378  0.89341  1.0000
  H   H1024     1.0  0.18946  0.96439  0.89302  1.0000
  H   H1025     1.0  0.20246  0.91048  0.87487  1.0000
  H   H1026     1.0  0.18482  0.90028  0.89089  1.0000
  H   H1027     1.0  0.21754  0.88992  0.88775  1.0000
  C   C839      1.0  0.03570  0.85501  0.88597  1.0000
  H   H1028     1.0  0.18608  0.91513  0.91136  1.0000
  H   H1029     1.0  0.21826  0.90358  0.90977  1.0000
  C   C840      1.0  0.07997  0.85255  0.88126  1.0000
  H   H1030     1.0  0.22341  0.94097  0.86405  1.0000
  N   N57       1.0  0.27475  0.55486  0.91060  1.0000
  C   C841      1.0  0.28286  0.54396  0.89783  1.0000
  C   C842      1.0  0.26741  0.53488  0.92184  1.0000
  C   C843      1.0  0.25280  0.57391  0.90879  1.0000
  H   H1031     1.0  0.18103  0.98526  0.77371  1.0000
  H   H1032     1.0  0.26899  0.53384  0.89602  1.0000
  H   H1033     1.0  0.28560  0.55823  0.88856  1.0000
  H   H1034     1.0  0.31777  0.95368  0.77456  1.0000
  C   C844      1.0  0.29395  0.56631  0.91395  1.0000
  H   H1035     1.0  0.28368  0.52151  0.92463  1.0000
  C   C845      1.0  0.00608  0.78654  0.92391  1.0000
  H   H1036     1.0  0.24541  0.58224  0.91824  1.0000
  H   H1037     1.0  0.25726  0.58908  0.90028  1.0000
  C   C846      1.0  0.18935  0.97709  0.94437  1.0000
  H   H1038     1.0  0.30827  0.60746  0.81928  1.0000
  C   C847      1.0  0.32026  0.60773  0.86542  1.0000
  C   C848      1.0  0.15371  0.72140  0.96798  1.0000
  C   C849      1.0  0.15776  0.73350  0.93700  1.0000
  C   C850      1.0  0.02349  0.67415  0.90843  1.0000
  C   C851      1.0  0.30058  0.51103  0.76849  1.0000
  C   C852      1.0  0.02828  0.90593  0.87430  1.0000
  Fe  Fe112     1.0  0.23324  0.98922  0.96679  1.0000
  C   C853      1.0  0.17240  0.97633  0.93592  1.0000
  C   C854      1.0  0.17175  0.81016  0.86732  1.0000
  H   H1039     1.0  0.23971  0.69438  0.88098  1.0000
  H   H1040     1.0  0.31409  0.52354  0.76750  1.0000
  H   H1041     1.0  0.30758  0.58814  0.94059  1.0000
  C   C855      1.0  0.16786  0.51987  0.97283  1.0000
  H   H1042     1.0  0.01801  0.90544  0.88494  1.0000
  N   N58       1.0  0.15622  0.54575  0.97343  1.0000
  N   N59       1.0  0.22166  0.66265  0.88550  1.0000
  C   C856      1.0  0.22068  0.64191  0.87869  1.0000
  C   C857      1.0  0.19627  0.67639  0.88823  1.0000
  C   C858      1.0  0.23666  0.67973  0.87584  1.0000
  C   C859      1.0  0.23279  0.65293  0.89804  1.0000
  C   C860      1.0  0.25807  0.64229  0.89701  1.0000
  C   C861      1.0  0.21906  0.65309  0.91149  1.0000
  C   C862      1.0  0.26907  0.63321  0.90869  1.0000
  C   C863      1.0  0.23029  0.64394  0.92309  1.0000
  C   C864      1.0  0.25519  0.63402  0.92171  1.0000
  H   H1043     1.0  0.20739  0.63008  0.88495  1.0000
  H   H1044     1.0  0.21492  0.64854  0.86847  1.0000
  H   H1045     1.0  0.13626  0.50188  0.98346  1.0000
  H   H1046     1.0  0.20101  0.97164  0.75226  1.0000
  C   C865      1.0  0.00442  0.87728  0.91389  1.0000
  H   H1047     1.0  0.00869  0.85744  0.91599  1.0000
  C   C866      1.0  0.00880  0.76105  0.92550  1.0000
  H   H1048     1.0  0.16160  0.50175  0.75605  1.0000
  C   C867      1.0  0.31727  0.98450  0.88488  1.0000
  C   C868      1.0  0.29576  0.51709  0.80357  1.0000
  C   C869      1.0  0.26550  0.49446  0.78231  1.0000
  H   H1049     1.0  0.31980  0.59812  0.79765  1.0000
  H   H1050     1.0  0.25426  0.50066  0.77391  1.0000
  C   C870      1.0  0.19206  0.97511  0.80305  1.0000
  H   H1051     1.0  0.14140  0.96054  0.79510  1.0000
  H   H1052     1.0  0.18387  0.98183  0.81291  1.0000
  H   H1053     1.0  0.12381  0.49988  0.74765  1.0000
  C   C871      1.0  0.32717  0.96074  0.83098  1.0000
  C   C872      1.0  0.32603  0.64386  0.84831  1.0000
  H   H1054     1.0  0.31251  0.56610  0.83368  1.0000
  H   H1055     1.0  0.32643  0.84116  0.83733  1.0000
  S   S226      1.0  0.29217  0.51666  0.98864  1.0000
  H   H1056     1.0  0.32306  0.95191  0.75676  1.0000
  C   C873      1.0  0.24368  0.98404  0.77384  1.0000
  H   H1057     1.0  0.29723  0.96989  0.91879  1.0000
  H   H1058     1.0  0.31057  0.82519  0.82917  1.0000
  H   H1059     1.0  0.29999  0.99168  0.75263  1.0000
  S   S227      1.0  0.32282  0.91297  0.84344  1.0000
  H   H1060     1.0  0.23308  0.97475  0.91100  1.0000
  C   C874      1.0  0.31239  0.80315  0.85506  1.0000
  H   H1061     1.0  0.30887  0.82132  0.85853  1.0000
  C   C875      1.0  0.29592  0.97850  0.90834  1.0000
  C   C876      1.0  0.24598  0.98822  0.75951  1.0000
  H   H1062     1.0  0.00630  0.68997  0.81118  1.0000
  C   C877      1.0  0.32813  0.82408  0.83295  1.0000
  C   C878      1.0  0.32940  0.58983  0.92050  1.0000
  C   C879      1.0  0.32903  0.51096  0.93374  1.0000
  H   H1063     1.0  0.25256  0.49350  0.79222  1.0000
  H   H1064     1.0  0.32291  0.49339  0.91781  1.0000
  Fe  Fe113     1.0  0.57004  0.07929  0.06454  1.0000
  S   S228      1.0  0.59587  0.05312  0.05206  1.0000
  S   S229      1.0  0.52825  0.08458  0.06911  1.0000
  Fe  Fe114     1.0  0.61222  0.09235  0.07598  1.0000
  S   S230      1.0  0.64129  0.06621  0.06494  1.0000
  S   S231      1.0  0.61720  0.11454  0.09147  1.0000
  Fe  Fe115     1.0  0.62094  0.08143  0.04715  1.0000
  C   C880      1.0  0.34220  0.00701  0.16437  1.0000
  Fe  Fe116     1.0  0.61389  0.04016  0.07081  1.0000
  H   H1065     1.0  0.64390  0.40859  0.13208  1.0000
  S   S232      1.0  0.59331  0.10920  0.05795  1.0000
  S   S233      1.0  0.58676  0.06466  0.08353  1.0000
  Fe  Fe117     1.0  0.36586  0.04989  0.04215  1.0000
  H   H1066     1.0  0.38464  0.46964  0.12840  1.0000
  H   H1067     1.0  0.33938  0.07840  0.09211  1.0000
  Fe  Fe118     1.0  0.41631  0.04297  0.05141  1.0000
  S   S234      1.0  0.39953  0.04924  0.07276  1.0000
  S   S235      1.0  0.45749  0.03765  0.04359  1.0000
  Fe  Fe119     1.0  0.37286  0.02550  0.07130  1.0000
  C   C881      1.0  0.35774  0.99712  0.15347  1.0000
  Fe  Fe120     1.0  0.37375  0.07982  0.06267  1.0000
  S   S236      1.0  0.36604  0.11550  0.07073  1.0000
  S   S237      1.0  0.39141  0.01646  0.05050  1.0000
  S   S238      1.0  0.39240  0.07562  0.04136  1.0000
  C   C882      1.0  0.33367  0.47478  0.13325  1.0000
  C   C883      1.0  0.61958  0.49229  0.12358  1.0000
  C   C884      1.0  0.65639  0.99606  0.09290  1.0000
  C   C885      1.0  0.36775  0.00455  0.99876  1.0000
  H   H1068     1.0  0.54378  0.02231  0.20360  1.0000
  H   H1069     1.0  0.37635  0.00453  0.13269  1.0000
  H   H1070     1.0  0.60764  0.43809  0.13877  1.0000
  H   H1071     1.0  0.62439  0.46725  0.08984  1.0000
  S   S239      1.0  0.64095  0.09567  0.02627  1.0000
  C   C886      1.0  0.36402  0.01224  0.14106  1.0000
  H   H1072     1.0  0.59567  0.07886  0.11302  1.0000
  H   H1073     1.0  0.33868  0.02058  0.18950  1.0000
  C   C887      1.0  0.64350  0.12855  0.08944  1.0000
  N   N60       1.0  0.63987  0.05340  0.12028  1.0000
  H   H1074     1.0  0.57022  0.03325  0.16718  1.0000
  H   H1075     1.0  0.36294  0.48904  0.10907  1.0000
  H   H1076     1.0  0.62950  0.34379  0.11508  1.0000
  H   H1077     1.0  0.65036  0.34605  0.14767  1.0000
  C   C888      1.0  0.33473  0.12824  0.07305  1.0000
  H   H1078     1.0  0.34505  0.46369  0.12603  1.0000
  H   H1079     1.0  0.64985  0.46328  0.12782  1.0000
  C   C889      1.0  0.50695  0.00780  0.17611  1.0000
  C   C890      1.0  0.63918  0.46299  0.10848  1.0000
  H   H1080     1.0  0.64427  0.06893  0.99384  1.0000
  C   C891      1.0  0.33868  0.04732  0.15027  1.0000
  H   H1081     1.0  0.65003  0.03229  0.13924  1.0000
  H   H1082     1.0  0.63238  0.14095  0.10898  1.0000
  H   H1083     1.0  0.33823  0.15084  0.08727  1.0000
  H   H1084     1.0  0.65205  0.04228  0.02821  1.0000
  H   H1085     1.0  0.62928  0.00569  0.12998  1.0000
  S   S240      1.0  0.34626  0.05799  0.02354  1.0000
  H   H1086     1.0  0.34130  0.07365  0.10999  1.0000
  C   C892      1.0  0.51007  0.06910  0.06241  1.0000
  C   C893      1.0  0.51777  0.06115  0.04974  1.0000
  C   C894      1.0  0.50169  0.05093  0.04422  1.0000
  C   C895      1.0  0.47784  0.04870  0.05130  1.0000
  C   C896      1.0  0.47050  0.05596  0.06416  1.0000
  C   C897      1.0  0.48654  0.06615  0.06967  1.0000
  H   H1087     1.0  0.53581  0.06350  0.04401  1.0000
  H   H1088     1.0  0.50753  0.04531  0.03426  1.0000
  H   H1089     1.0  0.45236  0.05398  0.06981  1.0000
  H   H1090     1.0  0.48054  0.07212  0.07953  1.0000
  C   C898      1.0  0.57913  0.39098  0.13748  1.0000
  C   C899      1.0  0.65095  0.05631  0.10558  1.0000
  H   H1091     1.0  0.38945  0.02363  0.00707  1.0000
  N   N61       1.0  0.54610  0.01388  0.18330  1.0000
  C   C900      1.0  0.38182  0.02261  0.99816  1.0000
  H   H1092     1.0  0.63778  0.06738  0.09898  1.0000
  C   C901      1.0  0.66114  0.35451  0.13801  1.0000
  C   C902      1.0  0.61629  0.04421  0.12200  1.0000
  C   C903      1.0  0.61399  0.01923  0.12705  1.0000
  C   C904      1.0  0.59511  0.05995  0.11777  1.0000
  H   H1093     1.0  0.58460  0.99873  0.18298  1.0000
  C   C905      1.0  0.57289  0.05139  0.11904  1.0000
  C   C906      1.0  0.60544  0.42005  0.13740  1.0000
  C   C907      1.0  0.54853  0.01942  0.08133  1.0000
  H   H1094     1.0  0.55532  0.03015  0.07124  1.0000
  C   C908      1.0  0.52228  0.00479  0.18619  1.0000
  H   H1095     1.0  0.34683  0.05016  0.18229  1.0000
  H   H1096     1.0  0.56327  0.03888  0.19052  1.0000
  H   H1097     1.0  0.55714  0.06377  0.11555  1.0000
  H   H1098     1.0  0.64458  0.02666  0.20300  1.0000
  H   H1099     1.0  0.34550  0.04797  0.10113  1.0000
  H   H1100     1.0  0.65572  0.48338  0.03609  1.0000
  H   H1101     1.0  0.51194  0.01656  0.16566  1.0000
  H   H1102     1.0  0.65947  0.11912  0.06956  1.0000
  H   H1103     1.0  0.50840  0.01386  0.07255  1.0000
  H   H1104     1.0  0.56349  0.01672  0.08749  1.0000
  C   C909      1.0  0.35460  0.03727  0.13949  1.0000
  H   H1105     1.0  0.65645  0.03831  0.10201  1.0000
  S   S241      1.0  0.61769  0.99972  0.07925  1.0000
  C   C910      1.0  0.66151  0.12815  0.07769  1.0000
  C   C911      1.0  0.64629  0.14043  0.09990  1.0000
  H   H1106     1.0  0.59615  0.35632  0.13226  1.0000
  H   H1107     1.0  0.53810  0.04322  0.16663  1.0000
  H   H1108     1.0  0.53032  0.04689  0.19165  1.0000
  H   H1109     1.0  0.56601  0.42746  0.14223  1.0000
  C   C912      1.0  0.59177  0.01080  0.12820  1.0000
  C   C913      1.0  0.54579  0.03125  0.19267  1.0000
  N   N62       1.0  0.43685  0.12775  0.05024  1.0000
  C   C914      1.0  0.45090  0.11106  0.04067  1.0000
  C   C915      1.0  0.43015  0.11296  0.06391  1.0000
  C   C916      1.0  0.41359  0.13935  0.04505  1.0000
  C   C917      1.0  0.45213  0.14560  0.05147  1.0000
  C   C918      1.0  0.44443  0.17149  0.04883  1.0000
  C   C919      1.0  0.47546  0.13719  0.05566  1.0000
  C   C920      1.0  0.45943  0.18772  0.05016  1.0000
  C   C921      1.0  0.49030  0.15353  0.05694  1.0000
  C   C922      1.0  0.48232  0.17876  0.05417  1.0000
  H   H1110     1.0  0.46787  0.10020  0.04422  1.0000
  H   H1111     1.0  0.44001  0.09728  0.03949  1.0000
  H   H1112     1.0  0.45657  0.12152  0.03031  1.0000
  H   H1113     1.0  0.44646  0.10345  0.06857  1.0000
  H   H1114     1.0  0.41958  0.09852  0.06332  1.0000
  H   H1115     1.0  0.41849  0.12469  0.07122  1.0000
  H   H1116     1.0  0.41714  0.15064  0.03471  1.0000
  H   H1117     1.0  0.40278  0.12532  0.04414  1.0000
  H   H1118     1.0  0.40119  0.15092  0.05222  1.0000
  H   H1119     1.0  0.42689  0.17966  0.04577  1.0000
  H   H1120     1.0  0.48250  0.11782  0.05807  1.0000
  H   H1121     1.0  0.45325  0.20740  0.04809  1.0000
  H   H1122     1.0  0.50808  0.14643  0.06013  1.0000
  H   H1123     1.0  0.49390  0.19137  0.05519  1.0000
  H   H1124     1.0  0.53227  0.03132  0.08623  1.0000
  H   H1125     1.0  0.65786  0.32695  0.11990  1.0000
  H   H1126     1.0  0.65341  0.08399  0.12472  1.0000
  H   H1127     1.0  0.56081  0.38642  0.13902  1.0000
  H   H1128     1.0  0.62522  0.07686  0.13548  1.0000
  C   C923      1.0  0.55217  0.02678  0.16901  1.0000
  C   C924      1.0  0.64070  0.33939  0.12346  1.0000
  C   C925      1.0  0.62316  0.47430  0.09923  1.0000
  C   C926      1.0  0.66093  0.37436  0.11443  1.0000
  N   N63       1.0  0.64615  0.36208  0.12686  1.0000
  C   C927      1.0  0.63746  0.47198  0.12065  1.0000
  C   C928      1.0  0.62612  0.40301  0.13354  1.0000
  C   C929      1.0  0.62390  0.37947  0.13131  1.0000
  H   H1129     1.0  0.63104  0.32831  0.13258  1.0000
  S   S242      1.0  0.34547  0.05677  0.06291  1.0000
  H   H1130     1.0  0.38483  0.48635  0.14180  1.0000
  S   S243      1.0  0.66185  0.43828  0.10435  1.0000
  H   H1131     1.0  0.62578  0.09254  0.11807  1.0000
  C   C930      1.0  0.58199  0.41409  0.13933  1.0000
  C   C931      1.0  0.38437  0.48826  0.13065  1.0000
  H   H1132     1.0  0.35983  0.04893  0.12985  1.0000
  H   H1133     1.0  0.55413  0.02009  0.12508  1.0000
  C   C932      1.0  0.57121  0.02684  0.12428  1.0000
  H   H1134     1.0  0.33209  0.06683  0.14835  1.0000
  S   S244      1.0  0.35789  0.00083  0.09034  1.0000
  C   C933      1.0  0.59971  0.37380  0.13356  1.0000
  C   C934      1.0  0.63580  0.07763  0.12489  1.0000
  C   C935      1.0  0.52576  0.00154  0.06928  1.0000
  H   H1135     1.0  0.64912  0.38455  0.10678  1.0000
  C   C936      1.0  0.65802  0.03659  0.12819  1.0000
  H   H1136     1.0  0.33864  0.99458  0.17390  1.0000
  H   H1137     1.0  0.53466  0.01111  0.05934  1.0000
  H   H1138     1.0  0.33193  0.00976  0.03531  1.0000
  H   H1139     1.0  0.55381  0.01434  0.16143  1.0000
  C   C937      1.0  0.66011  0.01186  0.20299  1.0000
  H   H1140     1.0  0.47369  0.00039  0.17126  1.0000
  C   C938      1.0  0.48478  0.99858  0.17918  1.0000
  N   N64       1.0  0.54212  0.99586  0.07980  1.0000
  C   C939      1.0  0.33194  0.03238  0.16310  1.0000
  C   C940      1.0  0.33459  0.06647  0.10216  1.0000
  C   C941      1.0  0.33103  0.04003  0.18592  1.0000
  H   H1141     1.0  0.41108  0.99408  0.08522  1.0000
  H   H1142     1.0  0.42224  0.46469  0.46577  1.0000
  Fe  Fe121     1.0  0.63817  0.42951  0.44191  1.0000
  S   S245      1.0  0.60986  0.45330  0.42995  1.0000
  C   C942      1.0  0.33353  0.99520  0.47926  1.0000
  Fe  Fe122     1.0  0.64399  0.38757  0.42553  1.0000
  S   S246      1.0  0.61685  0.40836  0.41212  1.0000
  H   H1143     1.0  0.34787  0.40683  0.38956  1.0000
  H   H1144     1.0  0.37250  0.38986  0.35446  1.0000
  C   C943      1.0  0.49483  0.25565  0.43320  1.0000
  Fe  Fe123     1.0  0.59396  0.41885  0.43158  1.0000
  S   S247      1.0  0.55467  0.41175  0.43820  1.0000
  H   H1145     1.0  0.50379  0.27947  0.40728  1.0000
  S   S248      1.0  0.62018  0.39596  0.44514  1.0000
  Fe  Fe124     1.0  0.59110  0.24686  0.42119  1.0000
  S   S249      1.0  0.56476  0.25173  0.40649  1.0000
  S   S250      1.0  0.58691  0.27513  0.43480  1.0000
  Fe  Fe125     1.0  0.61689  0.19668  0.41446  1.0000
  S   S251      1.0  0.59242  0.19694  0.39925  1.0000
  H   H1146     1.0  0.41752  0.42282  0.45047  1.0000
  Fe  Fe126     1.0  0.59766  0.23633  0.39223  1.0000
  Fe  Fe127     1.0  0.56157  0.21224  0.41478  1.0000
  S   S252      1.0  0.52435  0.20061  0.42267  1.0000
  S   S253      1.0  0.62424  0.23503  0.40626  1.0000
  S   S254      1.0  0.58570  0.20840  0.43070  1.0000
  Fe  Fe128     1.0  0.35912  0.23961  0.41306  1.0000
  S   S255      1.0  0.37488  0.25087  0.39106  1.0000
  S   S256      1.0  0.34852  0.27009  0.42552  1.0000
  Fe  Fe129     1.0  0.36309  0.18627  0.41006  1.0000
  S   S257      1.0  0.37951  0.19381  0.38774  1.0000
  H   H1147     1.0  0.34664  0.32020  0.42888  1.0000
  Fe  Fe130     1.0  0.40236  0.21644  0.39441  1.0000
  S   S258      1.0  0.44250  0.21630  0.38515  1.0000
  Fe  Fe131     1.0  0.35049  0.22738  0.38671  1.0000
  C   C944      1.0  0.51105  0.46455  0.44715  1.0000
  S   S259      1.0  0.38814  0.20650  0.41684  1.0000
  S   S260      1.0  0.64912  0.44068  0.46004  1.0000
  Fe  Fe132     1.0  0.39063  0.42428  0.42218  1.0000
  S   S261      1.0  0.40316  0.45187  0.40421  1.0000
  S   S262      1.0  0.36646  0.43499  0.44153  1.0000
  Fe  Fe133     1.0  0.41620  0.38092  0.40798  1.0000
  S   S263      1.0  0.43068  0.40543  0.38893  1.0000
  S   S264      1.0  0.42846  0.34040  0.40777  1.0000
  Fe  Fe134     1.0  0.43963  0.42670  0.40336  1.0000
  S   S265      1.0  0.47506  0.44235  0.39870  1.0000
  Fe  Fe135     1.0  0.39294  0.42788  0.39164  1.0000
  S   S266      1.0  0.37339  0.44596  0.37378  1.0000
  S   S267      1.0  0.42789  0.40056  0.42233  1.0000
  S   S268      1.0  0.37768  0.40183  0.40974  1.0000
  C   C945      1.0  0.37070  0.28969  0.42084  1.0000
  C   C946      1.0  0.39427  0.28143  0.41414  1.0000
  C   C947      1.0  0.41180  0.29717  0.41020  1.0000
  C   C948      1.0  0.40585  0.32133  0.41284  1.0000
  C   C949      1.0  0.38234  0.32964  0.41959  1.0000
  C   C950      1.0  0.36482  0.31377  0.42366  1.0000
  H   H1148     1.0  0.39910  0.26279  0.41208  1.0000
  H   H1149     1.0  0.42992  0.29063  0.40494  1.0000
  H   H1150     1.0  0.37770  0.34818  0.42179  1.0000
  H   H1151     1.0  0.51203  0.48151  0.42607  1.0000
  C   C951      1.0  0.50150  0.20731  0.41214  1.0000
  C   C952      1.0  0.47729  0.20444  0.41816  1.0000
  C   C953      1.0  0.45885  0.20813  0.41004  1.0000
  C   C954      1.0  0.46461  0.21414  0.39577  1.0000
  C   C955      1.0  0.48873  0.21748  0.38977  1.0000
  C   C956      1.0  0.50710  0.21436  0.39793  1.0000
  H   H1152     1.0  0.47286  0.19892  0.42914  1.0000
  H   H1153     1.0  0.44037  0.20575  0.41482  1.0000
  H   H1154     1.0  0.49331  0.22218  0.37874  1.0000
  H   H1155     1.0  0.52573  0.21655  0.39319  1.0000
  C   C957      1.0  0.64377  0.20748  0.46287  1.0000
  C   C958      1.0  0.61940  0.33341  0.43388  1.0000
  C   C959      1.0  0.60296  0.31657  0.43696  1.0000
  C   C960      1.0  0.60832  0.29543  0.43088  1.0000
  C   C961      1.0  0.63042  0.29095  0.42186  1.0000
  C   C962      1.0  0.33541  0.47193  0.45326  1.0000
  H   H1156     1.0  0.61501  0.34972  0.43858  1.0000
  H   H1157     1.0  0.58602  0.32004  0.44406  1.0000
  H   H1158     1.0  0.33361  0.29509  0.38105  1.0000
  H   H1159     1.0  0.51405  0.25103  0.42787  1.0000
  C   C963      1.0  0.53337  0.41962  0.42676  1.0000
  C   C964      1.0  0.53800  0.43493  0.41413  1.0000
  C   C965      1.0  0.52001  0.44171  0.40556  1.0000
  C   C966      1.0  0.49762  0.43272  0.40941  1.0000
  C   C967      1.0  0.49345  0.41665  0.42178  1.0000
  C   C968      1.0  0.51111  0.41040  0.43052  1.0000
  H   H1160     1.0  0.55514  0.44209  0.41116  1.0000
  H   H1161     1.0  0.52339  0.45407  0.39595  1.0000
  H   H1162     1.0  0.47647  0.40939  0.42470  1.0000
  H   H1163     1.0  0.50746  0.39860  0.44029  1.0000
  H   H1164     1.0  0.47596  0.26677  0.41042  1.0000
  C   C969      1.0  0.35083  0.43150  0.37031  1.0000
  N   N65       1.0  0.33780  0.31801  0.36098  1.0000
  H   H1165     1.0  0.34458  0.36668  0.34923  1.0000
  Fe  Fe136     1.0  0.63546  0.44041  0.41163  1.0000
  C   C970      1.0  0.35431  0.33318  0.36390  1.0000
  H   H1166     1.0  0.42952  0.47900  0.42795  1.0000
  H   H1167     1.0  0.36529  0.30379  0.34514  1.0000
  H   H1168     1.0  0.40013  0.46614  0.45492  1.0000
  H   H1169     1.0  0.63082  0.17573  0.35475  1.0000
  C   C971      1.0  0.65337  0.20175  0.34271  1.0000
  H   H1170     1.0  0.50524  0.44648  0.46804  1.0000
  H   H1171     1.0  0.65320  0.20702  0.47166  1.0000
  H   H1172     1.0  0.35157  0.19348  0.36758  1.0000
  H   H1173     1.0  0.64639  0.26141  0.34701  1.0000
  C   C972      1.0  0.64398  0.13890  0.45680  1.0000
  H   H1174     1.0  0.48427  0.35125  0.39035  1.0000
  H   H1175     1.0  0.60688  0.20454  0.37000  1.0000
  C   C973      1.0  0.34202  0.43906  0.35780  1.0000
  C   C974      1.0  0.48436  0.28169  0.41260  1.0000
  C   C975      1.0  0.33241  0.46429  0.40364  1.0000
  H   H1176     1.0  0.47084  0.47638  0.42501  1.0000
  C   C976      1.0  0.49475  0.30048  0.42986  1.0000
  H   H1177     1.0  0.66210  0.16389  0.38777  1.0000
  C   C977      1.0  0.35468  0.46612  0.44263  1.0000
  C   C978      1.0  0.51554  0.33937  0.43480  1.0000
  C   C979      1.0  0.38654  0.36129  0.36983  1.0000
  H   H1178     1.0  0.43646  0.42203  0.46269  1.0000
  C   C980      1.0  0.38577  0.33737  0.37673  1.0000
  H   H1179     1.0  0.33305  0.03830  0.42717  1.0000
  C   C981      1.0  0.63865  0.15199  0.44405  1.0000
  H   H1180     1.0  0.46308  0.44155  0.46792  1.0000
  C   C982      1.0  0.34094  0.41313  0.38003  1.0000
  N   N66       1.0  0.48302  0.28060  0.42753  1.0000
  C   C983      1.0  0.48411  0.32547  0.42643  1.0000
  C   C984      1.0  0.36409  0.48513  0.43315  1.0000
  N   N67       1.0  0.43759  0.45337  0.44619  1.0000
  H   H1181     1.0  0.34542  0.00888  0.47739  1.0000
  S   S269      1.0  0.35969  0.14627  0.41791  1.0000
  H   H1182     1.0  0.64093  0.18837  0.46300  1.0000
  H   H1183     1.0  0.45034  0.41475  0.44606  1.0000
  H   H1184     1.0  0.37859  0.48107  0.42479  1.0000
  H   H1185     1.0  0.34406  0.44663  0.40151  1.0000
  H   H1186     1.0  0.33067  0.33789  0.34110  1.0000
  C   C985      1.0  0.43094  0.45907  0.43223  1.0000
  H   H1187     1.0  0.62993  0.13940  0.46582  1.0000
  C   C986      1.0  0.62123  0.21049  0.36193  1.0000
  C   C987      1.0  0.43548  0.42716  0.45159  1.0000
  C   C988      1.0  0.50092  0.47317  0.43522  1.0000
  C   C989      1.0  0.64351  0.24251  0.34891  1.0000
  H   H1188     1.0  0.46783  0.33050  0.42170  1.0000
  H   H1189     1.0  0.49496  0.25369  0.44438  1.0000
  H   H1190     1.0  0.37060  0.30480  0.37922  1.0000
  H   H1191     1.0  0.48502  0.24115  0.43188  1.0000
  C   C990      1.0  0.47314  0.45025  0.45856  1.0000
  H   H1192     1.0  0.63483  0.27461  0.41721  1.0000
  H   H1193     1.0  0.39858  0.37215  0.37222  1.0000
  C   C991      1.0  0.65779  0.22593  0.34054  1.0000
  H   H1194     1.0  0.36441  0.28447  0.36166  1.0000
  N   N68       1.0  0.57394  0.35626  0.40054  1.0000
  C   C992      1.0  0.58382  0.37659  0.39055  1.0000
  C   C993      1.0  0.57173  0.36172  0.41456  1.0000
  C   C994      1.0  0.59236  0.33355  0.39943  1.0000
  C   C995      1.0  0.54942  0.35423  0.39795  1.0000
  C   C996      1.0  0.53014  0.37474  0.39815  1.0000
  C   C997      1.0  0.54396  0.33238  0.39499  1.0000
  C   C998      1.0  0.50699  0.37361  0.39542  1.0000
  C   C999      1.0  0.52074  0.33148  0.39223  1.0000
  C   C1000     1.0  0.50227  0.35202  0.39248  1.0000
  H   H1195     1.0  0.57279  0.39490  0.39195  1.0000
  H   H1196     1.0  0.60290  0.37767  0.39165  1.0000
  H   H1197     1.0  0.58415  0.37416  0.37982  1.0000
  H   H1198     1.0  0.58967  0.36422  0.41670  1.0000
  H   H1199     1.0  0.56519  0.34657  0.42244  1.0000
  H   H1200     1.0  0.55886  0.37891  0.41622  1.0000
  H   H1201     1.0  0.61049  0.33564  0.40155  1.0000
  H   H1202     1.0  0.58652  0.31766  0.40706  1.0000
  H   H1203     1.0  0.59562  0.32867  0.38897  1.0000
  H   H1204     1.0  0.53289  0.39195  0.40032  1.0000
  H   H1205     1.0  0.55735  0.31577  0.39461  1.0000
  C   C1001     1.0  0.49712  0.45330  0.45883  1.0000
  C   C1002     1.0  0.41926  0.46891  0.45492  1.0000
  C   C1003     1.0  0.46261  0.45784  0.44640  1.0000
  H   H1206     1.0  0.62051  0.16241  0.44325  1.0000
  C   C1004     1.0  0.47708  0.46994  0.43476  1.0000
  S   S270      1.0  0.64870  0.46648  0.39284  1.0000
  C   C1005     1.0  0.49428  0.34455  0.42894  1.0000
  H   H1207     1.0  0.64515  0.42017  0.38553  1.0000
  H   H1208     1.0  0.48568  0.36344  0.42623  1.0000
  C   C1006     1.0  0.64155  0.32894  0.42493  1.0000
  C   C1007     1.0  0.37013  0.32339  0.37374  1.0000
  N   N69       1.0  0.44454  0.13573  0.40918  1.0000
  C   C1008     1.0  0.42988  0.15625  0.40108  1.0000
  C   C1009     1.0  0.44594  0.11297  0.40360  1.0000
  C   C1010     1.0  0.43077  0.13247  0.42343  1.0000
  C   C1011     1.0  0.46972  0.14093  0.40821  1.0000
  C   C1012     1.0  0.48061  0.13996  0.41994  1.0000
  C   C1013     1.0  0.48437  0.14673  0.39518  1.0000
  C   C1014     1.0  0.50450  0.14484  0.41860  1.0000
  C   C1015     1.0  0.50817  0.15172  0.39399  1.0000
  C   C1016     1.0  0.51821  0.15076  0.40567  1.0000
  H   H1209     1.0  0.43698  0.15857  0.38989  1.0000
  H   H1210     1.0  0.41043  0.15355  0.40230  1.0000
  H   H1211     1.0  0.42983  0.17394  0.40437  1.0000
  H   H1212     1.0  0.45438  0.11479  0.39257  1.0000
  H   H1213     1.0  0.42731  0.10824  0.40436  1.0000
  H   H1214     1.0  0.45722  0.09713  0.40924  1.0000
  H   H1215     1.0  0.42905  0.14916  0.42816  1.0000
  H   H1216     1.0  0.41161  0.12945  0.42376  1.0000
  H   H1217     1.0  0.43961  0.11620  0.43002  1.0000
  H   H1218     1.0  0.47096  0.13598  0.43027  1.0000
  H   H1219     1.0  0.47742  0.14792  0.38579  1.0000
  H   H1220     1.0  0.51223  0.14497  0.42763  1.0000
  H   H1221     1.0  0.51867  0.15698  0.38394  1.0000
  H   H1222     1.0  0.53635  0.15545  0.40474  1.0000
  C   C1017     1.0  0.45674  0.28357  0.43407  1.0000
  C   C1018     1.0  0.51696  0.29587  0.43538  1.0000
  C   C1019     1.0  0.52695  0.31511  0.43790  1.0000
  H   H1223     1.0  0.47440  0.29939  0.40775  1.0000
  H   H1224     1.0  0.44565  0.30063  0.42939  1.0000
  H   H1225     1.0  0.44769  0.26832  0.43293  1.0000
  H   H1226     1.0  0.45477  0.28410  0.44521  1.0000
  H   H1227     1.0  0.52706  0.27758  0.43788  1.0000
  H   H1228     1.0  0.54372  0.31109  0.44229  1.0000
  C   C1020     1.0  0.62560  0.23466  0.35981  1.0000
  H   H1229     1.0  0.49266  0.38967  0.39549  1.0000
  H   H1230     1.0  0.44458  0.44862  0.42500  1.0000
  C   C1021     1.0  0.65682  0.15147  0.43238  1.0000
  H   H1231     1.0  0.34112  0.28584  0.35168  1.0000
  H   H1232     1.0  0.52330  0.35419  0.43684  1.0000
  S   S271      1.0  0.60894  0.25519  0.37071  1.0000
  C   C1022     1.0  0.64715  0.30757  0.41900  1.0000
  H   H1233     1.0  0.42017  0.48875  0.45120  1.0000
  H   H1234     1.0  0.39743  0.32960  0.38443  1.0000
  S   S272      1.0  0.65135  0.16851  0.41632  1.0000
  H   H1235     1.0  0.41281  0.45403  0.43226  1.0000
  C   C1023     1.0  0.35577  0.35757  0.35691  1.0000
  C   C1024     1.0  0.35284  0.29716  0.35461  1.0000
  C   C1025     1.0  0.63476  0.19422  0.35325  1.0000
  H   H1236     1.0  0.33873  0.10190  0.42413  1.0000
  H   H1237     1.0  0.51714  0.31483  0.38970  1.0000
  H   H1238     1.0  0.34247  0.16188  0.35629  1.0000
  H   H1239     1.0  0.34974  0.45318  0.35019  1.0000
  C   C1026     1.0  0.37180  0.37123  0.35984  1.0000
  H   H1240     1.0  0.65400  0.22810  0.42855  1.0000
  H   H1241     1.0  0.62500  0.21825  0.46486  1.0000
  C   C1027     1.0  0.65641  0.43000  0.37716  1.0000
  H   H1242     1.0  0.33380  0.18690  0.26018  1.0000
  H   H1243     1.0  0.52996  0.46608  0.44723  1.0000
  N   N70       1.0  0.65834  0.21748  0.44969  1.0000
  H   H1244     1.0  0.65617  0.35234  0.34092  1.0000
  C   C1028     1.0  0.33665  0.19793  0.36180  1.0000
  C   C1029     1.0  0.64945  0.28411  0.45479  1.0000
  H   H1245     1.0  0.62589  0.25778  0.45744  1.0000
  S   S273      1.0  0.33240  0.21847  0.40859  1.0000
  H   H1246     1.0  0.34265  0.47246  0.40949  1.0000
  H   H1247     1.0  0.63942  0.20253  0.43746  1.0000
  H   H1248     1.0  0.62596  0.23295  0.44044  1.0000
  C   C1030     1.0  0.64480  0.26069  0.45462  1.0000
  C   C1031     1.0  0.33155  0.18007  0.35534  1.0000
  H   H1249     1.0  0.63450  0.29828  0.45798  1.0000
  C   C1032     1.0  0.33179  0.13915  0.42804  1.0000
  C   C1033     1.0  0.64378  0.22038  0.43859  1.0000
  C   C1034     1.0  0.66080  0.45320  0.37805  1.0000
  H   H1250     1.0  0.66255  0.35174  0.35777  1.0000
  S   S274      1.0  0.66227  0.34992  0.42107  1.0000
  H   H1251     1.0  0.33145  0.47645  0.39353  1.0000
  H   H1252     1.0  0.66232  0.40201  0.36452  1.0000
  C   C1035     1.0  0.64458  0.11343  0.69631  1.0000
  H   H1253     1.0  0.66153  0.00934  0.72271  1.0000
  H   H1254     1.0  0.62884  0.09368  0.67909  1.0000
  H   H1255     1.0  0.63988  0.00127  0.51592  1.0000
  C   C1036     1.0  0.65036  0.06417  0.73385  1.0000
  H   H1256     1.0  0.62659  0.11814  0.70294  1.0000
  H   H1257     1.0  0.54808  0.99721  0.49092  1.0000
  H   H1258     1.0  0.37955  0.32851  0.73438  1.0000
  H   H1259     1.0  0.53054  0.99553  0.50794  1.0000
  C   C1037     1.0  0.65138  0.07068  0.70891  1.0000
  C   C1038     1.0  0.65746  0.02909  0.72237  1.0000
  C   C1039     1.0  0.33550  0.08242  0.73427  1.0000
  H   H1260     1.0  0.65920  0.11921  0.70037  1.0000
  H   H1261     1.0  0.64512  0.15389  0.73824  1.0000
  C   C1040     1.0  0.65484  0.03880  0.73435  1.0000
  N   N71       1.0  0.65026  0.08680  0.69544  1.0000
  C   C1041     1.0  0.66013  0.13883  0.73683  1.0000
  C   C1042     1.0  0.64858  0.07996  0.72136  1.0000
  H   H1262     1.0  0.34989  0.47093  0.73678  1.0000
  C   C1043     1.0  0.65583  0.04471  0.70982  1.0000
  H   H1263     1.0  0.64547  0.09937  0.72175  1.0000
  H   H1264     1.0  0.63535  0.06219  0.68648  1.0000
  H   H1265     1.0  0.64363  0.12504  0.68605  1.0000
  H   H1266     1.0  0.65898  0.03625  0.70074  1.0000
  H   H1267     1.0  0.37802  0.28531  0.73574  1.0000
  H   H1268     1.0  0.37054  0.36997  0.73082  1.0000
  H   H1269     1.0  0.61285  0.08283  0.69585  1.0000
  C   C1044     1.0  0.63098  0.08113  0.68896  1.0000
  H   H1270     1.0  0.55897  0.00662  0.50437  1.0000
  C   C1045     1.0  0.34673  0.12746  0.73756  1.0000
  S   S275      1.0  0.35297  0.15612  0.73941  1.0000
  C   C1046     1.0  0.32990  0.12700  0.72905  1.0000
  H   H1271     1.0  0.58064  0.32656  0.74031  1.0000
  Fe  Fe137     1.0  0.38610  0.01390  0.88138  1.0000
  H   H1272     1.0  0.33230  0.07939  0.79230  1.0000
  Fe  Fe138     1.0  0.39391  0.06122  0.86225  1.0000
  S   S276      1.0  0.41417  0.04143  0.84532  1.0000
  S   S277      1.0  0.39399  0.10175  0.85646  1.0000
  Fe  Fe139     1.0  0.43379  0.01635  0.86130  1.0000
  H   H1273     1.0  0.55394  0.02735  0.85931  1.0000
  S   S278      1.0  0.36277  0.03962  0.86712  1.0000
  S   S279      1.0  0.41522  0.03772  0.87807  1.0000
  Fe  Fe140     1.0  0.63221  0.03365  0.89474  1.0000
  H   H1274     1.0  0.47138  0.47247  0.90651  1.0000
  C   C1047     1.0  0.54996  0.25977  0.75605  1.0000
  Fe  Fe141     1.0  0.63358  0.05459  0.86449  1.0000
  S   S280      1.0  0.61026  0.02914  0.86090  1.0000
  S   S281      1.0  0.65021  0.08040  0.84669  1.0000
  Fe  Fe142     1.0  0.58721  0.03744  0.88082  1.0000
  S   S282      1.0  0.54554  0.04376  0.88586  1.0000
  H   H1275     1.0  0.41048  0.09760  0.81574  1.0000
  S   S283      1.0  0.60884  0.06541  0.88349  1.0000
  H   H1276     1.0  0.36140  0.06579  0.74796  1.0000
  N   N72       1.0  0.46385  0.22934  0.78326  1.0000
  H   H1277     1.0  0.38769  0.48105  0.84764  1.0000
  S   S284      1.0  0.64650  0.45528  0.86417  1.0000
  C   C1048     1.0  0.60499  0.28437  0.79706  1.0000
  S   S285      1.0  0.47510  0.00701  0.85503  1.0000
  H   H1278     1.0  0.35006  0.05658  0.95227  1.0000
  H   H1279     1.0  0.44072  0.22756  0.80307  1.0000
  Fe  Fe143     1.0  0.61152  0.36973  0.79269  1.0000
  S   S286      1.0  0.61422  0.38575  0.77032  1.0000
  Fe  Fe144     1.0  0.60565  0.42022  0.80135  1.0000
  S   S287      1.0  0.60786  0.43978  0.77963  1.0000
  C   C1049     1.0  0.39491  0.47275  0.92925  1.0000
  Fe  Fe145     1.0  0.58323  0.41469  0.77731  1.0000
  S   S288      1.0  0.54881  0.43020  0.76823  1.0000
  S   S289      1.0  0.57882  0.39731  0.79933  1.0000
  Fe  Fe146     1.0  0.62230  0.15704  0.76948  1.0000
  S   S290      1.0  0.62703  0.17743  0.78555  1.0000
  Fe  Fe147     1.0  0.57088  0.18592  0.76714  1.0000
  S   S291      1.0  0.57152  0.20858  0.78299  1.0000
  C   C1050     1.0  0.64621  0.07747  0.95911  1.0000
  Fe  Fe148     1.0  0.61024  0.21131  0.77249  1.0000
  S   S292      1.0  0.62740  0.24591  0.76536  1.0000
  Fe  Fe149     1.0  0.58808  0.17274  0.79458  1.0000
  S   S293      1.0  0.57295  0.15896  0.81652  1.0000
  S   S294      1.0  0.60842  0.19119  0.75560  1.0000
  S   S295      1.0  0.58449  0.14987  0.77950  1.0000
  Fe  Fe150     1.0  0.37391  0.16125  0.75540  1.0000
  H   H1280     1.0  0.54371  0.44354  0.81181  1.0000
  C   C1051     1.0  0.53498  0.02685  0.86402  1.0000
  Fe  Fe151     1.0  0.41887  0.14971  0.76995  1.0000
  S   S296      1.0  0.40223  0.17552  0.78479  1.0000
  S   S297      1.0  0.45582  0.12793  0.77354  1.0000
  Fe  Fe152     1.0  0.36776  0.16040  0.78590  1.0000
  H   H1281     1.0  0.37072  0.39007  0.74236  1.0000
  Fe  Fe153     1.0  0.39063  0.20144  0.76635  1.0000
  S   S298      1.0  0.40071  0.23959  0.76039  1.0000
  S   S299      1.0  0.38532  0.13214  0.77262  1.0000
  S   S300      1.0  0.40938  0.17627  0.75128  1.0000
  Fe  Fe154     1.0  0.38058  0.35774  0.79217  1.0000
  S   S301      1.0  0.40633  0.36890  0.77289  1.0000
  S   S302      1.0  0.36202  0.32418  0.79635  1.0000
  Fe  Fe155     1.0  0.38486  0.40208  0.80457  1.0000
  S   S303      1.0  0.41090  0.41642  0.78623  1.0000
  S   S304      1.0  0.37291  0.41913  0.82375  1.0000
  Fe  Fe156     1.0  0.38527  0.40702  0.77419  1.0000
  H   H1282     1.0  0.49823  0.20466  0.77968  1.0000
  Fe  Fe157     1.0  0.42892  0.37699  0.78694  1.0000
  S   S305      1.0  0.46876  0.36077  0.78723  1.0000
  S   S306      1.0  0.35796  0.39537  0.79258  1.0000
  S   S307      1.0  0.40460  0.36322  0.80618  1.0000
  H   H1283     1.0  0.51082  0.23219  0.78844  1.0000
  C   C1052     1.0  0.39019  0.26232  0.77087  1.0000
  C   C1053     1.0  0.40023  0.28409  0.76732  1.0000
  C   C1054     1.0  0.39220  0.30286  0.77527  1.0000
  C   C1055     1.0  0.37363  0.30026  0.78667  1.0000
  C   C1056     1.0  0.36363  0.27843  0.79026  1.0000
  C   C1057     1.0  0.37203  0.25938  0.78245  1.0000
  H   H1284     1.0  0.41421  0.28649  0.75833  1.0000
  H   H1285     1.0  0.40022  0.31941  0.77246  1.0000
  S   S308      1.0  0.35418  0.18884  0.76890  1.0000
  H   H1286     1.0  0.36415  0.24266  0.78525  1.0000
  C   C1058     1.0  0.33008  0.32302  0.76012  1.0000
  C   C1059     1.0  0.51664  0.17511  0.76020  1.0000
  C   C1060     1.0  0.52019  0.15294  0.76930  1.0000
  C   C1061     1.0  0.50175  0.13810  0.77305  1.0000
  C   C1062     1.0  0.47946  0.14574  0.76803  1.0000
  N   N73       1.0  0.43415  0.48654  0.91502  1.0000
  H   H1287     1.0  0.44055  0.27737  0.78163  1.0000
  H   H1288     1.0  0.53713  0.14719  0.77340  1.0000
  H   H1289     1.0  0.50464  0.12085  0.77997  1.0000
  C   C1063     1.0  0.61312  0.30690  0.79153  1.0000
  C   C1064     1.0  0.46772  0.29514  0.78560  1.0000
  C   C1065     1.0  0.47365  0.25084  0.78511  1.0000
  C   C1066     1.0  0.62219  0.26882  0.77577  1.0000
  C   C1067     1.0  0.63072  0.29117  0.77033  1.0000
  C   C1068     1.0  0.62594  0.31027  0.77810  1.0000
  H   H1290     1.0  0.64089  0.29382  0.76001  1.0000
  H   H1291     1.0  0.63248  0.32746  0.77379  1.0000
  C   C1069     1.0  0.52610  0.41146  0.77400  1.0000
  C   C1070     1.0  0.53150  0.38821  0.78180  1.0000
  C   C1071     1.0  0.51346  0.37313  0.78615  1.0000
  C   C1072     1.0  0.49005  0.38106  0.78256  1.0000
  C   C1073     1.0  0.48438  0.40449  0.77499  1.0000
  C   C1074     1.0  0.50244  0.41970  0.77071  1.0000
  H   H1292     1.0  0.54980  0.38147  0.78414  1.0000
  H   H1293     1.0  0.60277  0.24826  0.79351  1.0000
  H   H1294     1.0  0.46635  0.41064  0.77211  1.0000
  H   H1295     1.0  0.49824  0.43764  0.76460  1.0000
  H   H1296     1.0  0.37808  0.05324  0.96613  1.0000
  H   H1297     1.0  0.51238  0.44119  0.81166  1.0000
  C   C1075     1.0  0.39485  0.45981  0.81248  1.0000
  C   C1076     1.0  0.38343  0.44623  0.82433  1.0000
  C   C1077     1.0  0.38067  0.45411  0.83698  1.0000
  H   H1298     1.0  0.53941  0.35262  0.74622  1.0000
  H   H1299     1.0  0.34109  0.03063  0.76153  1.0000
  H   H1300     1.0  0.39659  0.45422  0.80266  1.0000
  H   H1301     1.0  0.37174  0.44370  0.84617  1.0000
  H   H1302     1.0  0.40734  0.07982  0.78237  1.0000
  C   C1078     1.0  0.63052  0.45168  0.85156  1.0000
  H   H1303     1.0  0.52615  0.01195  0.84777  1.0000
  C   C1079     1.0  0.60058  0.46843  0.83641  1.0000
  C   C1080     1.0  0.60745  0.44771  0.82995  1.0000
  C   C1081     1.0  0.37043  0.37051  0.74180  1.0000
  C   C1082     1.0  0.39877  0.05783  0.80819  1.0000
  C   C1083     1.0  0.34573  0.01757  0.77045  1.0000
  H   H1304     1.0  0.46997  0.00786  0.82644  1.0000
  H   H1305     1.0  0.47156  0.13508  0.80316  1.0000
  C   C1084     1.0  0.38971  0.47520  0.83783  1.0000
  H   H1306     1.0  0.49413  0.29048  0.74963  1.0000
  C   C1085     1.0  0.60930  0.26546  0.78917  1.0000
  C   C1086     1.0  0.62540  0.42851  0.83455  1.0000
  H   H1307     1.0  0.47218  0.18971  0.78528  1.0000
  C   C1087     1.0  0.62845  0.10283  0.83892  1.0000
  C   C1088     1.0  0.60322  0.10272  0.84312  1.0000
  C   C1089     1.0  0.58620  0.12026  0.83635  1.0000
  C   C1090     1.0  0.59439  0.13763  0.82521  1.0000
  C   C1091     1.0  0.61962  0.13774  0.82109  1.0000
  C   C1092     1.0  0.63659  0.12055  0.82802  1.0000
  H   H1308     1.0  0.59681  0.08919  0.85161  1.0000
  H   H1309     1.0  0.56670  0.12026  0.83967  1.0000
  H   H1310     1.0  0.62606  0.15142  0.81278  1.0000
  C   C1093     1.0  0.46803  0.02601  0.82020  1.0000
  C   C1094     1.0  0.38016  0.11363  0.84187  1.0000
  C   C1095     1.0  0.38577  0.13557  0.83358  1.0000
  C   C1096     1.0  0.37474  0.14515  0.82189  1.0000
  C   C1097     1.0  0.35749  0.13320  0.81874  1.0000
  C   C1098     1.0  0.35201  0.11120  0.82698  1.0000
  C   C1099     1.0  0.36365  0.10120  0.83839  1.0000
  H   H1311     1.0  0.39849  0.14525  0.83625  1.0000
  H   H1312     1.0  0.37889  0.16223  0.81559  1.0000
  C   C1100     1.0  0.33331  0.09707  0.78518  1.0000
  H   H1313     1.0  0.62845  0.09364  0.98290  1.0000
  C   C1101     1.0  0.49438  0.01822  0.86334  1.0000
  H   H1314     1.0  0.58647  0.48318  0.83302  1.0000
  Fe  Fe158     1.0  0.63880  0.40942  0.77489  1.0000
  C   C1102     1.0  0.52622  0.03456  0.87670  1.0000
  C   C1103     1.0  0.50133  0.03488  0.88243  1.0000
  C   C1104     1.0  0.48545  0.02685  0.87575  1.0000
  H   H1315     1.0  0.49440  0.04099  0.89220  1.0000
  H   H1316     1.0  0.46651  0.02659  0.88047  1.0000
  S   S309      1.0  0.60848  0.00652  0.89367  1.0000
  C   C1105     1.0  0.36513  0.32103  0.74178  1.0000
  C   C1106     1.0  0.44275  0.06001  0.80734  1.0000
  H   H1317     1.0  0.49800  0.30893  0.78976  1.0000
  C   C1107     1.0  0.34603  0.01077  0.91186  1.0000
  N   N74       1.0  0.41967  0.07123  0.80196  1.0000
  H   H1318     1.0  0.34754  0.03511  0.94213  1.0000
  C   C1108     1.0  0.34674  0.28470  0.75176  1.0000
  C   C1109     1.0  0.58198  0.32439  0.75137  1.0000
  H   H1319     1.0  0.43795  0.44490  0.82904  1.0000
  H   H1320     1.0  0.42283  0.46203  0.90433  1.0000
  H   H1321     1.0  0.63041  0.41226  0.82976  1.0000
  H   H1322     1.0  0.45269  0.47284  0.83995  1.0000
  H   H1323     1.0  0.65768  0.44111  0.79059  1.0000
  C   C1110     1.0  0.64708  0.10430  0.93206  1.0000
  N   N75       1.0  0.46055  0.39926  0.82350  1.0000
  C   C1111     1.0  0.47784  0.37604  0.82172  1.0000
  C   C1112     1.0  0.43718  0.39261  0.83180  1.0000
  H   H1324     1.0  0.43016  0.05257  0.78453  1.0000
  C   C1113     1.0  0.46987  0.41586  0.83025  1.0000
  C   C1114     1.0  0.45571  0.43909  0.83224  1.0000
  C   C1115     1.0  0.49284  0.40967  0.83506  1.0000
  C   C1116     1.0  0.46396  0.45519  0.83855  1.0000
  C   C1117     1.0  0.50094  0.42595  0.84137  1.0000
  C   C1118     1.0  0.48652  0.44862  0.84314  1.0000
  H   H1325     1.0  0.48138  0.36483  0.83176  1.0000
  H   H1326     1.0  0.47034  0.36420  0.81644  1.0000
  H   H1327     1.0  0.49566  0.37965  0.81526  1.0000
  H   H1328     1.0  0.43976  0.38347  0.84238  1.0000
  H   H1329     1.0  0.42962  0.37994  0.82713  1.0000
  H   H1330     1.0  0.38787  0.35968  0.74491  1.0000
  H   H1331     1.0  0.59541  0.30751  0.75381  1.0000
  C   C1119     1.0  0.40400  0.48083  0.81333  1.0000
  C   C1120     1.0  0.44623  0.03586  0.81500  1.0000
  C   C1121     1.0  0.50659  0.27001  0.78931  1.0000
  H   H1332     1.0  0.50494  0.39242  0.83406  1.0000
  H   H1333     1.0  0.38133  0.06748  0.80462  1.0000
  H   H1334     1.0  0.51854  0.42096  0.84495  1.0000
  H   H1335     1.0  0.49278  0.46111  0.84812  1.0000
  H   H1336     1.0  0.39587  0.05419  0.98603  1.0000
  H   H1337     1.0  0.63047  0.07728  0.79642  1.0000
  H   H1338     1.0  0.34686  0.26519  0.75244  1.0000
  C   C1122     1.0  0.35476  0.02611  0.78028  1.0000
  C   C1123     1.0  0.61206  0.47041  0.84717  1.0000
  H   H1339     1.0  0.61781  0.06122  0.95347  1.0000
  H   H1340     1.0  0.60642  0.48640  0.85214  1.0000
  H   H1341     1.0  0.34926  0.27628  0.79909  1.0000
  S   S310      1.0  0.34274  0.14528  0.80451  1.0000
  H   H1342     1.0  0.52517  0.26830  0.79131  1.0000
  H   H1343     1.0  0.63866  0.05549  0.82528  1.0000
  S   S311      1.0  0.37389  0.43262  0.75539  1.0000
  H   H1344     1.0  0.50380  0.03185  0.82198  1.0000
  C   C1124     1.0  0.54642  0.30339  0.75763  1.0000
  C   C1125     1.0  0.36437  0.29614  0.74233  1.0000
  H   H1345     1.0  0.65607  0.12096  0.82488  1.0000
  N   N76       1.0  0.66241  0.05924  0.80555  1.0000
  H   H1346     1.0  0.33421  0.47862  0.82371  1.0000
  H   H1347     1.0  0.51914  0.24887  0.75065  1.0000
  C   C1126     1.0  0.66289  0.10779  0.94027  1.0000
  C   C1127     1.0  0.38527  0.03991  0.98629  1.0000
  H   H1348     1.0  0.49991  0.07311  0.80748  1.0000
  C   C1128     1.0  0.52957  0.48798  0.82114  1.0000
  H   H1349     1.0  0.36169  0.46316  0.94226  1.0000
  H   H1350     1.0  0.60862  0.05974  0.97787  1.0000
  C   C1129     1.0  0.37479  0.03916  0.97492  1.0000
  C   C1130     1.0  0.48714  0.03954  0.81770  1.0000
  H   H1351     1.0  0.61931  0.08423  0.93047  1.0000
  H   H1352     1.0  0.65599  0.19972  0.75963  1.0000
  C   C1131     1.0  0.51917  0.01838  0.85745  1.0000
  C   C1132     1.0  0.34247  0.44383  0.75478  1.0000
  H   H1353     1.0  0.40196  0.03907  0.80554  1.0000
  H   H1354     1.0  0.33146  0.36330  0.77198  1.0000
  C   C1133     1.0  0.63036  0.07430  0.95042  1.0000
  H   H1355     1.0  0.37112  0.10546  0.75090  1.0000
  H   H1356     1.0  0.65092  0.41578  0.84894  1.0000
  H   H1357     1.0  0.55349  0.47298  0.78268  1.0000
  H   H1358     1.0  0.44790  0.24923  0.76560  1.0000
  H   H1359     1.0  0.43219  0.02433  0.81744  1.0000
  H   H1360     1.0  0.39348  0.10508  0.80175  1.0000
  C   C1134     1.0  0.52648  0.26394  0.75271  1.0000
  C   C1135     1.0  0.46066  0.23218  0.76876  1.0000
  H   H1361     1.0  0.35289  0.38375  0.76505  1.0000
  C   C1136     1.0  0.45796  0.47009  0.91626  1.0000
  C   C1137     1.0  0.42410  0.07149  0.78697  1.0000
  C   C1138     1.0  0.63684  0.43045  0.84543  1.0000
  C   C1139     1.0  0.63089  0.08759  0.93711  1.0000
  C   C1140     1.0  0.64524  0.08173  0.80095  1.0000
  N   N77       1.0  0.47176  0.09814  0.84899  1.0000
  C   C1141     1.0  0.48840  0.08916  0.85933  1.0000
  C   C1142     1.0  0.45190  0.11699  0.85448  1.0000
  C   C1143     1.0  0.46076  0.07701  0.84765  1.0000
  C   C1144     1.0  0.48423  0.10888  0.83540  1.0000
  C   C1145     1.0  0.47089  0.11767  0.82432  1.0000
  C   C1146     1.0  0.50948  0.11152  0.83280  1.0000
  C   C1147     1.0  0.48208  0.12851  0.81149  1.0000
  C   C1148     1.0  0.52042  0.12250  0.81996  1.0000
  C   C1149     1.0  0.50677  0.13105  0.80936  1.0000
  H   H1362     1.0  0.49656  0.10424  0.86142  1.0000
  H   H1363     1.0  0.47843  0.08111  0.86938  1.0000
  H   H1364     1.0  0.50352  0.07445  0.85603  1.0000
  H   H1365     1.0  0.45937  0.13319  0.85569  1.0000
  H   H1366     1.0  0.44183  0.10952  0.86466  1.0000
  H   H1367     1.0  0.43774  0.12375  0.84774  1.0000
  H   H1368     1.0  0.47489  0.06283  0.84299  1.0000
  H   H1369     1.0  0.45215  0.06782  0.85779  1.0000
  H   H1370     1.0  0.44586  0.08255  0.84133  1.0000
  H   H1371     1.0  0.45160  0.11638  0.82557  1.0000
  H   H1372     1.0  0.52121  0.10551  0.84052  1.0000
  H   H1373     1.0  0.53962  0.12468  0.81826  1.0000
  H   H1374     1.0  0.51544  0.13975  0.79951  1.0000
  H   H1375     1.0  0.53556  0.43673  0.79693  1.0000
  H   H1376     1.0  0.54260  0.31883  0.78164  1.0000
  S   S312      1.0  0.53822  0.19529  0.75612  1.0000
  H   H1377     1.0  0.64863  0.07176  0.74314  1.0000
  N   N78       1.0  0.64708  0.06287  0.97300  1.0000
  H   H1378     1.0  0.57000  0.99409  0.87880  1.0000
  H   H1379     1.0  0.42247  0.40886  0.83275  1.0000
  H   H1380     1.0  0.38939  0.46774  0.92065  1.0000
  H   H1381     1.0  0.45272  0.21670  0.76693  1.0000
  C   C1150     1.0  0.35235  0.08286  0.74280  1.0000
  C   C1151     1.0  0.55972  0.27904  0.75868  1.0000
  H   H1382     1.0  0.33683  0.45274  0.80624  1.0000
  C   C1152     1.0  0.43959  0.22772  0.79216  1.0000
  H   H1383     1.0  0.37036  0.47581  0.96265  1.0000
  C   C1153     1.0  0.56055  0.31939  0.77469  1.0000
  S   S313      1.0  0.60650  0.33043  0.80162  1.0000
  H   H1384     1.0  0.51785  0.35506  0.79208  1.0000
  C   C1154     1.0  0.46308  0.07282  0.80442  1.0000
  H   H1385     1.0  0.65011  0.46451  0.76693  1.0000
  H   H1386     1.0  0.66028  0.02881  0.82256  1.0000
  H   H1387     1.0  0.64799  0.11394  0.92158  1.0000
  H   H1388     1.0  0.43255  0.21085  0.79159  1.0000
  C   C1155     1.0  0.64834  0.04437  0.81719  1.0000
  H   H1389     1.0  0.43834  0.48505  0.89343  1.0000
  H   H1390     1.0  0.44104  0.42820  0.81006  1.0000
  C   C1156     1.0  0.51255  0.28741  0.75205  1.0000
  H   H1391     1.0  0.59518  0.28160  0.80747  1.0000
  H   H1392     1.0  0.63587  0.09154  0.80959  1.0000
  C   C1157     1.0  0.51437  0.48827  0.81139  1.0000
  H   H1393     1.0  0.33872  0.10187  0.82457  1.0000
  C   C1158     1.0  0.47601  0.16782  0.75890  1.0000
  N   N79       1.0  0.52363  0.47440  0.79984  1.0000
  H   H1394     1.0  0.34710  0.04545  0.89832  1.0000
  C   C1159     1.0  0.49798  0.24924  0.78767  1.0000
  S   S314      1.0  0.59311  0.44703  0.81610  1.0000
  C   C1160     1.0  0.48016  0.20554  0.78661  1.0000
  H   H1395     1.0  0.62864  0.03350  0.97149  1.0000
  H   H1396     1.0  0.57785  0.27461  0.76151  1.0000
  H   H1397     1.0  0.42437  0.10954  0.79866  1.0000
  H   H1398     1.0  0.48346  0.20234  0.79740  1.0000
  C   C1161     1.0  0.40152  0.48849  0.82600  1.0000
  C   C1162     1.0  0.49470  0.18224  0.75482  1.0000
  C   C1163     1.0  0.49143  0.29287  0.78837  1.0000
  C   C1164     1.0  0.45579  0.41190  0.80968  1.0000
  S   S315      1.0  0.63846  0.39116  0.79697  1.0000
  H   H1399     1.0  0.33199  0.99760  0.82118  1.0000
  C   C1165     1.0  0.36091  0.01016  0.79201  1.0000
  Fe  Fe159     1.0  0.38495  0.01771  0.85121  1.0000
  C   C1166     1.0  0.36032  0.02093  0.97521  1.0000
  H   H1400     1.0  0.56909  0.33402  0.77705  1.0000
  H   H1401     1.0  0.64750  0.45425  0.80586  1.0000
  H   H1402     1.0  0.56192  0.47811  0.79779  1.0000
  H   H1403     1.0  0.45599  0.31300  0.78483  1.0000
  C   C1167     1.0  0.48479  0.06280  0.80968  1.0000
  C   C1168     1.0  0.35787  0.10530  0.74449  1.0000
  H   H1404     1.0  0.44958  0.39958  0.80416  1.0000
  H   H1405     1.0  0.65496  0.09529  0.79329  1.0000
  C   C1169     1.0  0.45897  0.27455  0.78390  1.0000
  H   H1406     1.0  0.35927  0.08425  0.84474  1.0000
  H   H1407     1.0  0.47269  0.41801  0.80324  1.0000
  C   C1170     1.0  0.35608  0.03705  0.95086  1.0000
  C   C1171     1.0  0.42169  0.48868  0.94019  1.0000
  H   H1408     1.0  0.57264  0.30169  0.77752  1.0000
  H   H1409     1.0  0.47854  0.23286  0.76173  1.0000
  H   H1410     1.0  0.39517  0.05621  0.81957  1.0000
  N   N80       1.0  0.55747  0.32363  0.76011  1.0000
  H   H1411     1.0  0.35707  0.04516  0.77871  1.0000
  H   H1412     1.0  0.42504  0.24318  0.78910  1.0000
  C   C1172     1.0  0.35684  0.00386  0.98757  1.0000
  H   H1413     1.0  0.48873  0.47048  0.79534  1.0000
  C   C1173     1.0  0.41180  0.09687  0.80466  1.0000
  H   H1414     1.0  0.40868  0.49178  0.96151  1.0000
  S   S316      1.0  0.36703  0.01153  0.83419  1.0000
  H   H1415     1.0  0.43879  0.08233  0.78158  1.0000
  S   S317      1.0  0.65884  0.02517  0.87593  1.0000
  S   S318      1.0  0.65252  0.12518  0.76504  1.0000
  H   H1416     1.0  0.65667  0.02663  0.74399  1.0000
  H   H1417     1.0  0.55149  0.36316  0.75874  1.0000
  C   C1174     1.0  0.38358  0.47697  0.95322  1.0000
  H   H1418     1.0  0.34536  0.09324  0.77540  1.0000
  H   H1419     1.0  0.37636  0.03362  0.94747  1.0000
  Fe  Fe160     1.0  0.63343  0.00051  0.87398  1.0000
  H   H1420     1.0  0.46247  0.09060  0.79792  1.0000
  C   C1175     1.0  0.52903  0.44783  0.80533  1.0000
  H   H1421     1.0  0.35142  0.00746  0.74440  1.0000
  H   H1422     1.0  0.45906  0.17372  0.75483  1.0000
  C   C1176     1.0  0.37869  0.46994  0.94169  1.0000
  H   H1423     1.0  0.51371  0.46730  0.78151  1.0000
  C   C1177     1.0  0.34907  0.36518  0.76490  1.0000
  N   N81       1.0  0.34848  0.01981  0.96352  1.0000
  H   H1424     1.0  0.45549  0.45045  0.91872  1.0000
  C   C1178     1.0  0.40511  0.48617  0.95250  1.0000
  H   H1425     1.0  0.52933  0.48995  0.87706  1.0000
  C   C1179     1.0  0.33796  0.03580  0.90771  1.0000
  H   H1426     1.0  0.36356  0.35152  0.76949  1.0000
  H   H1427     1.0  0.66130  0.07121  0.77708  1.0000
  C   C1180     1.0  0.33575  0.46292  0.74425  1.0000
  C   C1181     1.0  0.42515  0.48157  0.90311  1.0000
  C   C1182     1.0  0.33415  0.99848  0.92407  1.0000
  C   C1183     1.0  0.62702  0.04796  0.97788  1.0000
  H   H1428     1.0  0.52423  0.34983  0.76388  1.0000
  C   C1184     1.0  0.54242  0.34830  0.75708  1.0000
  C   C1185     1.0  0.41684  0.48258  0.92809  1.0000
  H   H1429     1.0  0.56070  0.24143  0.75656  1.0000
  S   S319      1.0  0.64358  0.03042  0.91548  1.0000
  C   C1186     1.0  0.66193  0.45396  0.79656  1.0000
  C   C1187     1.0  0.50594  0.47760  0.79020  1.0000
  C   C1188     1.0  0.35466  0.99461  0.96007  1.0000
  H   H1430     1.0  0.65973  0.47264  0.79029  1.0000
  H   H1431     1.0  0.54801  0.47774  0.82036  1.0000
  N   N82       1.0  0.34864  0.36142  0.75081  1.0000
  H   H1432     1.0  0.63429  0.03676  0.81368  1.0000
  H   H1433     1.0  0.59047  0.33984  0.75278  1.0000
  H   H1434     1.0  0.46673  0.47370  0.92445  1.0000
  H   H1435     1.0  0.41307  0.49114  0.80415  1.0000
  H   H1436     1.0  0.36768  0.01672  0.79975  1.0000
  C   C1189     1.0  0.34809  0.33520  0.75081  1.0000
  H   H1437     1.0  0.51039  0.32458  0.75382  1.0000
  H   H1438     1.0  0.49199  0.19914  0.74761  1.0000
  C   C1190     1.0  0.52225  0.30694  0.75447  1.0000
  C   C1191     1.0  0.54661  0.48243  0.79177  1.0000
  C   C1192     1.0  0.64517  0.07928  0.98316  1.0000
  H   H1439     1.0  0.62759  0.03805  0.98857  1.0000
  H   H1440     1.0  0.34264  0.10804  0.78996  1.0000
  C   C1193     1.0  0.66260  0.09453  0.95356  1.0000
  S   S320      1.0  0.37094  0.99428  0.90215  1.0000
  H   H1441     1.0  0.66304  0.45852  0.82479  1.0000
  H   H1442     1.0  0.66135  0.08874  0.98148  1.0000
  H   H1443     1.0  0.34777  0.99358  0.95063  1.0000
  Fe  Fe161     1.0  0.60161  0.58517  0.07162  1.0000
  S   S321      1.0  0.58189  0.55266  0.07640  1.0000
  H   H1444     1.0  0.37906  0.51423  0.10553  1.0000
  Fe  Fe162     1.0  0.56440  0.61342  0.09214  1.0000
  S   S322      1.0  0.54165  0.58336  0.09813  1.0000
  S   S323      1.0  0.54883  0.64566  0.10343  1.0000
  Fe  Fe163     1.0  0.57752  0.55785  0.09835  1.0000
  C   C1194     1.0  0.35209  0.59548  0.18830  1.0000
  Fe  Fe164     1.0  0.54764  0.58122  0.07584  1.0000
  S   S324      1.0  0.51649  0.58197  0.06462  1.0000
  S   S325      1.0  0.60009  0.58793  0.09377  1.0000
  S   S326      1.0  0.56772  0.61360  0.06954  1.0000
  Fe  Fe165     1.0  0.34983  0.60341  0.07923  1.0000
  S   S327      1.0  0.35446  0.57397  0.09733  1.0000
  C   C1195     1.0  0.49243  0.59575  0.13412  1.0000
  Fe  Fe166     1.0  0.35550  0.56669  0.06000  1.0000
  S   S328      1.0  0.36138  0.53421  0.07681  1.0000
  H   H1445     1.0  0.56847  0.87328  0.17259  1.0000
  S   S329      1.0  0.35755  0.55763  0.03883  1.0000
  Fe  Fe167     1.0  0.38558  0.55574  0.08331  1.0000
  S   S330      1.0  0.41909  0.53930  0.09341  1.0000
  S   S331      1.0  0.38253  0.58656  0.06547  1.0000
  Fe  Fe168     1.0  0.42583  0.92236  0.14739  1.0000
  S   S332      1.0  0.41398  0.94530  0.16413  1.0000
  S   S333      1.0  0.43812  0.94027  0.12575  1.0000
  Fe  Fe169     1.0  0.42255  0.87378  0.16698  1.0000
  S   S334      1.0  0.41040  0.89305  0.18524  1.0000
  S   S335      1.0  0.42806  0.83231  0.17300  1.0000
  Fe  Fe170     1.0  0.38607  0.92015  0.17227  1.0000
  H   H1446     1.0  0.36521  0.97763  0.15476  1.0000
  Fe  Fe171     1.0  0.43949  0.91605  0.17548  1.0000
  S   S336      1.0  0.46600  0.92155  0.18823  1.0000
  S   S337      1.0  0.39593  0.89926  0.15454  1.0000
  S   S338      1.0  0.45360  0.89488  0.15818  1.0000
  Fe  Fe172     1.0  0.64870  0.94966  0.14898  1.0000
  C   C1196     1.0  0.65950  0.99095  0.19747  1.0000
  C   C1197     1.0  0.49186  0.98275  0.20232  1.0000
  Fe  Fe173     1.0  0.63191  0.90943  0.17157  1.0000
  S   S339      1.0  0.60284  0.93581  0.18253  1.0000
  S   S340      1.0  0.63725  0.86848  0.17974  1.0000
  Fe  Fe174     1.0  0.59471  0.95230  0.16141  1.0000
  S   S341      1.0  0.55842  0.96629  0.15401  1.0000
  Fe  Fe175     1.0  0.63167  0.96046  0.17813  1.0000
  S   S342      1.0  0.62167  0.92438  0.15079  1.0000
  Fe  Fe176     1.0  0.60713  0.70157  0.15199  1.0000
  S   S343      1.0  0.59149  0.68632  0.17350  1.0000
  S   S344      1.0  0.62031  0.67600  0.13641  1.0000
  Fe  Fe177     1.0  0.60514  0.75268  0.15880  1.0000
  S   S345      1.0  0.58965  0.74131  0.18088  1.0000
  S   S346      1.0  0.60840  0.79225  0.14921  1.0000
  Fe  Fe178     1.0  0.61700  0.70646  0.17976  1.0000
  C   C1198     1.0  0.65684  0.84382  0.11838  1.0000
  Fe  Fe179     1.0  0.56561  0.72215  0.17280  1.0000
  S   S347      1.0  0.52563  0.72711  0.18219  1.0000
  S   S348      1.0  0.63489  0.71937  0.15823  1.0000
  S   S349      1.0  0.57885  0.73587  0.15070  1.0000
  Fe  Fe180     1.0  0.41158  0.67083  0.13589  1.0000
  S   S350      1.0  0.40789  0.64740  0.15661  1.0000
  S   S351      1.0  0.42396  0.65086  0.11793  1.0000
  Fe  Fe181     1.0  0.40413  0.71835  0.14753  1.0000
  S   S352      1.0  0.39996  0.69887  0.16941  1.0000
  H   H1447     1.0  0.40077  0.65819  0.06184  1.0000
  Fe  Fe182     1.0  0.43154  0.67108  0.16153  1.0000
  S   S353      1.0  0.46609  0.65264  0.16974  1.0000
  Fe  Fe183     1.0  0.37652  0.67670  0.16260  1.0000
  S   S354      1.0  0.43766  0.69232  0.14031  1.0000
  H   H1448     1.0  0.59353  0.50382  0.09476  1.0000
  H   H1449     1.0  0.50347  0.94854  0.12899  1.0000
  C   C1199     1.0  0.50926  0.70658  0.17843  1.0000
  C   C1200     1.0  0.52140  0.68741  0.17141  1.0000
  C   C1201     1.0  0.50802  0.67088  0.16871  1.0000
  C   C1202     1.0  0.48244  0.67389  0.17272  1.0000
  C   C1203     1.0  0.47022  0.69343  0.17944  1.0000
  C   C1204     1.0  0.48369  0.70963  0.18242  1.0000
  H   H1450     1.0  0.54111  0.68509  0.16823  1.0000
  H   H1451     1.0  0.51751  0.65578  0.16352  1.0000
  H   H1452     1.0  0.45047  0.69572  0.18260  1.0000
  H   H1453     1.0  0.47427  0.72452  0.18781  1.0000
  H   H1454     1.0  0.51122  0.96636  0.14754  1.0000
  C   C1205     1.0  0.40520  0.98420  0.09531  1.0000
  S   S355      1.0  0.63293  0.98899  0.19101  1.0000
  C   C1206     1.0  0.62862  0.84752  0.17132  1.0000
  C   C1207     1.0  0.62945  0.82279  0.17757  1.0000
  C   C1208     1.0  0.62304  0.80561  0.17101  1.0000
  C   C1209     1.0  0.61605  0.81305  0.15807  1.0000
  C   C1210     1.0  0.61523  0.83775  0.15185  1.0000
  C   C1211     1.0  0.62133  0.85492  0.15845  1.0000
  H   H1455     1.0  0.54422  0.96162  0.12583  1.0000
  H   H1456     1.0  0.62379  0.78660  0.17591  1.0000
  H   H1457     1.0  0.61009  0.84360  0.14177  1.0000
  H   H1458     1.0  0.62064  0.87376  0.15346  1.0000
  H   H1459     1.0  0.37398  0.95314  0.19387  1.0000
  C   C1212     1.0  0.49154  0.93412  0.17871  1.0000
  C   C1213     1.0  0.49128  0.94613  0.16520  1.0000
  C   C1214     1.0  0.51181  0.95629  0.15780  1.0000
  C   C1215     1.0  0.53299  0.95359  0.16365  1.0000
  C   C1216     1.0  0.53341  0.94122  0.17709  1.0000
  C   C1217     1.0  0.51255  0.93186  0.18469  1.0000
  H   H1460     1.0  0.47505  0.94805  0.16057  1.0000
  H   H1461     1.0  0.38170  0.53696  0.12205  1.0000
  H   H1462     1.0  0.54959  0.93917  0.18173  1.0000
  H   H1463     1.0  0.51274  0.92261  0.19516  1.0000
  C   C1218     1.0  0.42048  0.81244  0.16360  1.0000
  C   C1219     1.0  0.42047  0.78766  0.16951  1.0000
  C   C1220     1.0  0.41490  0.77112  0.16226  1.0000
  C   C1221     1.0  0.40971  0.77922  0.14897  1.0000
  C   C1222     1.0  0.40966  0.80403  0.14307  1.0000
  C   C1223     1.0  0.41498  0.82065  0.15037  1.0000
  H   H1464     1.0  0.42468  0.78124  0.17976  1.0000
  H   H1465     1.0  0.41478  0.75209  0.16693  1.0000
  H   H1466     1.0  0.41510  0.83969  0.14571  1.0000
  C   C1224     1.0  0.36633  0.64449  0.09331  1.0000
  C   C1225     1.0  0.36321  0.66481  0.09994  1.0000
  C   C1226     1.0  0.38065  0.66678  0.10773  1.0000
  C   C1227     1.0  0.40158  0.64876  0.10855  1.0000
  C   C1228     1.0  0.40493  0.62869  0.10171  1.0000
  C   C1229     1.0  0.38719  0.62640  0.09425  1.0000
  H   H1467     1.0  0.36720  0.87468  0.18154  1.0000
  H   H1468     1.0  0.37815  0.68247  0.11285  1.0000
  H   H1469     1.0  0.42124  0.61484  0.10215  1.0000
  H   H1470     1.0  0.39000  0.61088  0.08897  1.0000
  C   C1230     1.0  0.51603  0.67249  0.21288  1.0000
  C   C1231     1.0  0.56852  0.65324  0.11305  1.0000
  C   C1232     1.0  0.59387  0.64511  0.11054  1.0000
  C   C1233     1.0  0.60941  0.65208  0.11788  1.0000
  C   C1234     1.0  0.59978  0.66722  0.12782  1.0000
  C   C1235     1.0  0.57434  0.67503  0.13056  1.0000
  C   C1236     1.0  0.55876  0.66803  0.12318  1.0000
  H   H1471     1.0  0.60166  0.63403  0.10264  1.0000
  H   H1472     1.0  0.62907  0.64609  0.11565  1.0000
  H   H1473     1.0  0.56673  0.68663  0.13825  1.0000
  H   H1474     1.0  0.53917  0.67436  0.12521  1.0000
  C   C1237     1.0  0.49015  0.56893  0.07273  1.0000
  C   C1238     1.0  0.47008  0.57309  0.06577  1.0000
  C   C1239     1.0  0.44829  0.56414  0.07207  1.0000
  C   C1240     1.0  0.44653  0.55044  0.08528  1.0000
  C   C1241     1.0  0.46691  0.54552  0.09210  1.0000
  C   C1242     1.0  0.48858  0.55506  0.08592  1.0000
  H   H1475     1.0  0.47132  0.58349  0.05548  1.0000
  H   H1476     1.0  0.43304  0.56749  0.06655  1.0000
  H   H1477     1.0  0.46594  0.53431  0.10215  1.0000
  H   H1478     1.0  0.50417  0.55141  0.09124  1.0000
  H   H1479     1.0  0.64882  0.80688  0.12354  1.0000
  C   C1243     1.0  0.62643  0.56794  0.03686  1.0000
  H   H1480     1.0  0.48022  0.95771  0.10983  1.0000
  C   C1244     1.0  0.50131  0.60234  0.15537  1.0000
  Fe  Fe184     1.0  0.33000  0.55554  0.08924  1.0000
  H   H1481     1.0  0.48251  0.64337  0.14057  1.0000
  H   H1482     1.0  0.60873  0.56651  0.04326  1.0000
  C   C1245     1.0  0.49801  0.96343  0.10832  1.0000
  H   H1483     1.0  0.43591  0.62485  0.05765  1.0000
  H   H1484     1.0  0.52109  0.98461  0.06701  1.0000
  H   H1485     1.0  0.51389  0.88304  0.17931  1.0000
  H   H1486     1.0  0.37406  0.62393  0.17957  1.0000
  C   C1246     1.0  0.33538  0.63847  0.18158  1.0000
  C   C1247     1.0  0.41545  0.95742  0.11625  1.0000
  C   C1248     1.0  0.39036  0.95787  0.12135  1.0000
  H   H1487     1.0  0.33402  0.89428  0.16698  1.0000
  H   H1488     1.0  0.38457  0.94763  0.13135  1.0000
  C   C1249     1.0  0.34187  0.62516  0.15009  1.0000
  C   C1250     1.0  0.50142  0.63551  0.13610  1.0000
  H   H1489     1.0  0.36719  0.58912  0.13576  1.0000
  C   C1251     1.0  0.51116  0.95827  0.11917  1.0000
  H   H1490     1.0  0.56055  0.87574  0.14879  1.0000
  H   H1491     1.0  0.53738  0.61738  0.19327  1.0000
  H   H1492     1.0  0.34716  0.67891  0.09915  1.0000
  H   H1493     1.0  0.40562  0.81039  0.13277  1.0000
  N   N83       1.0  0.48842  0.75402  0.14121  1.0000
  C   C1252     1.0  0.47145  0.73853  0.15052  1.0000
  C   C1253     1.0  0.50701  0.75689  0.14915  1.0000
  C   C1254     1.0  0.47434  0.77873  0.13712  1.0000
  C   C1255     1.0  0.49923  0.74268  0.12885  1.0000
  C   C1256     1.0  0.48372  0.73704  0.12077  1.0000
  C   C1257     1.0  0.52505  0.73678  0.12451  1.0000
  C   C1258     1.0  0.49342  0.72551  0.10935  1.0000
  C   C1259     1.0  0.53453  0.72554  0.11296  1.0000
  C   C1260     1.0  0.51880  0.71962  0.10550  1.0000
  H   H1494     1.0  0.46469  0.74509  0.16052  1.0000
  H   H1495     1.0  0.45470  0.73853  0.14623  1.0000
  H   H1496     1.0  0.48073  0.71913  0.15263  1.0000
  H   H1497     1.0  0.51822  0.73886  0.15255  1.0000
  H   H1498     1.0  0.49826  0.76460  0.15865  1.0000
  H   H1499     1.0  0.51953  0.76965  0.14313  1.0000
  H   H1500     1.0  0.45876  0.77792  0.13201  1.0000
  H   H1501     1.0  0.46616  0.78797  0.14617  1.0000
  H   H1502     1.0  0.48629  0.79082  0.12987  1.0000
  H   H1503     1.0  0.46388  0.74137  0.12332  1.0000
  H   H1504     1.0  0.53839  0.74040  0.12992  1.0000
  H   H1505     1.0  0.48115  0.72110  0.10348  1.0000
  H   H1506     1.0  0.55430  0.72084  0.10995  1.0000
  H   H1507     1.0  0.52637  0.71033  0.09677  1.0000
  H   H1508     1.0  0.63507  0.81687  0.18753  1.0000
  H   H1509     1.0  0.64040  0.62238  0.14143  1.0000
  H   H1510     1.0  0.56507  0.84305  0.15084  1.0000
  H   H1511     1.0  0.40275  0.68796  0.07640  1.0000
  H   H1512     1.0  0.61821  0.49927  0.13301  1.0000
  C   C1261     1.0  0.36512  0.53055  0.12881  1.0000
  H   H1513     1.0  0.51128  0.61214  0.16052  1.0000
  C   C1262     1.0  0.65343  0.52502  0.08017  1.0000
  C   C1263     1.0  0.50662  0.64268  0.20122  1.0000
  H   H1514     1.0  0.56469  0.67869  0.23607  1.0000
  C   C1264     1.0  0.34714  0.97560  0.20671  1.0000
  H   H1515     1.0  0.59730  0.66704  0.21879  1.0000
  C   C1265     1.0  0.33699  0.95042  0.19232  1.0000
  C   C1266     1.0  0.54141  0.66226  0.21104  1.0000
  C   C1267     1.0  0.50759  0.97584  0.09556  1.0000
  H   H1516     1.0  0.53325  0.68372  0.23410  1.0000
  H   H1517     1.0  0.54966  0.65286  0.23688  1.0000
  H   H1518     1.0  0.33137  0.76602  0.17118  1.0000
  S   S356      1.0  0.63860  0.58614  0.05777  1.0000
  C   C1268     1.0  0.53423  0.60119  0.13613  1.0000
  H   H1519     1.0  0.54143  0.71060  0.21215  1.0000
  C   C1269     1.0  0.63671  0.96379  0.11539  1.0000
  C   C1270     1.0  0.33616  0.83221  0.17624  1.0000
  N   N84       1.0  0.50725  0.60841  0.14025  1.0000
  H   H1520     1.0  0.65919  0.50896  0.02261  1.0000
  H   H1521     1.0  0.59064  0.99154  0.13195  1.0000
  H   H1522     1.0  0.50363  0.64068  0.12474  1.0000
  H   H1523     1.0  0.50780  0.88492  0.16218  1.0000
  S   S357      1.0  0.33904  0.66885  0.17389  1.0000
  C   C1271     1.0  0.58461  0.65912  0.21432  1.0000
  S   S358      1.0  0.63444  0.68807  0.19837  1.0000
  H   H1524     1.0  0.56072  0.96238  0.07262  1.0000
  S   S359      1.0  0.58307  0.53051  0.11742  1.0000
  C   C1272     1.0  0.54872  0.64212  0.20372  1.0000
  C   C1273     1.0  0.35461  0.95902  0.19733  1.0000
  C   C1274     1.0  0.56484  0.97988  0.07444  1.0000
  C   C1275     1.0  0.33184  0.56328  0.03034  1.0000
  H   H1525     1.0  0.57829  0.97491  0.08166  1.0000
  H   H1526     1.0  0.60692  0.96688  0.10430  1.0000
  C   C1276     1.0  0.53403  0.96560  0.11734  1.0000
  C   C1277     1.0  0.64408  0.57724  0.04144  1.0000
  H   H1527     1.0  0.56353  0.69988  0.19851  1.0000
  H   H1528     1.0  0.48133  0.60770  0.15912  1.0000
  H   H1529     1.0  0.51364  0.64528  0.13975  1.0000
  C   C1278     1.0  0.62420  0.97261  0.10422  1.0000
  C   C1279     1.0  0.35972  0.60716  0.13002  1.0000
  H   H1530     1.0  0.52478  0.98867  0.20754  1.0000
  H   H1531     1.0  0.49626  0.97922  0.08767  1.0000
  H   H1532     1.0  0.47970  0.67100  0.20946  1.0000
  H   H1533     1.0  0.46055  0.97809  0.19439  1.0000
  S   S360      1.0  0.34553  0.93130  0.17971  1.0000
  N   N85       1.0  0.55900  0.67261  0.21653  1.0000
  H   H1534     1.0  0.65288  0.55863  0.09617  1.0000
  H   H1535     1.0  0.65973  0.51265  0.03963  1.0000
  H   H1536     1.0  0.50608  0.58225  0.15897  1.0000
  H   H1537     1.0  0.35797  0.79097  0.15389  1.0000
  C   C1280     1.0  0.42278  0.97067  0.10325  1.0000
  C   C1281     1.0  0.55938  0.69851  0.20982  1.0000
  C   C1282     1.0  0.55128  0.67193  0.23153  1.0000
  H   H1538     1.0  0.36454  0.99155  0.00817  1.0000
  H   H1539     1.0  0.56766  0.63357  0.20143  1.0000
  C   C1283     1.0  0.47730  0.98601  0.19223  1.0000
  C   C1284     1.0  0.33986  0.49718  0.13490  1.0000
  C   C1285     1.0  0.36459  0.85666  0.17957  1.0000
  S   S361      1.0  0.40363  0.75892  0.13929  1.0000
  H   H1540     1.0  0.54496  0.61238  0.13992  1.0000
  H   H1541     1.0  0.65680  0.51682  0.10657  1.0000
  H   H1542     1.0  0.35762  0.60425  0.11974  1.0000
  H   H1543     1.0  0.45727  0.61915  0.13979  1.0000
  H   H1544     1.0  0.57457  0.98916  0.06464  1.0000
  H   H1545     1.0  0.37014  0.84235  0.18825  1.0000
  H   H1546     1.0  0.59237  0.66026  0.20320  1.0000
  H   H1547     1.0  0.33575  0.49824  0.05400  1.0000
  C   C1286     1.0  0.63377  0.98913  0.09309  1.0000
  C   C1287     1.0  0.50260  0.57441  0.12809  1.0000
  C   C1288     1.0  0.46670  0.60378  0.13480  1.0000
  C   C1289     1.0  0.48814  0.56298  0.12230  1.0000
  C   C1290     1.0  0.45240  0.59210  0.12909  1.0000
  C   C1291     1.0  0.46313  0.57196  0.12268  1.0000
  H   H1548     1.0  0.52177  0.56622  0.12759  1.0000
  H   H1549     1.0  0.49643  0.54706  0.11746  1.0000
  H   H1550     1.0  0.43287  0.59892  0.12951  1.0000
  H   H1551     1.0  0.45197  0.56326  0.11810  1.0000
  H   H1552     1.0  0.53242  0.89815  0.16486  1.0000
  H   H1553     1.0  0.62884  0.95156  0.12404  1.0000
  C   C1292     1.0  0.54387  0.97793  0.10459  1.0000
  H   H1554     1.0  0.35160  0.54396  0.01399  1.0000
  H   H1555     1.0  0.56461  0.98339  0.19640  1.0000
  H   H1556     1.0  0.58579  0.63946  0.21917  1.0000
  H   H1557     1.0  0.61778  0.55364  0.02036  1.0000
  N   N86       1.0  0.36250  0.50580  0.12679  1.0000
  S   S362      1.0  0.66048  0.55222  0.99941  1.0000
  H   H1558     1.0  0.36085  0.98246  0.21042  1.0000
  C   C1293     1.0  0.52725  0.83665  0.17185  1.0000
  C   C1294     1.0  0.50168  0.83818  0.17718  1.0000
  C   C1295     1.0  0.54101  0.81277  0.17113  1.0000
  C   C1296     1.0  0.49082  0.81702  0.18149  1.0000
  C   C1297     1.0  0.52990  0.79182  0.17538  1.0000
  C   C1298     1.0  0.50487  0.79390  0.18058  1.0000
  H   H1559     1.0  0.57348  0.84061  0.17453  1.0000
  H   H1560     1.0  0.55103  0.85574  0.18670  1.0000
  H   H1561     1.0  0.48957  0.85544  0.17818  1.0000
  H   H1562     1.0  0.56056  0.81004  0.16729  1.0000
  H   H1563     1.0  0.47131  0.81859  0.18556  1.0000
  H   H1564     1.0  0.54086  0.77385  0.17470  1.0000
  H   H1565     1.0  0.49635  0.77756  0.18398  1.0000
  C   C1299     1.0  0.52262  0.88209  0.16846  1.0000
  H   H1566     1.0  0.53696  0.86057  0.14606  1.0000
  H   H1567     1.0  0.53951  0.60393  0.12476  1.0000
  C   C1300     1.0  0.55103  0.85950  0.15262  1.0000
  N   N87       1.0  0.48162  0.64904  0.08506  1.0000
  C   C1301     1.0  0.48130  0.66863  0.09308  1.0000
  C   C1302     1.0  0.48314  0.62525  0.09458  1.0000
  C   C1303     1.0  0.50427  0.64860  0.07459  1.0000
  C   C1304     1.0  0.45969  0.65260  0.07836  1.0000
  C   C1305     1.0  0.43924  0.67166  0.08047  1.0000
  C   C1306     1.0  0.45794  0.63607  0.06979  1.0000
  C   C1307     1.0  0.41847  0.67378  0.07434  1.0000
  C   C1308     1.0  0.43700  0.63817  0.06385  1.0000
  C   C1309     1.0  0.41728  0.65699  0.06613  1.0000
  H   H1568     1.0  0.46573  0.66888  0.10181  1.0000
  H   H1569     1.0  0.49833  0.66572  0.09767  1.0000
  H   H1570     1.0  0.48003  0.68703  0.08648  1.0000
  H   H1571     1.0  0.46580  0.62425  0.10207  1.0000
  H   H1572     1.0  0.49847  0.62250  0.10050  1.0000
  H   H1573     1.0  0.48628  0.60931  0.08909  1.0000
  H   H1574     1.0  0.50314  0.66542  0.06665  1.0000
  H   H1575     1.0  0.52095  0.64736  0.07926  1.0000
  H   H1576     1.0  0.50781  0.63250  0.06921  1.0000
  H   H1577     1.0  0.43841  0.68464  0.08717  1.0000
  H   H1578     1.0  0.47266  0.62106  0.06782  1.0000
  H   H1579     1.0  0.36787  0.58108  0.18923  1.0000
  C   C1310     1.0  0.35564  0.61975  0.18281  1.0000
  H   H1580     1.0  0.35082  0.60900  0.15672  1.0000
  S   S363      1.0  0.34384  0.64153  0.08418  1.0000
  H   H1581     1.0  0.57362  0.70656  0.21292  1.0000
  N   N88       1.0  0.33625  0.61826  0.13771  1.0000
  S   S364      1.0  0.62092  0.97887  0.15786  1.0000
  H   H1582     1.0  0.54085  0.58170  0.14033  1.0000
  H   H1583     1.0  0.63559  0.52912  0.08707  1.0000
  H   H1584     1.0  0.35340  0.97117  0.11720  1.0000
  C   C1311     1.0  0.63158  0.56071  0.02387  1.0000
  C   C1312     1.0  0.38015  0.98436  0.10029  1.0000
  H   H1585     1.0  0.34896  0.54449  0.12620  1.0000
  N   N89       1.0  0.53956  0.85851  0.16724  1.0000
  C   C1313     1.0  0.55895  0.85695  0.17560  1.0000
  S   S365      1.0  0.37823  0.69842  0.14121  1.0000
  C   C1314     1.0  0.37275  0.97123  0.11334  1.0000
  H   H1586     1.0  0.37790  0.85264  0.17026  1.0000
  C   C1315     1.0  0.65577  0.60950  0.14507  1.0000
  S   S366      1.0  0.66163  0.93266  0.16897  1.0000
  N   N90       1.0  0.33891  0.85701  0.17797  1.0000
  H   H1587     1.0  0.65140  0.53699  0.07016  1.0000
  H   H1588     1.0  0.56179  0.98301  0.10360  1.0000
  C   C1316     1.0  0.53146  0.63256  0.19894  1.0000
  C   C1317     1.0  0.33333  0.87523  0.16569  1.0000
  H   H1589     1.0  0.50923  0.68845  0.21781  1.0000
  H   H1590     1.0  0.44211  0.97032  0.09921  1.0000
  C   C1318     1.0  0.65988  0.66474  0.19553  1.0000
  C   C1319     1.0  0.53097  0.98338  0.09328  1.0000
  H   H1591     1.0  0.56624  0.97904  0.17910  1.0000
  H   H1592     1.0  0.34610  0.51965  0.10874  1.0000
  H   H1593     1.0  0.64679  0.84865  0.10984  1.0000
  C   C1320     1.0  0.65440  0.56261  0.01538  1.0000
  H   H1594     1.0  0.37396  0.61918  0.12819  1.0000
  H   H1595     1.0  0.36195  0.83183  0.15696  1.0000
  H   H1596     1.0  0.48616  0.97250  0.21238  1.0000
  C   C1321     1.0  0.34756  0.79844  0.16284  1.0000
  H   H1597     1.0  0.49333  0.63550  0.19729  1.0000
  C   C1322     1.0  0.51398  0.99202  0.19941  1.0000
  H   H1598     1.0  0.36726  0.53061  0.13953  1.0000
  H   H1599     1.0  0.65310  0.58210  0.13363  1.0000
  C   C1323     1.0  0.33253  0.78435  0.17258  1.0000
  C   C1324     1.0  0.36260  0.50715  0.11194  1.0000
  C   C1325     1.0  0.56619  0.99288  0.18558  1.0000
  C   C1326     1.0  0.60404  0.50408  0.11412  1.0000
  C   C1327     1.0  0.34955  0.82192  0.16465  1.0000
  C   C1328     1.0  0.65923  0.97085  0.11530  1.0000
  H   H1600     1.0  0.65777  0.64870  0.21692  1.0000
  C   C1329     1.0  0.60578  0.49502  0.10197  1.0000
  H   H1601     1.0  0.34679  0.87192  0.15631  1.0000
  H   H1602     1.0  0.40179  0.49440  0.12486  1.0000
  C   C1330     1.0  0.49895  0.66267  0.20812  1.0000
  H   H1603     1.0  0.35479  0.63874  0.14743  1.0000
  C   C1331     1.0  0.33403  0.55367  0.01825  1.0000
  H   H1604     1.0  0.33798  0.65564  0.12755  1.0000
  C   C1332     1.0  0.65812  0.82021  0.12600  1.0000
  H   H1605     1.0  0.65571  0.50564  0.07860  1.0000
  H   H1606     1.0  0.66237  0.63332  0.15766  1.0000
  C   C1333     1.0  0.66305  0.58683  0.14066  1.0000
  H   H1607     1.0  0.35667  0.66512  0.48192  1.0000
  C   C1334     1.0  0.36462  0.64615  0.48113  1.0000
  H   H1608     1.0  0.33653  0.55985  0.47119  1.0000
  H   H1609     1.0  0.33606  0.62238  0.45230  1.0000
  H   H1610     1.0  0.60761  0.56305  0.46582  1.0000
  C   C1335     1.0  0.34225  0.97078  0.48472  1.0000
  C   C1336     1.0  0.36384  0.60764  0.47336  1.0000
  C   C1337     1.0  0.64055  0.59362  0.48000  1.0000
  H   H1611     1.0  0.46718  0.80850  0.48683  1.0000
  C   C1338     1.0  0.33142  0.60629  0.46011  1.0000
  H   H1612     1.0  0.58180  0.62201  0.48856  1.0000
  C   C1339     1.0  0.62090  0.60995  0.48567  1.0000
  H   H1613     1.0  0.65435  0.53082  0.48503  1.0000
  C   C1340     1.0  0.37190  0.58361  0.45499  1.0000
  H   H1614     1.0  0.33814  0.64237  0.46982  1.0000
  H   H1615     1.0  0.56265  0.90133  0.48332  1.0000
  C   C1341     1.0  0.35478  0.50972  0.43454  1.0000
  H   H1616     1.0  0.49561  0.81580  0.47649  1.0000
  C   C1342     1.0  0.33545  0.51551  0.44512  1.0000
  C   C1343     1.0  0.59270  0.59236  0.47685  1.0000
  C   C1344     1.0  0.38470  0.63507  0.48757  1.0000
  H   H1617     1.0  0.37890  0.59921  0.44761  1.0000
  H   H1618     1.0  0.36237  0.52433  0.42727  1.0000
  C   C1345     1.0  0.65178  0.54317  0.45827  1.0000
  C   C1346     1.0  0.63694  0.57614  0.47252  1.0000
  H   H1619     1.0  0.36420  0.57292  0.44912  1.0000
  C   C1347     1.0  0.48501  0.81411  0.48709  1.0000
  H   H1620     1.0  0.65867  0.59466  0.48164  1.0000
  H   H1621     1.0  0.64367  0.55468  0.44943  1.0000
  N   N91       1.0  0.65813  0.55857  0.46704  1.0000
  C   C1348     1.0  0.35413  0.63273  0.47418  1.0000
  C   C1349     1.0  0.34528  0.57122  0.47610  1.0000
  H   H1622     1.0  0.63884  0.53072  0.46420  1.0000
  H   H1623     1.0  0.51062  0.76965  0.48319  1.0000
  N   N92       1.0  0.35317  0.59265  0.46624  1.0000
  C   C1350     1.0  0.59700  0.60935  0.48409  1.0000
  C   C1351     1.0  0.61228  0.57587  0.47116  1.0000
  H   H1624     1.0  0.33172  0.57731  0.48493  1.0000
  H   H1625     1.0  0.59078  0.97128  0.48749  1.0000
  H   H1626     1.0  0.58354  0.93037  0.48934  1.0000
  H   H1627     1.0  0.57402  0.59190  0.47572  1.0000
  C   C1352     1.0  0.39475  0.61060  0.48688  1.0000
  C   C1353     1.0  0.38461  0.59706  0.47984  1.0000
  H   H1628     1.0  0.36085  0.55867  0.48033  1.0000
  H   H1629     1.0  0.39302  0.57812  0.47967  1.0000
  H   H1630     1.0  0.38794  0.57120  0.45881  1.0000
  S   S367      1.0  0.37224  0.96295  0.48869  1.0000
  H   H1631     1.0  0.47980  0.83275  0.48995  1.0000
  C   C1354     1.0  0.55216  0.91494  0.48939  1.0000
  H   H1632     1.0  0.34300  0.65718  0.64828  1.0000
  Fe  Fe185     1.0  0.61496  0.72773  0.51335  1.0000
  S   S368      1.0  0.58505  0.74647  0.52751  1.0000
  C   C1355     1.0  0.33572  0.77193  0.58671  1.0000
  Fe  Fe186     1.0  0.60976  0.67783  0.52954  1.0000
  S   S369      1.0  0.57872  0.69237  0.54540  1.0000
  H   H1633     1.0  0.64409  0.70237  0.56614  1.0000
  Fe  Fe187     1.0  0.56390  0.71677  0.52731  1.0000
  S   S370      1.0  0.52402  0.73392  0.52633  1.0000
  Fe  Fe188     1.0  0.60180  0.72111  0.54452  1.0000
  S   S371      1.0  0.60146  0.74099  0.56193  1.0000
  S   S372      1.0  0.65560  0.70274  0.61340  1.0000
  S   S373      1.0  0.63392  0.70480  0.53027  1.0000
  Fe  Fe189     1.0  0.62235  0.86992  0.55029  1.0000
  C   C1356     1.0  0.53272  0.81179  0.55550  1.0000
  C   C1357     1.0  0.52368  0.80304  0.49601  1.0000
  Fe  Fe190     1.0  0.58381  0.87858  0.53140  1.0000
  S   S374      1.0  0.60873  0.89613  0.51347  1.0000
  S   S375      1.0  0.55052  0.86667  0.52684  1.0000
  Fe  Fe191     1.0  0.63785  0.86539  0.52024  1.0000
  H   H1634     1.0  0.50897  0.75679  0.50117  1.0000
  Fe  Fe192     1.0  0.61849  0.91519  0.52874  1.0000
  S   S376      1.0  0.62298  0.95497  0.52534  1.0000
  S   S377      1.0  0.61271  0.84661  0.53726  1.0000
  S   S378      1.0  0.59083  0.90042  0.54634  1.0000
  Fe  Fe193     1.0  0.36400  0.89611  0.52988  1.0000
  S   S379      1.0  0.36767  0.89310  0.50771  1.0000
  S   S380      1.0  0.33278  0.71601  0.52375  1.0000
  Fe  Fe194     1.0  0.41430  0.91133  0.52617  1.0000
  S   S381      1.0  0.42200  0.90970  0.50370  1.0000
  S   S382      1.0  0.44108  0.92308  0.53657  1.0000
  Fe  Fe195     1.0  0.38269  0.92847  0.50366  1.0000
  C   C1358     1.0  0.64163  0.78864  0.59837  1.0000
  Fe  Fe196     1.0  0.40629  0.87459  0.50994  1.0000
  H   H1635     1.0  0.64705  0.78210  0.56871  1.0000
  S   S383      1.0  0.37615  0.93279  0.52578  1.0000
  S   S384      1.0  0.40132  0.87488  0.53253  1.0000
  Fe  Fe197     1.0  0.35644  0.71059  0.53988  1.0000
  C   C1359     1.0  0.46256  0.78383  0.54603  1.0000
  H   H1636     1.0  0.59718  0.98122  0.50204  1.0000
  Fe  Fe198     1.0  0.40284  0.69125  0.52122  1.0000
  H   H1637     1.0  0.58551  0.77957  0.49266  1.0000
  S   S385      1.0  0.44316  0.67433  0.51970  1.0000
  Fe  Fe199     1.0  0.36436  0.73162  0.50983  1.0000
  H   H1638     1.0  0.53452  0.81926  0.52801  1.0000
  Fe  Fe200     1.0  0.35302  0.67939  0.51893  1.0000
  C   C1360     1.0  0.33274  0.64855  0.64267  1.0000
  S   S386      1.0  0.38662  0.72860  0.52637  1.0000
  S   S387      1.0  0.37436  0.67262  0.53641  1.0000
  C   C1361     1.0  0.36903  0.81381  0.49494  1.0000
  H   H1639     1.0  0.58761  0.82199  0.49505  1.0000
  H   H1640     1.0  0.61177  0.89961  0.57642  1.0000
  H   H1641     1.0  0.48232  0.81564  0.51376  1.0000
  C   C1362     1.0  0.64965  0.70208  0.58684  1.0000
  H   H1642     1.0  0.35249  0.82971  0.53984  1.0000
  C   C1363     1.0  0.40722  0.81959  0.50073  1.0000
  H   H1643     1.0  0.65982  0.92784  0.50680  1.0000
  C   C1364     1.0  0.55082  0.94954  0.50120  1.0000
  C   C1365     1.0  0.52567  0.82709  0.49754  1.0000
  C   C1366     1.0  0.54847  0.83372  0.49728  1.0000
  H   H1644     1.0  0.43274  0.78624  0.50530  1.0000
  C   C1367     1.0  0.66031  0.60602  0.51589  1.0000
  S   S388      1.0  0.63674  0.74780  0.49503  1.0000
  C   C1368     1.0  0.33823  0.91060  0.57712  1.0000
  C   C1369     1.0  0.52078  0.88401  0.52895  1.0000
  C   C1370     1.0  0.51454  0.90317  0.53658  1.0000
  C   C1371     1.0  0.49002  0.91528  0.53880  1.0000
  C   C1372     1.0  0.47179  0.90834  0.53333  1.0000
  C   C1373     1.0  0.47823  0.88954  0.52544  1.0000
  C   C1374     1.0  0.50264  0.87745  0.52328  1.0000
  H   H1645     1.0  0.52841  0.90828  0.54103  1.0000
  H   H1646     1.0  0.48507  0.92984  0.54490  1.0000
  H   H1647     1.0  0.46433  0.88415  0.52115  1.0000
  H   H1648     1.0  0.50738  0.86263  0.51741  1.0000
  C   C1375     1.0  0.34731  0.84901  0.60289  1.0000
  C   C1376     1.0  0.64389  0.77524  0.49774  1.0000
  C   C1377     1.0  0.56994  0.81671  0.49538  1.0000
  S   S389      1.0  0.35582  0.76874  0.49685  1.0000
  C   C1378     1.0  0.34251  0.90393  0.56405  1.0000
  H   H1649     1.0  0.33739  0.75675  0.58125  1.0000
  C   C1379     1.0  0.63327  0.81222  0.50806  1.0000
  C   C1380     1.0  0.62743  0.79007  0.50626  1.0000
  H   H1650     1.0  0.64780  0.96588  0.54630  1.0000
  C   C1381     1.0  0.65747  0.96354  0.55524  1.0000
  H   H1651     1.0  0.35898  0.67494  0.56701  1.0000
  H   H1652     1.0  0.60999  0.78480  0.51121  1.0000
  C   C1382     1.0  0.50185  0.71682  0.52470  1.0000
  C   C1383     1.0  0.47740  0.72862  0.52465  1.0000
  C   C1384     1.0  0.45925  0.71582  0.52315  1.0000
  C   C1385     1.0  0.46542  0.69105  0.52169  1.0000
  C   C1386     1.0  0.48991  0.67927  0.52170  1.0000
  C   C1387     1.0  0.50808  0.69209  0.52321  1.0000
  H   H1653     1.0  0.47241  0.74772  0.52577  1.0000
  H   H1654     1.0  0.44054  0.72512  0.52306  1.0000
  H   H1655     1.0  0.49482  0.66013  0.52056  1.0000
  H   H1656     1.0  0.52687  0.68283  0.52321  1.0000
  N   N93       1.0  0.49917  0.79634  0.49685  1.0000
  C   C1388     1.0  0.58888  0.96723  0.49887  1.0000
  C   C1389     1.0  0.39959  0.77850  0.50082  1.0000
  H   H1657     1.0  0.49588  0.78407  0.51855  1.0000
  H   H1658     1.0  0.35359  0.82855  0.52221  1.0000
  H   H1659     1.0  0.35998  0.90545  0.55741  1.0000
  H   H1660     1.0  0.56070  0.79813  0.53292  1.0000
  C   C1390     1.0  0.61949  0.72973  0.59964  1.0000
  C   C1391     1.0  0.60776  0.73828  0.58818  1.0000
  C   C1392     1.0  0.61642  0.72837  0.57611  1.0000
  H   H1661     1.0  0.61237  0.73728  0.60898  1.0000
  H   H1662     1.0  0.59168  0.75246  0.58873  1.0000
  C   C1393     1.0  0.64418  0.85060  0.61605  1.0000
  H   H1663     1.0  0.55622  0.76733  0.55454  1.0000
  H   H1664     1.0  0.62311  0.92777  0.58937  1.0000
  H   H1665     1.0  0.53627  0.75594  0.54683  1.0000
  C   C1394     1.0  0.64412  0.83088  0.60950  1.0000
  H   H1666     1.0  0.51795  0.90199  0.49111  1.0000
  C   C1395     1.0  0.63731  0.71008  0.57545  1.0000
  H   H1667     1.0  0.35249  0.91716  0.58052  1.0000
  H   H1668     1.0  0.51419  0.96120  0.51238  1.0000
  H   H1669     1.0  0.46715  0.79168  0.51226  1.0000
  H   H1670     1.0  0.55220  0.80720  0.55722  1.0000
  H   H1671     1.0  0.60067  0.94938  0.50190  1.0000
  C   C1396     1.0  0.63575  0.91125  0.58729  1.0000
  H   H1672     1.0  0.57192  0.94244  0.52354  1.0000
  S   S390      1.0  0.59287  0.69980  0.51149  1.0000
  C   C1397     1.0  0.65817  0.90557  0.59222  1.0000
  H   H1673     1.0  0.64741  0.77725  0.53246  1.0000
  C   C1398     1.0  0.34344  0.60740  0.65421  1.0000
  S   S391      1.0  0.63615  0.85209  0.56995  1.0000
  H   H1674     1.0  0.34916  0.81007  0.62396  1.0000
  C   C1399     1.0  0.54054  0.80017  0.53309  1.0000
  N   N94       1.0  0.56277  0.96734  0.50550  1.0000
  H   H1675     1.0  0.34474  0.86427  0.60889  1.0000
  S   S392      1.0  0.38283  0.69542  0.50338  1.0000
  C   C1400     1.0  0.37637  0.78826  0.49734  1.0000
  H   H1676     1.0  0.64610  0.69372  0.65178  1.0000
  H   H1677     1.0  0.62797  0.86458  0.61726  1.0000
  C   C1401     1.0  0.48558  0.79699  0.51096  1.0000
  H   H1678     1.0  0.65517  0.80688  0.53140  1.0000
  C   C1402     1.0  0.33898  0.66438  0.58727  1.0000
  H   H1679     1.0  0.33355  0.93426  0.49107  1.0000
  H   H1680     1.0  0.57112  0.97415  0.52427  1.0000
  H   H1681     1.0  0.35554  0.61275  0.66023  1.0000
  H   H1682     1.0  0.34801  0.64542  0.58823  1.0000
  C   C1403     1.0  0.52530  0.94903  0.50566  1.0000
  S   S393      1.0  0.65016  0.88608  0.53372  1.0000
  H   H1683     1.0  0.35132  0.82150  0.49192  1.0000
  H   H1684     1.0  0.62869  0.77925  0.55664  1.0000
  C   C1404     1.0  0.33164  0.81169  0.60095  1.0000
  C   C1405     1.0  0.33271  0.70528  0.57387  1.0000
  H   H1685     1.0  0.45314  0.76849  0.54660  1.0000
  H   H1686     1.0  0.36443  0.78786  0.57261  1.0000
  C   C1406     1.0  0.45008  0.80782  0.54350  1.0000
  H   H1687     1.0  0.54634  0.76699  0.49362  1.0000
  C   C1407     1.0  0.66290  0.94668  0.50497  1.0000
  H   H1688     1.0  0.36371  0.78558  0.52699  1.0000
  H   H1689     1.0  0.40582  0.75888  0.50213  1.0000
  H   H1690     1.0  0.62735  0.83067  0.60589  1.0000
  H   H1691     1.0  0.35508  0.60283  0.64446  1.0000
  H   H1692     1.0  0.52068  0.81083  0.56570  1.0000
  H   H1693     1.0  0.49557  0.83914  0.54322  1.0000
  H   H1694     1.0  0.45256  0.84619  0.54062  1.0000
  H   H1695     1.0  0.37853  0.84911  0.49497  1.0000
  C   C1408     1.0  0.65499  0.68179  0.66029  1.0000
  C   C1409     1.0  0.52702  0.91526  0.49376  1.0000
  C   C1410     1.0  0.54594  0.78593  0.49444  1.0000
  C   C1411     1.0  0.34496  0.68096  0.57522  1.0000
  C   C1412     1.0  0.41499  0.79411  0.50247  1.0000
  C   C1413     1.0  0.50026  0.77144  0.49365  1.0000
  H   H1696     1.0  0.63315  0.80441  0.59128  1.0000
  C   C1414     1.0  0.65484  0.64881  0.50533  1.0000
  H   H1697     1.0  0.63783  0.80781  0.55622  1.0000
  H   H1698     1.0  0.52600  0.76409  0.56373  1.0000
  S   S394      1.0  0.62699  0.63771  0.53073  1.0000
  C   C1415     1.0  0.64519  0.87351  0.57769  1.0000
  H   H1699     1.0  0.34541  0.64299  0.63341  1.0000
  S   S395      1.0  0.33884  0.72636  0.55891  1.0000
  H   H1700     1.0  0.65969  0.63035  0.55383  1.0000
  C   C1416     1.0  0.64758  0.96364  0.51263  1.0000
  C   C1417     1.0  0.62935  0.89537  0.57993  1.0000
  C   C1418     1.0  0.64064  0.71189  0.59898  1.0000
  C   C1419     1.0  0.56869  0.79286  0.49400  1.0000
  H   H1701     1.0  0.64592  0.66766  0.50548  1.0000
  H   H1702     1.0  0.62018  0.82389  0.51430  1.0000
  H   H1703     1.0  0.49607  0.76036  0.54903  1.0000
  H   H1704     1.0  0.33704  0.59003  0.65977  1.0000
  S   S396      1.0  0.42633  0.83865  0.50364  1.0000
  S   S397      1.0  0.33534  0.64688  0.51784  1.0000
  H   H1705     1.0  0.65682  0.98209  0.55765  1.0000
  N   N95       1.0  0.52703  0.79507  0.54725  1.0000
  C   C1420     1.0  0.53659  0.76954  0.55339  1.0000
  H   H1706     1.0  0.43103  0.81123  0.54204  1.0000
  H   H1707     1.0  0.62898  0.78645  0.60836  1.0000
  C   C1421     1.0  0.50036  0.79907  0.54670  1.0000
  C   C1422     1.0  0.48697  0.82324  0.54419  1.0000
  H   H1708     1.0  0.53763  0.78740  0.52662  1.0000
  C   C1423     1.0  0.46225  0.82748  0.54264  1.0000
  H   H1709     1.0  0.53075  0.83128  0.55029  1.0000
  C   C1424     1.0  0.48736  0.77939  0.54753  1.0000
  H   H1710     1.0  0.54300  0.96237  0.52633  1.0000
  C   C1425     1.0  0.56208  0.96138  0.52055  1.0000
  H   H1711     1.0  0.64758  0.66430  0.66224  1.0000
  H   H1712     1.0  0.34543  0.85820  0.59221  1.0000
  C   C1426     1.0  0.34110  0.82827  0.53226  1.0000
  H   H1713     1.0  0.41032  0.60209  0.49199  1.0000
  H   H1714     1.0  0.36644  0.83907  0.60308  1.0000
  H   H1715     1.0  0.64644  0.95353  0.56427  1.0000
  C   C1427     1.0  0.38434  0.82945  0.49676  1.0000
  C   C1428     1.0  0.64854  0.63040  0.51626  1.0000
  C   C1429     1.0  0.34980  0.78427  0.53654  1.0000
  H   H1716     1.0  0.48156  0.76711  0.49413  1.0000
  H   H1717     1.0  0.64264  0.77198  0.59378  1.0000
  H   H1718     1.0  0.36145  0.82220  0.58439  1.0000
  H   H1719     1.0  0.39226  0.64539  0.49328  1.0000
  C   C1430     1.0  0.65614  0.81891  0.50196  1.0000
  C   C1431     1.0  0.33141  0.82270  0.62312  1.0000
  C   C1432     1.0  0.64425  0.78768  0.55788  1.0000
  C   C1433     1.0  0.34908  0.80921  0.58878  1.0000
  H   H1720     1.0  0.50950  0.84084  0.49914  1.0000
  H   H1721     1.0  0.49411  0.93223  0.50546  1.0000
  H   H1722     1.0  0.64860  0.69056  0.66963  1.0000
  C   C1434     1.0  0.35100  0.78954  0.58184  1.0000
  H   H1723     1.0  0.54954  0.85208  0.49872  1.0000
  C   C1435     1.0  0.56399  0.93184  0.49297  1.0000
  H   H1724     1.0  0.34303  0.76672  0.53731  1.0000
  C   C1436     1.0  0.51361  0.93234  0.50183  1.0000
  H   H1725     1.0  0.35946  0.78244  0.54540  1.0000
  C   C1437     1.0  0.65170  0.98802  0.51008  1.0000
  H   H1726     1.0  0.65747  0.74410  0.55038  1.0000
  H   H1727     1.0  0.62427  0.62306  0.49140  1.0000
  C   C1438     1.0  0.66182  0.78691  0.53411  1.0000
  H   H1728     1.0  0.65541  0.59166  0.52429  1.0000
  H   H1729     1.0  0.33051  0.83783  0.62895  1.0000
  H   H1730     1.0  0.33020  0.97251  0.51802  1.0000
  C   C1439     1.0  0.54946  0.99271  0.50203  1.0000
  H   H1731     1.0  0.34285  0.98176  0.73992  1.0000
  N   N96       1.0  0.56138  0.55218  0.91190  1.0000
  H   H1732     1.0  0.37959  0.56700  0.82508  1.0000
  H   H1733     1.0  0.57075  0.55493  0.88984  1.0000
  Fe  Fe201     1.0  0.60584  0.54287  0.86576  1.0000
  S   S398      1.0  0.56862  0.56354  0.86160  1.0000
  H   H1734     1.0  0.36322  0.97315  0.80298  1.0000
  S   S399      1.0  0.63373  0.52490  0.85005  1.0000
  S   S400      1.0  0.63270  0.56298  0.87094  1.0000
  Fe  Fe202     1.0  0.44181  0.52438  0.86924  1.0000
  H   H1735     1.0  0.58984  0.55874  0.92169  1.0000
  Fe  Fe203     1.0  0.40374  0.56872  0.86122  1.0000
  S   S401      1.0  0.37764  0.54573  0.85817  1.0000
  S   S402      1.0  0.39315  0.60964  0.85641  1.0000
  Fe  Fe204     1.0  0.38720  0.52249  0.87781  1.0000
  H   H1736     1.0  0.50129  0.49724  0.78555  1.0000
  H   H1737     1.0  0.60266  0.94863  0.89215  1.0000
  S   S403      1.0  0.41123  0.54706  0.88160  1.0000
  S   S404      1.0  0.43681  0.54869  0.84921  1.0000
  C   C1440     1.0  0.36124  0.61759  0.85710  1.0000
  C   C1441     1.0  0.53002  0.97219  0.89284  1.0000
  C   C1442     1.0  0.54713  0.52179  0.86970  1.0000
  H   H1738     1.0  0.53799  0.98395  0.89740  1.0000
  H   H1739     1.0  0.49751  0.93592  0.87494  1.0000
  H   H1740     1.0  0.44872  0.51676  0.91919  1.0000
  H   H1741     1.0  0.36350  0.65046  0.84208  1.0000
  H   H1742     1.0  0.49345  0.98732  0.90171  1.0000
  C   C1443     1.0  0.58512  0.93509  0.87335  1.0000
  H   H1743     1.0  0.56715  0.51651  0.90568  1.0000
  C   C1444     1.0  0.33924  0.73336  0.84201  1.0000
  H   H1744     1.0  0.47986  0.58294  0.93001  1.0000
  S   S405      1.0  0.47805  0.50624  0.87596  1.0000
  C   C1445     1.0  0.36648  0.52933  0.91407  1.0000
  H   H1745     1.0  0.33931  0.75432  0.85737  1.0000
  C   C1446     1.0  0.53436  0.55656  0.91248  1.0000
  H   H1746     1.0  0.38046  0.53700  0.90650  1.0000
  C   C1447     1.0  0.34274  0.99263  0.77205  1.0000
  C   C1448     1.0  0.48280  0.56525  0.91260  1.0000
  H   H1747     1.0  0.37185  0.96703  0.85448  1.0000
  C   C1449     1.0  0.58217  0.95059  0.89416  1.0000
  C   C1450     1.0  0.54397  0.54701  0.86466  1.0000
  C   C1451     1.0  0.52052  0.55958  0.86252  1.0000
  C   C1452     1.0  0.50025  0.54711  0.86558  1.0000
  C   C1453     1.0  0.50332  0.52204  0.87097  1.0000
  H   H1748     1.0  0.51799  0.57909  0.85860  1.0000
  H   H1749     1.0  0.48221  0.55704  0.86403  1.0000
  H   H1750     1.0  0.34631  0.98087  0.96824  1.0000
  H   H1751     1.0  0.40733  0.49354  0.90149  1.0000
  C   C1454     1.0  0.57065  0.52536  0.91387  1.0000
  H   H1752     1.0  0.57578  0.96612  0.89998  1.0000
  C   C1455     1.0  0.50674  0.94562  0.88015  1.0000
  C   C1456     1.0  0.35927  0.96548  0.84798  1.0000
  C   C1457     1.0  0.65859  0.53709  0.80482  1.0000
  H   H1753     1.0  0.33324  0.75583  0.80887  1.0000
  H   H1754     1.0  0.59758  0.97847  0.87012  1.0000
  H   H1755     1.0  0.34868  0.94562  0.76559  1.0000
  C   C1458     1.0  0.49764  0.51429  0.83382  1.0000
  C   C1459     1.0  0.52681  0.50940  0.87297  1.0000
  C   C1460     1.0  0.53244  0.94278  0.87785  1.0000
  C   C1461     1.0  0.36785  0.58510  0.82251  1.0000
  N   N97       1.0  0.57194  0.95484  0.88123  1.0000
  H   H1756     1.0  0.49133  0.52426  0.84236  1.0000
  H   H1757     1.0  0.42080  0.52543  0.91211  1.0000
  H   H1758     1.0  0.56518  0.51186  0.87122  1.0000
  H   H1759     1.0  0.57706  0.93365  0.90102  1.0000
  H   H1760     1.0  0.34146  0.71597  0.84893  1.0000
  C   C1462     1.0  0.56941  0.56237  0.92249  1.0000
  H   H1761     1.0  0.36015  0.78670  0.85643  1.0000
  H   H1762     1.0  0.58105  0.91674  0.87878  1.0000
  H   H1763     1.0  0.47283  0.96406  0.89030  1.0000
  H   H1764     1.0  0.47705  0.50314  0.80681  1.0000
  S   S406      1.0  0.35711  0.50754  0.89380  1.0000
  H   H1765     1.0  0.33385  0.98113  0.87744  1.0000
  H   H1766     1.0  0.54206  0.93052  0.87084  1.0000
  H   H1767     1.0  0.64452  0.55225  0.93326  1.0000
  C   C1463     1.0  0.35831  0.98557  0.79386  1.0000
  C   C1464     1.0  0.52400  0.54847  0.90275  1.0000
  H   H1768     1.0  0.56186  0.51594  0.92387  1.0000
  H   H1769     1.0  0.36779  0.59563  0.83081  1.0000
  H   H1770     1.0  0.33051  0.79446  0.81655  1.0000
  H   H1771     1.0  0.53555  0.53898  0.89486  1.0000
  H   H1772     1.0  0.34781  0.53419  0.77931  1.0000
  H   H1773     1.0  0.64383  0.52867  0.81153  1.0000
  C   C1465     1.0  0.33492  0.75580  0.81942  1.0000
  C   C1466     1.0  0.49276  0.96144  0.88882  1.0000
  H   H1774     1.0  0.34330  0.59808  0.92317  1.0000
  Fe  Fe205     1.0  0.41115  0.52387  0.84770  1.0000
  C   C1467     1.0  0.49226  0.57319  0.92242  1.0000
  C   C1468     1.0  0.33461  0.77848  0.83792  1.0000
  C   C1469     1.0  0.50439  0.97451  0.89526  1.0000
  H   H1775     1.0  0.54371  0.50258  0.78803  1.0000
  C   C1470     1.0  0.34349  0.56966  0.80973  1.0000
  S   S407      1.0  0.41829  0.49792  0.86693  1.0000
  S   S408      1.0  0.64693  0.96195  0.86963  1.0000
  C   C1471     1.0  0.34954  0.94366  0.84978  1.0000
  C   C1472     1.0  0.49020  0.50198  0.81349  1.0000
  H   H1776     1.0  0.56553  0.58354  0.89594  1.0000
  C   C1473     1.0  0.34559  0.60237  0.86565  1.0000
  C   C1474     1.0  0.35616  0.80195  0.84790  1.0000
  C   C1475     1.0  0.52131  0.50086  0.83214  1.0000
  S   S409      1.0  0.63852  0.53927  0.90821  1.0000
  C   C1476     1.0  0.33790  0.75543  0.84673  1.0000
  H   H1777     1.0  0.37362  0.54565  0.93022  1.0000
  C   C1477     1.0  0.35221  0.51463  0.91050  1.0000
  C   C1478     1.0  0.34646  0.54395  0.78773  1.0000
  H   H1778     1.0  0.59095  0.52134  0.91368  1.0000
  C   C1479     1.0  0.49864  0.55281  0.90282  1.0000
  H   H1779     1.0  0.60548  0.93414  0.87183  1.0000
  C   C1480     1.0  0.33759  0.73358  0.82839  1.0000
  H   H1780     1.0  0.34332  0.82491  0.82402  1.0000
  C   C1481     1.0  0.35881  0.53314  0.79867  1.0000
  H   H1781     1.0  0.46317  0.56895  0.91248  1.0000
  Fe  Fe206     1.0  0.66112  0.54171  0.85691  1.0000
  H   H1782     1.0  0.49134  0.54680  0.89508  1.0000
  C   C1482     1.0  0.34929  0.97682  0.78411  1.0000
  H   H1783     1.0  0.59345  0.56205  0.89769  1.0000
  N   N98       1.0  0.33282  0.80160  0.84326  1.0000
  H   H1784     1.0  0.56380  0.58267  0.92133  1.0000
  H   H1785     1.0  0.58043  0.93843  0.86285  1.0000
  C   C1483     1.0  0.66173  0.54160  0.92927  1.0000
  H   H1786     1.0  0.56206  0.55379  0.93305  1.0000
  C   C1484     1.0  0.36239  0.53441  0.92749  1.0000
  C   C1485     1.0  0.51765  0.56896  0.92243  1.0000
  S   S410      1.0  0.40643  0.99031  0.86572  1.0000
  S   S411      1.0  0.61081  0.51132  0.88297  1.0000
  H   H1787     1.0  0.36723  0.53651  0.81778  1.0000
  C   C1486     1.0  0.34338  0.52562  0.93730  1.0000
  Fe  Fe207     1.0  0.63988  0.52998  0.88715  1.0000
  S   S412      1.0  0.41368  0.51449  0.82673  1.0000
  H   H1788     1.0  0.35571  0.81939  0.85168  1.0000
  C   C1487     1.0  0.57323  0.56367  0.89830  1.0000
  C   C1488     1.0  0.54490  0.95602  0.88418  1.0000
  H   H1789     1.0  0.34033  0.97909  0.92728  1.0000
  H   H1790     1.0  0.44966  0.51663  0.90153  1.0000
  H   H1791     1.0  0.33813  0.71656  0.82476  1.0000
  H   H1792     1.0  0.52371  0.57576  0.93027  1.0000
  C   C1489     1.0  0.35731  0.54569  0.80954  1.0000
  H   H1793     1.0  0.56958  0.98275  0.86341  1.0000
  C   C1490     1.0  0.43849  0.51242  0.91187  1.0000
  H   H1794     1.0  0.35305  0.58646  0.87243  1.0000
  C   C1491     1.0  0.33330  0.77799  0.82404  1.0000
  C   C1492     1.0  0.57749  0.97856  0.87305  1.0000
  H   H1795     1.0  0.36959  0.51490  0.79875  1.0000
  C   C1493     1.0  0.35140  0.63862  0.84864  1.0000
  C   C1494     1.0  0.48215  0.51482  0.82451  1.0000
  H   H1796     1.0  0.35463  0.92857  0.85774  1.0000
  C   C1495     1.0  0.33240  0.56730  0.78768  1.0000
  H   H1797     1.0  0.37200  0.80023  0.83936  1.0000
  H   H1798     1.0  0.33004  0.57819  0.84312  1.0000
  H   H1799     1.0  0.33335  0.96197  0.90168  1.0000
  H   H1800     1.0  0.34755  0.95760  0.78632  1.0000
  H   H1801     1.0  0.46370  0.52526  0.82582  1.0000
  H   H1802     1.0  0.37727  0.59479  0.81277  1.0000
  C   C1496     1.0  0.33371  0.94109  0.84120  1.0000
  H   H1803     1.0  0.34509  0.99021  0.98885  1.0000
  H   H1804     1.0  0.34793  0.58824  0.89984  1.0000
  H   H1805     1.0  0.53334  0.50046  0.83942  1.0000
  C   C1497     1.0  0.33698  0.98254  0.82915  1.0000
  H   H1806     1.0  0.65769  0.51958  0.78788  1.0000
  H   H1807     1.0  0.34243  0.55009  0.83681  1.0000
  N   N99       1.0  0.34257  0.58271  0.82127  1.0000
  S   S413      1.0  0.33863  0.53250  0.95400  1.0000
  C   C1498     1.0  0.35336  0.98482  0.83749  1.0000
  H   H1808     1.0  0.36857  0.97751  0.74886  1.0000
  Fe  Fe208     1.0  0.64073  0.49453  0.86761  1.0000
  H   H1809     1.0  0.65996  0.58455  0.89303  1.0000
  H   H1810     1.0  0.37493  0.98844  0.95829  1.0000
  H   H1811     1.0  0.33554  0.61975  0.81023  1.0000
  C   C1499     1.0  0.33141  0.56860  0.83426  1.0000
  C   C1500     1.0  0.33200  0.58419  0.90740  1.0000
  C   C1501     1.0  0.33368  0.50521  0.92042  1.0000
  N   N100      1.0  0.33307  0.98412  0.76149  1.0000
  C   C1502     1.0  0.33088  0.58004  0.79847  1.0000
  C   C1503     1.0  0.34971  0.98784  0.74813  1.0000
  C   C1504     1.0  0.33063  0.95770  0.76480  1.0000
  H   H1812     1.0  0.43816  0.49582  0.94019  1.0000
  H   H1813     1.0  0.66221  0.59735  0.85156  1.0000
  C   C1505     1.0  0.98198  0.33905  0.02311  1.0000
  Fe  Fe209     1.0  0.76036  0.07175  0.20954  1.0000
  S   S414      1.0  0.72176  0.06724  0.21945  1.0000
  S   S415      1.0  0.77251  0.09521  0.18943  1.0000
  Fe  Fe210     1.0  0.73741  0.02684  0.22310  1.0000
  H   H1814     1.0  0.94770  0.21152  0.05393  1.0000
  H   H1815     1.0  0.71909  0.47108  0.01590  1.0000
  S   S416      1.0  0.77558  0.03152  0.21215  1.0000
  Fe  Fe211     1.0  0.76056  0.19573  0.11082  1.0000
  S   S417      1.0  0.73727  0.21613  0.09536  1.0000
  S   S418      1.0  0.80097  0.19683  0.10395  1.0000
  Fe  Fe212     1.0  0.71603  0.18479  0.13189  1.0000
  H   H1816     1.0  0.98488  0.37059  0.06406  1.0000
  S   S419      1.0  0.69986  0.16771  0.15319  1.0000
  Fe  Fe213     1.0  0.71570  0.18507  0.10183  1.0000
  Fe  Fe214     1.0  0.71379  0.23363  0.11260  1.0000
  S   S420      1.0  0.70257  0.27504  0.10747  1.0000
  S   S421      1.0  0.74070  0.16333  0.11637  1.0000
  S   S422      1.0  0.73855  0.21519  0.12781  1.0000
  Fe  Fe215     1.0  0.74723  0.43445  0.11049  1.0000
  S   S423      1.0  0.75315  0.41648  0.13185  1.0000
  S   S424      1.0  0.77538  0.44796  0.09295  1.0000
  Fe  Fe216     1.0  0.69314  0.43138  0.11611  1.0000
  S   S425      1.0  0.69394  0.41303  0.13789  1.0000
  H   H1817     1.0  0.75007  0.16546  0.01271  1.0000
  Fe  Fe217     1.0  0.71760  0.44069  0.13861  1.0000
  S   S426      1.0  0.70699  0.46245  0.15625  1.0000
  Fe  Fe218     1.0  0.72916  0.39038  0.12936  1.0000
  S   S427      1.0  0.73795  0.34928  0.13644  1.0000
  S   S428      1.0  0.71373  0.46081  0.11733  1.0000
  S   S429      1.0  0.72622  0.40660  0.10753  1.0000
  Fe  Fe219     1.0  0.87221  0.15171  0.00894  1.0000
  S   S430      1.0  0.89927  0.13585  0.02337  1.0000
  C   C1506     1.0  0.76949  0.19182  0.04150  1.0000
  Fe  Fe220     1.0  0.85956  0.20048  0.01984  1.0000
  S   S431      1.0  0.88501  0.18816  0.03524  1.0000
  S   S432      1.0  0.83728  0.23825  0.02047  1.0000
  Fe  Fe221     1.0  0.91155  0.17276  0.01802  1.0000
  S   S433      1.0  0.94954  0.18308  0.01102  1.0000
  Fe  Fe222     1.0  0.87024  0.15274  0.03907  1.0000
  S   S434      1.0  0.85427  0.13139  0.05903  1.0000
  S   S435      1.0  0.88671  0.18743  0.00222  1.0000
  S   S436      1.0  0.84255  0.16628  0.02497  1.0000
  Fe  Fe223     1.0  0.88039  0.40167  0.01805  1.0000
  S   S437      1.0  0.87623  0.40443  0.04041  1.0000
  C   C1507     1.0  0.83647  0.34868  0.99057  1.0000
  Fe  Fe224     1.0  0.89655  0.34670  0.02261  1.0000
  S   S438      1.0  0.89367  0.34424  0.04517  1.0000
  S   S439      1.0  0.91090  0.31368  0.01225  1.0000
  Fe  Fe225     1.0  0.85858  0.37077  0.04386  1.0000
  S   S440      1.0  0.82637  0.36200  0.05993  1.0000
  Fe  Fe226     1.0  0.91181  0.37776  0.04008  1.0000
  S   S441      1.0  0.93971  0.37602  0.05375  1.0000
  S   S442      1.0  0.85962  0.37016  0.02164  1.0000
  S   S443      1.0  0.91776  0.37802  0.01739  1.0000
  C   C1508     1.0  0.96677  0.38858  0.04691  1.0000
  C   C1509     1.0  0.96894  0.40425  0.03427  1.0000
  H   H1818     1.0  0.73907  0.01109  0.16469  1.0000
  H   H1819     1.0  0.95379  0.40902  0.02857  1.0000
  S   S444      1.0  0.77199  0.07633  0.22870  1.0000
  C   C1510     1.0  0.85749  0.25943  0.01825  1.0000
  C   C1511     1.0  0.88172  0.25398  0.01162  1.0000
  C   C1512     1.0  0.89770  0.27108  0.00950  1.0000
  C   C1513     1.0  0.88989  0.29331  0.01448  1.0000
  C   C1514     1.0  0.86575  0.29871  0.02130  1.0000
  C   C1515     1.0  0.84945  0.28191  0.02301  1.0000
  H   H1820     1.0  0.75556  0.11008  0.00148  1.0000
  H   H1821     1.0  0.85954  0.31588  0.02512  1.0000
  H   H1822     1.0  0.83070  0.28625  0.02811  1.0000
  C   C1516     1.0  0.97473  0.17054  0.01964  1.0000
  C   C1517     1.0  0.97253  0.15347  0.03177  1.0000
  H   H1823     1.0  0.95533  0.14674  0.03575  1.0000
  C   C1518     1.0  0.78948  0.42422  0.08365  1.0000
  C   C1519     1.0  0.78751  0.39981  0.08939  1.0000
  C   C1520     1.0  0.79863  0.38088  0.08194  1.0000
  C   C1521     1.0  0.81199  0.38623  0.06878  1.0000
  C   C1522     1.0  0.81420  0.41062  0.06304  1.0000
  C   C1523     1.0  0.80296  0.42963  0.07049  1.0000
  H   H1824     1.0  0.77796  0.39538  0.09972  1.0000
  H   H1825     1.0  0.79721  0.36205  0.08651  1.0000
  H   H1826     1.0  0.82420  0.41490  0.05280  1.0000
  H   H1827     1.0  0.80454  0.44850  0.06602  1.0000
  C   C1524     1.0  0.81576  0.17827  0.09165  1.0000
  C   C1525     1.0  0.80532  0.15897  0.08961  1.0000
  C   C1526     1.0  0.81754  0.14430  0.07976  1.0000
  C   C1527     1.0  0.83981  0.14940  0.07163  1.0000
  C   C1528     1.0  0.85000  0.16900  0.07348  1.0000
  C   C1529     1.0  0.83822  0.18311  0.08367  1.0000
  H   H1828     1.0  0.78810  0.15502  0.09581  1.0000
  H   H1829     1.0  0.80964  0.12909  0.07840  1.0000
  H   H1830     1.0  0.86733  0.17281  0.06734  1.0000
  H   H1831     1.0  0.84658  0.19769  0.08542  1.0000
  C   C1530     1.0  0.71352  0.29504  0.11544  1.0000
  C   C1531     1.0  0.71239  0.31985  0.10938  1.0000
  C   C1532     1.0  0.72053  0.33647  0.11551  1.0000
  C   C1533     1.0  0.72947  0.32851  0.12790  1.0000
  C   C1534     1.0  0.73111  0.30358  0.13381  1.0000
  C   C1535     1.0  0.72322  0.28688  0.12760  1.0000
  H   H1832     1.0  0.70523  0.32621  0.09986  1.0000
  H   H1833     1.0  0.71963  0.35550  0.11073  1.0000
  H   H1834     1.0  0.73809  0.29724  0.14339  1.0000
  H   H1835     1.0  0.72412  0.26783  0.13241  1.0000
  H   H1836     1.0  0.79227  0.46400  0.23082  1.0000
  C   C1536     1.0  0.68190  0.14003  0.07633  1.0000
  C   C1537     1.0  0.72824  0.46989  0.16493  1.0000
  H   H1837     1.0  0.78944  0.46869  0.16373  1.0000
  Fe  Fe227     1.0  0.73470  0.06872  0.23913  1.0000
  C   C1538     1.0  0.73728  0.45485  0.05384  1.0000
  H   H1838     1.0  0.76072  0.45598  0.15165  1.0000
  H   H1839     1.0  0.79017  0.45646  0.02388  1.0000
  C   C1539     1.0  0.75189  0.11543  0.17965  1.0000
  C   C1540     1.0  0.76117  0.12705  0.16655  1.0000
  C   C1541     1.0  0.74538  0.14327  0.15838  1.0000
  C   C1542     1.0  0.72021  0.14811  0.16334  1.0000
  C   C1543     1.0  0.71090  0.13666  0.17651  1.0000
  C   C1544     1.0  0.72668  0.12025  0.18464  1.0000
  H   H1840     1.0  0.78067  0.12342  0.16264  1.0000
  H   H1841     1.0  0.75269  0.15200  0.14824  1.0000
  H   H1842     1.0  0.69139  0.14031  0.18033  1.0000
  H   H1843     1.0  0.71926  0.11129  0.19466  1.0000
  H   H1844     1.0  0.93897  0.23178  0.01753  1.0000
  H   H1845     1.0  0.73314  0.00553  0.18300  1.0000
  H   H1846     1.0  0.88805  0.23679  0.00781  1.0000
  C   C1545     1.0  0.98651  0.38266  0.05426  1.0000
  C   C1546     1.0  0.73408  0.10256  0.03568  1.0000
  C   C1547     1.0  0.79751  0.12474  0.04471  1.0000
  H   H1847     1.0  0.76739  0.13783  0.20265  1.0000
  C   C1548     1.0  0.77825  0.10487  0.03141  1.0000
  H   H1848     1.0  0.68046  0.02947  0.21328  1.0000
  H   H1849     1.0  0.85141  0.39238  0.99317  1.0000
  N   N101      1.0  0.74067  0.15389  0.21839  1.0000
  C   C1549     1.0  0.70003  0.04599  0.00150  1.0000
  C   C1550     1.0  0.69959  0.07136  0.99930  1.0000
  H   H1850     1.0  0.75675  0.44742  0.05314  1.0000
  C   C1551     1.0  0.74147  0.05663  0.14846  1.0000
  N   N102      1.0  0.69280  0.49127  0.03021  1.0000
  S   S445      1.0  0.72567  0.99441  0.21718  1.0000
  H   H1851     1.0  0.66743  0.06551  0.10343  1.0000
  H   H1852     1.0  0.89051  0.36211  0.99659  1.0000
  H   H1853     1.0  0.69190  0.45778  0.02321  1.0000
  C   C1552     1.0  0.72042  0.09540  0.13784  1.0000
  S   S446      1.0  0.68939  0.20458  0.11767  1.0000
  H   H1854     1.0  0.74165  0.42568  0.22076  1.0000
  C   C1553     1.0  0.98161  0.31806  0.01787  1.0000
  H   H1855     1.0  0.91111  0.24468  0.03692  1.0000
  C   C1554     1.0  0.66676  0.15214  0.09859  1.0000
  C   C1555     1.0  0.72181  0.45125  0.06642  1.0000
  H   H1856     1.0  0.69847  0.17042  0.23524  1.0000
  C   C1556     1.0  0.96752  0.26978  0.04449  1.0000
  H   H1857     1.0  0.71307  0.07959  0.99156  1.0000
  H   H1858     1.0  0.68091  0.10602  0.00505  1.0000
  C   C1557     1.0  0.66532  0.05042  0.02019  1.0000
  H   H1859     1.0  0.77671  0.13202  0.21904  1.0000
  C   C1558     1.0  0.99571  0.23579  0.03574  1.0000
  C   C1559     1.0  0.82555  0.32752  0.99460  1.0000
  C   C1560     1.0  0.92596  0.25265  0.03949  1.0000
  H   H1860     1.0  0.73623  0.18877  0.20502  1.0000
  N   N103      1.0  0.76326  0.44750  0.22719  1.0000
  H   H1861     1.0  0.66787  0.37024  0.14038  1.0000
  H   H1862     1.0  0.67773  0.34082  0.13530  1.0000
  H   H1863     1.0  0.92185  0.25282  0.05072  1.0000
  H   H1864     1.0  0.69547  0.11716  0.15153  1.0000
  H   H1865     1.0  0.94958  0.28056  0.04691  1.0000
  H   H1866     1.0  0.97131  0.22669  0.01667  1.0000
  H   H1867     1.0  0.82445  0.16363  0.99192  1.0000
  H   H1868     1.0  0.74059  0.47034  0.03266  1.0000
  N   N104      1.0  0.87832  0.38886  0.08618  1.0000
  C   C1561     1.0  0.87816  0.36899  0.07851  1.0000
  C   C1562     1.0  0.87577  0.41245  0.07646  1.0000
  C   C1563     1.0  0.90258  0.38521  0.09063  1.0000
  C   C1564     1.0  0.85860  0.38801  0.09834  1.0000
  C   C1565     1.0  0.83956  0.40824  0.10068  1.0000
  C   C1566     1.0  0.85804  0.36633  0.10832  1.0000
  C   C1567     1.0  0.70238  0.47781  0.04277  1.0000
  C   C1568     1.0  0.98740  0.27838  0.04733  1.0000
  C   C1569     1.0  0.79460  0.47299  0.00253  1.0000
  H   H1869     1.0  0.85978  0.37031  0.07566  1.0000
  H   H1870     1.0  0.89182  0.36992  0.06888  1.0000
  H   H1871     1.0  0.88282  0.35035  0.08443  1.0000
  H   H1872     1.0  0.85818  0.41597  0.07235  1.0000
  H   H1873     1.0  0.89087  0.41237  0.06742  1.0000
  H   H1874     1.0  0.87667  0.42824  0.08136  1.0000
  H   H1875     1.0  0.90701  0.36689  0.09697  1.0000
  H   H1876     1.0  0.91782  0.38638  0.08169  1.0000
  H   H1877     1.0  0.90322  0.39939  0.09678  1.0000
  H   H1878     1.0  0.83806  0.42543  0.09364  1.0000
  H   H1879     1.0  0.87194  0.35026  0.10728  1.0000
  H   H1880     1.0  0.98432  0.29503  0.05174  1.0000
  N   N105      1.0  0.95064  0.23834  0.03543  1.0000
  C   C1570     1.0  0.73548  0.48900  0.18321  1.0000
  H   H1881     1.0  0.76318  0.43949  0.20715  1.0000
  C   C1571     1.0  0.76613  0.19213  0.06633  1.0000
  C   C1572     1.0  0.68452  0.15220  0.08673  1.0000
  C   C1573     1.0  0.84311  0.44733  0.00110  1.0000
  H   H1882     1.0  0.86272  0.26866  0.04995  1.0000
  H   H1883     1.0  0.74592  0.19874  0.06819  1.0000
  H   H1884     1.0  0.77383  0.19829  0.07418  1.0000
  H   H1885     1.0  0.76937  0.17167  0.06856  1.0000
  C   C1574     1.0  0.75943  0.16846  0.23581  1.0000
  H   H1886     1.0  0.84033  0.31069  0.05197  1.0000
  C   C1575     1.0  0.78861  0.45339  0.22344  1.0000
  H   H1887     1.0  0.74658  0.07019  0.12668  1.0000
  C   C1576     1.0  0.69683  0.46085  0.06740  1.0000
  C   C1577     1.0  0.83939  0.36485  0.11977  1.0000
  H   H1888     1.0  0.73909  0.17453  0.05457  1.0000
  H   H1889     1.0  0.72986  0.16370  0.19836  1.0000
  H   H1890     1.0  0.79356  0.14276  0.03802  1.0000
  C   C1578     1.0  0.75535  0.17284  0.02066  1.0000
  C   C1579     1.0  0.68157  0.08630  0.00711  1.0000
  C   C1580     1.0  0.75580  0.10234  0.04053  1.0000
  H   H1891     1.0  0.72778  0.15850  0.03653  1.0000
  C   C1581     1.0  0.95039  0.21264  0.04261  1.0000
  N   N106      1.0  0.78294  0.28287  0.08915  1.0000
  C   C1582     1.0  0.78527  0.30149  0.09720  1.0000
  C   C1583     1.0  0.76141  0.29208  0.08204  1.0000
  C   C1584     1.0  0.77788  0.26044  0.09909  1.0000
  C   C1585     1.0  0.80529  0.27857  0.07876  1.0000
  C   C1586     1.0  0.81856  0.25469  0.07728  1.0000
  C   C1587     1.0  0.81370  0.29858  0.06924  1.0000
  C   C1588     1.0  0.83899  0.25128  0.06696  1.0000
  C   C1589     1.0  0.83428  0.29499  0.05906  1.0000
  C   C1590     1.0  0.84690  0.27139  0.05792  1.0000
  H   H1892     1.0  0.78578  0.32001  0.09091  1.0000
  H   H1893     1.0  0.76936  0.30389  0.10567  1.0000
  H   H1894     1.0  0.80226  0.29601  0.10192  1.0000
  H   H1895     1.0  0.76290  0.31001  0.07519  1.0000
  H   H1896     1.0  0.74403  0.29489  0.08943  1.0000
  H   H1897     1.0  0.75925  0.27877  0.07572  1.0000
  H   H1898     1.0  0.79350  0.25233  0.10475  1.0000
  H   H1899     1.0  0.76125  0.26426  0.10693  1.0000
  H   H1900     1.0  0.77417  0.24616  0.09396  1.0000
  H   H1901     1.0  0.81357  0.23830  0.08396  1.0000
  H   H1902     1.0  0.80430  0.31724  0.06949  1.0000
  H   H1903     1.0  0.84874  0.23291  0.06595  1.0000
  H   H1904     1.0  0.72779  0.06879  0.18830  1.0000
  C   C1591     1.0  0.76083  0.48461  0.17858  1.0000
  H   H1905     1.0  0.79177  0.46448  0.21298  1.0000
  H   H1906     1.0  0.68488  0.45793  0.07723  1.0000
  H   H1907     1.0  0.81104  0.20005  0.06011  1.0000
  C   C1592     1.0  0.68301  0.03550  0.01208  1.0000
  C   C1593     1.0  0.73693  0.07365  0.13671  1.0000
  S   S447      1.0  0.87367  0.43189  0.00016  1.0000
  C   C1594     1.0  0.80466  0.19462  0.05154  1.0000
  C   C1595     1.0  0.68713  0.47402  0.05581  1.0000
  C   C1596     1.0  0.99268  0.14517  0.03879  1.0000
  C   C1597     1.0  0.83866  0.30490  0.99173  1.0000
  N   N107      1.0  0.77763  0.20152  0.05218  1.0000
  C   C1598     1.0  0.82094  0.38495  0.12170  1.0000
  H   H1908     1.0  0.91614  0.26708  0.00394  1.0000
  H   H1909     1.0  0.83910  0.34801  0.12716  1.0000
  H   H1910     1.0  0.71722  0.10525  0.01794  1.0000
  Fe  Fe228     1.0  0.78318  0.03553  0.23248  1.0000
  C   C1599     1.0  0.74598  0.47079  0.22425  1.0000
  H   H1911     1.0  0.82025  0.12491  0.01890  1.0000
  C   C1600     1.0  0.70813  0.10004  0.15070  1.0000
  C   C1601     1.0  0.76983  0.47236  0.16730  1.0000
  C   C1602     1.0  0.75567  0.10800  0.01242  1.0000
  H   H1912     1.0  0.70841  0.13609  0.22516  1.0000
  C   C1603     1.0  0.82674  0.44505  0.01348  1.0000
  H   H1913     1.0  0.71730  0.10889  0.12878  1.0000
  H   H1914     1.0  0.75119  0.23469  0.05002  1.0000
  C   C1604     1.0  0.72817  0.17154  0.20791  1.0000
  C   C1605     1.0  0.80261  0.45800  0.01420  1.0000
  H   H1915     1.0  0.77672  0.23667  0.05786  1.0000
  H   H1916     1.0  0.70281  0.08840  0.17213  1.0000
  H   H1917     1.0  0.78096  0.23706  0.03977  1.0000
  H   H1918     1.0  0.75012  0.47985  0.21338  1.0000
  H   H1919     1.0  0.83277  0.43362  0.02256  1.0000
  H   H1920     1.0  0.70816  0.17670  0.21152  1.0000
  C   C1606     1.0  0.77133  0.22868  0.04985  1.0000
  H   H1921     1.0  0.81048  0.17443  0.05212  1.0000
  C   C1607     1.0  0.71927  0.48171  0.17639  1.0000
  C   C1608     1.0  0.73404  0.10532  0.02166  1.0000
  C   C1609     1.0  0.74971  0.17818  0.04441  1.0000
  H   H1922     1.0  0.81515  0.20383  0.04207  1.0000
  H   H1923     1.0  0.79351  0.10988  0.00942  1.0000
  H   H1924     1.0  0.68333  0.01585  0.01391  1.0000
  C   C1610     1.0  0.77749  0.10781  0.01716  1.0000
  H   H1925     1.0  0.69096  0.48465  0.01007  1.0000
  H   H1926     1.0  0.83976  0.10683  0.03034  1.0000
  H   H1927     1.0  0.73567  0.11940  0.23118  1.0000
  H   H1928     1.0  0.79553  0.20750  0.02450  1.0000
  S   S448      1.0  0.70999  0.16752  0.08450  1.0000
  H   H1929     1.0  0.70890  0.02107  0.17368  1.0000
  C   C1611     1.0  0.78108  0.19637  0.02760  1.0000
  H   H1930     1.0  0.78229  0.12358  0.05357  1.0000
  H   H1931     1.0  0.81428  0.12481  0.04897  1.0000
  C   C1612     1.0  0.82294  0.10708  0.02598  1.0000
  C   C1613     1.0  0.69895  0.47546  0.01944  1.0000
  H   H1932     1.0  0.75485  0.10009  0.05151  1.0000
  N   N108      1.0  0.80105  0.10436  0.03682  1.0000
  H   H1933     1.0  0.82738  0.09196  0.01981  1.0000
  H   H1934     1.0  0.92433  0.27192  0.03393  1.0000
  H   H1935     1.0  0.77387  0.03139  0.16558  1.0000
  H   H1936     1.0  0.73221  0.12099  0.21369  1.0000
  C   C1614     1.0  0.72974  0.06108  0.16177  1.0000
  H   H1937     1.0  0.96778  0.20021  0.03968  1.0000
  C   C1615     1.0  0.80686  0.08073  0.04605  1.0000
  C   C1616     1.0  0.74292  0.16883  0.03409  1.0000
  C   C1617     1.0  0.72869  0.13171  0.22222  1.0000
  H   H1938     1.0  0.79250  0.07831  0.05529  1.0000
  H   H1939     1.0  0.82445  0.07944  0.04990  1.0000
  H   H1940     1.0  0.80872  0.06489  0.04062  1.0000
  C   C1618     1.0  0.72781  0.46797  0.04219  1.0000
  C   C1619     1.0  0.77431  0.18669  0.01741  1.0000
  H   H1941     1.0  0.76852  0.05775  0.17393  1.0000
  H   H1942     1.0  0.76759  0.02755  0.18380  1.0000
  C   C1620     1.0  0.95415  0.23870  0.02044  1.0000
  H   H1943     1.0  0.78372  0.19012  0.00690  1.0000
  H   H1944     1.0  0.74714  0.48418  0.23077  1.0000
  H   H1945     1.0  0.67486  0.04464  0.12752  1.0000
  C   C1621     1.0  0.71262  0.08325  0.16252  1.0000
  H   H1946     1.0  0.80661  0.42217  0.11369  1.0000
  H   H1947     1.0  0.99233  0.42611  0.01925  1.0000
  H   H1948     1.0  0.71714  0.10042  0.04282  1.0000
  H   H1949     1.0  0.95485  0.25763  0.01465  1.0000
  H   H1950     1.0  0.72925  0.44114  0.07545  1.0000
  C   C1622     1.0  0.75361  0.46511  0.16044  1.0000
  C   C1623     1.0  0.76255  0.03983  0.17431  1.0000
  H   H1951     1.0  0.69554  0.14004  0.06712  1.0000
  C   C1624     1.0  0.99076  0.41394  0.02903  1.0000
  H   H1952     1.0  0.80633  0.38370  0.13049  1.0000
  H   H1953     1.0  0.75459  0.04013  0.14706  1.0000
  H   H1954     1.0  0.77649  0.16212  0.20838  1.0000
  C   C1625     1.0  0.72897  0.01925  0.17378  1.0000
  H   H1955     1.0  0.72785  0.03751  0.19619  1.0000
  C   C1626     1.0  0.72280  0.05122  0.18718  1.0000
  C   C1627     1.0  0.68045  0.01353  0.20881  1.0000
  C   C1628     1.0  0.76648  0.14621  0.21191  1.0000
  H   H1956     1.0  0.72661  0.46765  0.22592  1.0000
  C   C1629     1.0  0.82116  0.40662  0.11224  1.0000
  H   H1957     1.0  0.70248  0.05327  0.18808  1.0000
  N   N109      1.0  0.73576  0.04329  0.17407  1.0000
  C   C1630     1.0  0.70022  0.99408  0.20931  1.0000
  H   H1958     1.0  0.80295  0.43674  0.22329  1.0000
  H   H1959     1.0  0.80686  0.32858  0.00014  1.0000
  H   H1960     1.0  0.93560  0.20454  0.04009  1.0000
  C   C1631     1.0  0.73860  0.16520  0.23074  1.0000
  H   H1961     1.0  0.96502  0.34891  0.02805  1.0000
  H   H1962     1.0  0.77387  0.41343  0.21910  1.0000
  C   C1632     1.0  0.97111  0.24802  0.03867  1.0000
  H   H1963     1.0  0.67094  0.38773  0.11682  1.0000
  H   H1964     1.0  0.66763  0.48086  0.05732  1.0000
  C   C1633     1.0  0.76039  0.43076  0.21818  1.0000
  S   S449      1.0  0.86675  0.12493  0.99620  1.0000
  H   H1965     1.0  0.82530  0.36550  0.99326  1.0000
  H   H1966     1.0  0.79088  0.40624  0.23961  1.0000
  H   H1967     1.0  0.75469  0.48879  0.07270  1.0000
  H   H1968     1.0  0.67522  0.36116  0.10919  1.0000
  H   H1969     1.0  0.96432  0.31170  0.01859  1.0000
  H   H1970     1.0  0.77805  0.16302  0.23092  1.0000
  H   H1971     1.0  0.69966  0.48530  0.17997  1.0000
  H   H1972     1.0  0.66855  0.16152  0.10663  1.0000
  H   H1973     1.0  0.83028  0.28845  0.99509  1.0000
  S   S450      1.0  0.76446  0.48948  0.00412  1.0000
  C   C1634     1.0  0.71511  0.17267  0.23834  1.0000
  H   H1974     1.0  0.99097  0.13189  0.04815  1.0000
  H   H1975     1.0  0.66467  0.01896  0.12419  1.0000
  C   C1635     1.0  0.83897  0.12572  0.99044  1.0000
  H   H1976     1.0  0.66412  0.00834  0.08414  1.0000
  S   S451      1.0  0.72058  0.02739  0.99060  1.0000
  C   C1636     1.0  0.66435  0.07593  0.01754  1.0000
  H   H1977     1.0  0.69447  0.13763  0.42462  1.0000
  H   H1978     1.0  0.74468  0.39607  0.37728  1.0000
  H   H1979     1.0  0.72116  0.44015  0.27264  1.0000
  C   C1637     1.0  0.95922  0.00453  0.31338  1.0000
  H   H1980     1.0  0.70344  0.23535  0.44206  1.0000
  C   C1638     1.0  0.73433  0.09997  0.40267  1.0000
  C   C1639     1.0  0.70182  0.30345  0.33347  1.0000
  C   C1640     1.0  0.98097  0.02975  0.37280  1.0000
  Fe  Fe229     1.0  0.75860  0.05854  0.46267  1.0000
  S   S452      1.0  0.74400  0.08612  0.47698  1.0000
  S   S453      1.0  0.79014  0.06949  0.44616  1.0000
  H   H1981     1.0  0.76722  0.10653  0.38853  1.0000
  Fe  Fe230     1.0  0.70689  0.07946  0.47507  1.0000
  H   H1982     1.0  0.69108  0.35250  0.32099  1.0000
  H   H1983     1.0  0.77122  0.40782  0.37829  1.0000
  S   S454      1.0  0.72124  0.05399  0.45967  1.0000
  S   S455      1.0  0.92018  0.02956  0.34951  1.0000
  Fe  Fe231     1.0  0.86401  0.02490  0.37899  1.0000
  S   S456      1.0  0.88481  0.05673  0.37463  1.0000
  S   S457      1.0  0.95329  0.02033  0.38177  1.0000
  Fe  Fe232     1.0  0.88432  0.05541  0.35245  1.0000
  S   S458      1.0  0.87695  0.08656  0.33519  1.0000
  Fe  Fe233     1.0  0.91907  0.02815  0.37196  1.0000
  H   H1984     1.0  0.94611  0.44804  0.42166  1.0000
  S   S459      1.0  0.86105  0.02582  0.35697  1.0000
  C   C1641     1.0  0.68065  0.19885  0.44688  1.0000
  C   C1642     1.0  0.67302  0.28977  0.45027  1.0000
  S   S460      1.0  0.71365  0.09127  0.25543  1.0000
  Fe  Fe234     1.0  0.75946  0.17621  0.32937  1.0000
  S   S461      1.0  0.73716  0.15456  0.32187  1.0000
  S   S462      1.0  0.77718  0.15867  0.34779  1.0000
  Fe  Fe235     1.0  0.74516  0.22285  0.30975  1.0000
  S   S463      1.0  0.72109  0.20507  0.30047  1.0000
  S   S464      1.0  0.75082  0.26232  0.30172  1.0000
  Fe  Fe236     1.0  0.70845  0.18839  0.32232  1.0000
  H   H1985     1.0  0.72077  0.05752  0.28997  1.0000
  Fe  Fe237     1.0  0.75166  0.17260  0.30078  1.0000
  S   S465      1.0  0.76949  0.15039  0.28388  1.0000
  S   S466      1.0  0.72973  0.20883  0.33152  1.0000
  S   S467      1.0  0.77688  0.19163  0.30827  1.0000
  Fe  Fe238     1.0  0.73298  0.41745  0.33229  1.0000
  S   S468      1.0  0.75663  0.39433  0.34691  1.0000
  S   S469      1.0  0.69227  0.41949  0.33937  1.0000
  Fe  Fe239     1.0  0.77629  0.42349  0.30968  1.0000
  S   S470      1.0  0.80346  0.39981  0.32257  1.0000
  S   S471      1.0  0.79154  0.43865  0.28789  1.0000
  Fe  Fe240     1.0  0.77506  0.37482  0.32935  1.0000
  S   S472      1.0  0.78085  0.33324  0.33518  1.0000
  Fe  Fe241     1.0  0.78262  0.42144  0.33890  1.0000
  S   S473      1.0  0.79943  0.43285  0.35488  1.0000
  S   S474      1.0  0.74987  0.39651  0.31504  1.0000
  S   S475      1.0  0.75703  0.44666  0.32569  1.0000
  C   C1643     1.0  0.98200  0.99776  0.30537  1.0000
  C   C1644     1.0  0.68101  0.43226  0.35436  1.0000
  H   H1986     1.0  0.94814  0.06625  0.39798  1.0000
  C   C1645     1.0  0.85358  0.48786  0.34315  1.0000
  H   H1987     1.0  0.66655  0.12981  0.37593  1.0000
  H   H1988     1.0  0.78588  0.38761  0.26382  1.0000
  C   C1646     1.0  0.70305  0.35498  0.32800  1.0000
  S   S476      1.0  0.67366  0.10953  0.47414  1.0000
  H   H1989     1.0  0.69870  0.09709  0.41480  1.0000
  H   H1990     1.0  0.76522  0.09666  0.25225  1.0000
  C   C1647     1.0  0.77374  0.46204  0.27792  1.0000
  C   C1648     1.0  0.96710  0.06493  0.39925  1.0000
  H   H1991     1.0  0.99599  0.00867  0.30495  1.0000
  C   C1649     1.0  0.79918  0.02390  0.41820  1.0000
  H   H1992     1.0  0.80456  0.08097  0.28006  1.0000
  C   C1650     1.0  0.74934  0.47158  0.28279  1.0000
  C   C1651     1.0  0.68784  0.24819  0.44583  1.0000
  C   C1652     1.0  0.98481  0.48493  0.42398  1.0000
  N   N110      1.0  0.69481  0.15206  0.37363  1.0000
  H   H1993     1.0  0.74093  0.46479  0.29310  1.0000
  C   C1653     1.0  0.70677  0.49075  0.45526  1.0000
  C   C1654     1.0  0.71074  0.16486  0.36196  1.0000
  H   H1994     1.0  0.67664  0.46693  0.43588  1.0000
  H   H1995     1.0  0.83136  0.06016  0.46024  1.0000
  H   H1996     1.0  0.72286  0.46322  0.37703  1.0000
  C   C1655     1.0  0.82848  0.04713  0.27799  1.0000
  C   C1656     1.0  0.66732  0.12490  0.45792  1.0000
  H   H1997     1.0  0.69697  0.46514  0.34686  1.0000
  C   C1657     1.0  0.70878  0.10571  0.40533  1.0000
  C   C1658     1.0  0.75782  0.28219  0.31145  1.0000
  C   C1659     1.0  0.76100  0.30621  0.30514  1.0000
  C   C1660     1.0  0.76734  0.32232  0.31241  1.0000
  C   C1661     1.0  0.77085  0.31438  0.32603  1.0000
  C   C1662     1.0  0.76730  0.29050  0.33242  1.0000
  C   C1663     1.0  0.76051  0.27457  0.32521  1.0000
  H   H1998     1.0  0.75881  0.31230  0.29451  1.0000
  H   H1999     1.0  0.77019  0.34062  0.30737  1.0000
  H   H2000     1.0  0.76979  0.28432  0.34299  1.0000
  H   H2001     1.0  0.75709  0.25653  0.33034  1.0000
  C   C1664     1.0  0.72923  0.10764  0.26340  1.0000
  C   C1665     1.0  0.71597  0.12121  0.27358  1.0000
  C   C1666     1.0  0.72798  0.13431  0.28007  1.0000
  C   C1667     1.0  0.75334  0.13403  0.27634  1.0000
  C   C1668     1.0  0.76659  0.12032  0.26628  1.0000
  C   C1669     1.0  0.75464  0.10718  0.25987  1.0000
  H   H2002     1.0  0.69632  0.12167  0.27642  1.0000
  H   H2003     1.0  0.71755  0.14483  0.28783  1.0000
  H   H2004     1.0  0.78620  0.12005  0.26330  1.0000
  H   H2005     1.0  0.85818  0.47870  0.36433  1.0000
  C   C1670     1.0  0.84938  0.10670  0.33884  1.0000
  C   C1671     1.0  0.83569  0.10481  0.35206  1.0000
  C   C1672     1.0  0.81358  0.12100  0.35477  1.0000
  C   C1673     1.0  0.80482  0.13862  0.34419  1.0000
  C   C1674     1.0  0.81832  0.14028  0.33091  1.0000
  C   C1675     1.0  0.84078  0.12457  0.32829  1.0000
  H   H2006     1.0  0.84222  0.09103  0.36024  1.0000
  H   H2007     1.0  0.80317  0.11969  0.36505  1.0000
  H   H2008     1.0  0.81161  0.15377  0.32271  1.0000
  H   H2009     1.0  0.85140  0.12602  0.31806  1.0000
  H   H2010     1.0  0.68149  0.31336  0.36648  1.0000
  C   C1676     1.0  0.71263  0.18254  0.25031  1.0000
  H   H2011     1.0  0.71163  0.40734  0.40237  1.0000
  C   C1677     1.0  0.82481  0.10052  0.48233  1.0000
  C   C1678     1.0  0.81817  0.10919  0.45859  1.0000
  H   H2012     1.0  0.72808  0.43881  0.36713  1.0000
  H   H2013     1.0  0.83558  0.05399  0.47785  1.0000
  H   H2014     1.0  0.73014  0.33908  0.34845  1.0000
  C   C1679     1.0  0.83489  0.04471  0.30505  1.0000
  C   C1680     1.0  0.70875  0.13466  0.38358  1.0000
  C   C1681     1.0  0.80101  0.05436  0.43183  1.0000
  C   C1682     1.0  0.82127  0.06148  0.42232  1.0000
  C   C1683     1.0  0.83053  0.04979  0.41081  1.0000
  H   H2015     1.0  0.82984  0.07608  0.42386  1.0000
  H   H2016     1.0  0.84616  0.05538  0.40356  1.0000
  H   H2017     1.0  0.75140  0.40449  0.28043  1.0000
  H   H2018     1.0  0.66876  0.18610  0.37310  1.0000
  C   C1684     1.0  0.82526  0.46616  0.33656  1.0000
  C   C1685     1.0  0.82047  0.45383  0.35003  1.0000
  C   C1686     1.0  0.83235  0.45852  0.36003  1.0000
  C   C1687     1.0  0.84229  0.10357  0.49006  1.0000
  H   H2019     1.0  0.95627  0.02006  0.31874  1.0000
  H   H2020     1.0  0.81625  0.46262  0.32878  1.0000
  H   H2021     1.0  0.82889  0.44892  0.37045  1.0000
  C   C1688     1.0  0.98132  0.04838  0.36134  1.0000
  H   H2022     1.0  0.79053  0.00934  0.41665  1.0000
  C   C1689     1.0  0.67849  0.46491  0.46959  1.0000
  H   H2023     1.0  0.86438  0.10925  0.46222  1.0000
  C   C1690     1.0  0.68205  0.47053  0.44492  1.0000
  C   C1691     1.0  0.75288  0.04064  0.27769  1.0000
  C   C1692     1.0  0.76962  0.99782  0.28625  1.0000
  C   C1693     1.0  0.68727  0.27879  0.35987  1.0000
  C   C1694     1.0  0.73611  0.43270  0.26524  1.0000
  H   H2024     1.0  0.80293  0.06478  0.32696  1.0000
  H   H2025     1.0  0.86187  0.10002  0.48658  1.0000
  H   H2026     1.0  0.71901  0.02079  0.30814  1.0000
  H   H2027     1.0  0.78393  0.02008  0.26711  1.0000
  C   C1695     1.0  0.81951  0.03093  0.40872  1.0000
  H   H2028     1.0  0.75338  0.05660  0.26968  1.0000
  H   H2029     1.0  0.69259  0.12346  0.36284  1.0000
  H   H2030     1.0  0.71638  0.43702  0.41436  1.0000
  H   H2031     1.0  0.79981  0.09720  0.32633  1.0000
  H   H2032     1.0  0.97706  0.08651  0.37957  1.0000
  C   C1696     1.0  0.71112  0.34917  0.35096  1.0000
  S   S477      1.0  0.89820  0.99660  0.37818  1.0000
  H   H2033     1.0  0.95314  0.46081  0.39634  1.0000
  H   H2034     1.0  0.77434  0.02992  0.43700  1.0000
  H   H2035     1.0  0.85408  0.01321  0.27827  1.0000
  H   H2036     1.0  0.67175  0.23201  0.33222  1.0000
  N   N111      1.0  0.73686  0.42761  0.38756  1.0000
  C   C1697     1.0  0.73526  0.44592  0.37485  1.0000
  H   H2037     1.0  0.82406  0.10413  0.44816  1.0000
  H   H2038     1.0  0.71041  0.27652  0.44214  1.0000
  C   C1698     1.0  0.74755  0.43733  0.39727  1.0000
  C   C1699     1.0  0.73485  0.44080  0.41061  1.0000
  C   C1700     1.0  0.77170  0.44319  0.39357  1.0000
  C   C1701     1.0  0.74597  0.44914  0.41967  1.0000
  C   C1702     1.0  0.78259  0.45157  0.40270  1.0000
  C   C1703     1.0  0.76979  0.45443  0.41574  1.0000
  H   H2039     1.0  0.80333  0.46371  0.26078  1.0000
  H   H2040     1.0  0.72558  0.46022  0.24900  1.0000
  Fe  Fe242     1.0  0.89686  0.00003  0.35592  1.0000
  H   H2041     1.0  0.69453  0.24622  0.35066  1.0000
  H   H2042     1.0  0.83846  0.04266  0.31539  1.0000
  H   H2043     1.0  0.66435  0.30396  0.41214  1.0000
  H   H2044     1.0  0.69853  0.43843  0.39561  1.0000
  H   H2045     1.0  0.70260  0.37516  0.32687  1.0000
  H   H2046     1.0  0.86315  0.08565  0.45287  1.0000
  H   H2047     1.0  0.80114  0.45570  0.39965  1.0000
  H   H2048     1.0  0.78246  0.44110  0.38359  1.0000
  H   H2049     1.0  0.84774  0.48974  0.43334  1.0000
  C   C1704     1.0  0.73561  0.48955  0.27413  1.0000
  C   C1705     1.0  0.69612  0.12281  0.39598  1.0000
  H   H2050     1.0  0.67016  0.15057  0.36005  1.0000
  C   C1706     1.0  0.79968  0.10469  0.48845  1.0000
  H   H2051     1.0  0.95473  0.49266  0.38912  1.0000
  H   H2052     1.0  0.96252  0.04229  0.41905  1.0000
  H   H2053     1.0  0.70421  0.41479  0.38546  1.0000
  C   C1707     1.0  0.78996  0.03553  0.42974  1.0000
  H   H2054     1.0  0.75559  0.39089  0.39338  1.0000
  H   H2055     1.0  0.77842  0.46055  0.42287  1.0000
  C   C1708     1.0  0.97531  0.05127  0.41106  1.0000
  C   C1709     1.0  0.75278  0.40463  0.38401  1.0000
  C   C1710     1.0  0.66392  0.24186  0.45031  1.0000
  H   H2056     1.0  0.67630  0.12673  0.39859  1.0000
  C   C1711     1.0  0.93797  0.46756  0.42229  1.0000
  H   H2057     1.0  0.97150  0.49100  0.43243  1.0000
  C   C1712     1.0  0.71177  0.42180  0.39307  1.0000
  C   C1713     1.0  0.66621  0.41971  0.36526  1.0000
  H   H2058     1.0  0.69966  0.17835  0.35493  1.0000
  H   H2059     1.0  0.80588  0.06700  0.47329  1.0000
  H   H2060     1.0  0.69295  0.19662  0.45459  1.0000
  H   H2061     1.0  0.72241  0.34697  0.32435  1.0000
  C   C1714     1.0  0.68582  0.45524  0.35533  1.0000
  H   H2062     1.0  0.68720  0.17995  0.38648  1.0000
  H   H2063     1.0  0.82613  0.04806  0.26744  1.0000
  H   H2064     1.0  0.81745  0.99521  0.27415  1.0000
  C   C1715     1.0  0.78445  0.47098  0.26458  1.0000
  H   H2065     1.0  0.77276  0.18015  0.25175  1.0000
  C   C1716     1.0  0.94615  0.48011  0.39795  1.0000
  H   H2066     1.0  0.75342  0.45080  0.36970  1.0000
  C   C1717     1.0  0.75670  0.17846  0.24778  1.0000
  C   C1718     1.0  0.68020  0.13765  0.43353  1.0000
  H   H2067     1.0  0.96440  0.05682  0.35754  1.0000
  H   H2068     1.0  0.67038  0.45668  0.47968  1.0000
  H   H2069     1.0  0.71229  0.36909  0.34927  1.0000
  H   H2070     1.0  0.73148  0.19246  0.26451  1.0000
  C   C1719     1.0  0.73446  0.04110  0.28912  1.0000
  C   C1720     1.0  0.75309  0.41254  0.26966  1.0000
  S   S478      1.0  0.76202  0.02627  0.47982  1.0000
  H   H2071     1.0  0.82068  0.12851  0.45798  1.0000
  H   H2072     1.0  0.85645  0.99543  0.25569  1.0000
  N   N112      1.0  0.83194  0.09224  0.46882  1.0000
  C   C1721     1.0  0.97726  0.48038  0.41221  1.0000
  C   C1722     1.0  0.84177  0.48312  0.33314  1.0000
  C   C1723     1.0  0.73483  0.12816  0.38111  1.0000
  S   S479      1.0  0.74636  0.02774  0.24388  1.0000
  H   H2073     1.0  0.85933  0.01065  0.30231  1.0000
  N   N113      1.0  0.82700  0.21961  0.32767  1.0000
  C   C1724     1.0  0.80040  0.21837  0.33035  1.0000
  C   C1725     1.0  0.83885  0.20747  0.31566  1.0000
  C   C1726     1.0  0.83763  0.20511  0.33976  1.0000
  C   C1727     1.0  0.83017  0.24574  0.32480  1.0000
  C   C1728     1.0  0.83915  0.25678  0.33393  1.0000
  C   C1729     1.0  0.82294  0.26134  0.31286  1.0000
  C   C1730     1.0  0.84071  0.28184  0.33120  1.0000
  C   C1731     1.0  0.82490  0.28627  0.31015  1.0000
  C   C1732     1.0  0.83361  0.29653  0.31934  1.0000
  H   H2074     1.0  0.79080  0.22730  0.33930  1.0000
  H   H2075     1.0  0.79129  0.22771  0.32142  1.0000
  H   H2076     1.0  0.79705  0.19908  0.33261  1.0000
  H   H2077     1.0  0.82950  0.21473  0.30660  1.0000
  H   H2078     1.0  0.83834  0.18736  0.31789  1.0000
  H   H2079     1.0  0.85846  0.20992  0.31257  1.0000
  H   H2080     1.0  0.82813  0.21183  0.34942  1.0000
  H   H2081     1.0  0.83544  0.18539  0.34137  1.0000
  H   H2082     1.0  0.85767  0.20556  0.33850  1.0000
  H   H2083     1.0  0.84464  0.24662  0.34340  1.0000
  H   H2084     1.0  0.81478  0.25467  0.30575  1.0000
  H   H2085     1.0  0.84688  0.29017  0.33845  1.0000
  H   H2086     1.0  0.81860  0.29796  0.30118  1.0000
  H   H2087     1.0  0.83403  0.31612  0.31752  1.0000
  N   N114      1.0  0.69463  0.34404  0.34243  1.0000
  H   H2088     1.0  0.67881  0.48382  0.36772  1.0000
  H   H2089     1.0  0.69455  0.18752  0.25615  1.0000
  H   H2090     1.0  0.79810  0.10858  0.46096  1.0000
  H   H2091     1.0  0.93890  0.47087  0.43266  1.0000
  H   H2092     1.0  0.73610  0.45123  0.42988  1.0000
  H   H2093     1.0  0.92237  0.99696  0.32060  1.0000
  Fe  Fe243     1.0  0.72306  0.02412  0.47823  1.0000
  H   H2094     1.0  0.74411  0.08687  0.41002  1.0000
  C   C1733     1.0  0.75904  0.43539  0.24171  1.0000
  C   C1734     1.0  0.67142  0.45994  0.45793  1.0000
  C   C1735     1.0  0.98345  0.07630  0.38886  1.0000
  H   H2095     1.0  0.70481  0.34386  0.36211  1.0000
  C   C1736     1.0  0.74731  0.11113  0.39058  1.0000
  H   H2096     1.0  0.74609  0.13596  0.37194  1.0000
  C   C1737     1.0  0.82595  0.06730  0.47014  1.0000
  C   C1738     1.0  0.69217  0.27186  0.44582  1.0000
  H   H2097     1.0  0.91802  0.46992  0.42163  1.0000
  C   C1739     1.0  0.69959  0.48591  0.44361  1.0000
  C   C1740     1.0  0.77025  0.01946  0.27627  1.0000
  C   C1741     1.0  0.69476  0.31722  0.34442  1.0000
  H   H2098     1.0  0.70350  0.11364  0.44703  1.0000
  C   C1742     1.0  0.84887  0.47544  0.35661  1.0000
  H   H2099     1.0  0.72273  0.15182  0.35549  1.0000
  C   C1743     1.0  0.84417  0.02745  0.28407  1.0000
  C   C1744     1.0  0.69462  0.26582  0.34894  1.0000
  C   C1745     1.0  0.73349  0.02036  0.29928  1.0000
  S   S480      1.0  0.67094  0.18046  0.33254  1.0000
  C   C1746     1.0  0.85858  0.09109  0.46324  1.0000
  H   H2100     1.0  0.87005  0.07706  0.46983  1.0000
  C   C1747     1.0  0.84718  0.02611  0.29760  1.0000
  C   C1748     1.0  0.68540  0.12420  0.44623  1.0000
  C   C1749     1.0  0.67759  0.17127  0.38053  1.0000
  N   N115      1.0  0.80633  0.08577  0.30647  1.0000
  C   C1750     1.0  0.81594  0.10857  0.29949  1.0000
  C   C1751     1.0  0.77945  0.08972  0.30638  1.0000
  C   C1752     1.0  0.80986  0.08163  0.32103  1.0000
  C   C1753     1.0  0.81896  0.06525  0.29910  1.0000
  C   C1754     1.0  0.81611  0.06582  0.28534  1.0000
  H   H2101     1.0  0.72255  0.17514  0.36556  1.0000
  H   H2102     1.0  0.81276  0.11378  0.28867  1.0000
  H   H2103     1.0  0.80674  0.12458  0.30462  1.0000
  H   H2104     1.0  0.83609  0.10646  0.29938  1.0000
  H   H2105     1.0  0.77484  0.09575  0.29589  1.0000
  H   H2106     1.0  0.76936  0.10456  0.31222  1.0000
  H   H2107     1.0  0.77164  0.07266  0.31092  1.0000
  H   H2108     1.0  0.82957  0.08011  0.32193  1.0000
  S   S481      1.0  0.83051  0.01577  0.39440  1.0000
  S   S482      1.0  0.66466  0.41875  0.42350  1.0000
  C   C1755     1.0  0.73339  0.18541  0.25502  1.0000
  H   H2109     1.0  0.70170  0.48355  0.47733  1.0000
  H   H2110     1.0  0.70790  0.31164  0.32302  1.0000
  C   C1756     1.0  0.70155  0.27816  0.33576  1.0000
  H   H2111     1.0  0.70700  0.26805  0.32723  1.0000
  C   C1757     1.0  0.69617  0.48018  0.46828  1.0000
  C   C1758     1.0  0.67547  0.46582  0.36710  1.0000
  H   H2112     1.0  0.78544  0.10184  0.48347  1.0000
  C   C1759     1.0  0.75077  0.99895  0.29794  1.0000
  C   C1760     1.0  0.68039  0.13835  0.36790  1.0000
  C   C1761     1.0  0.68735  0.30410  0.35769  1.0000
  C   C1762     1.0  0.73896  0.44412  0.25151  1.0000
  C   C1763     1.0  0.66931  0.35678  0.34664  1.0000
  H   H2113     1.0  0.67628  0.30829  0.44991  1.0000
  C   C1764     1.0  0.77093  0.48918  0.25610  1.0000
  H   H2114     1.0  0.69110  0.20347  0.43638  1.0000
  C   C1765     1.0  0.77261  0.40319  0.26027  1.0000
  N   N116      1.0  0.95079  0.48442  0.41121  1.0000
  S   S483      1.0  0.81720  0.02293  0.24232  1.0000
  H   H2115     1.0  0.92616  0.48335  0.39751  1.0000
  C   C1766     1.0  0.77544  0.41419  0.24647  1.0000
  H   H2116     1.0  0.67588  0.18039  0.44731  1.0000
  H   H2117     1.0  0.68122  0.26919  0.37005  1.0000
  H   H2118     1.0  0.66825  0.37714  0.34461  1.0000
  H   H2119     1.0  0.99245  0.46876  0.39218  1.0000
  C   C1767     1.0  0.99618  0.47228  0.40165  1.0000
  S   S484      1.0  0.91168  0.49303  0.37037  1.0000
  H   H2120     1.0  0.84546  0.49253  0.32269  1.0000
  Fe  Fe244     1.0  0.73255  0.07752  0.70309  1.0000
  S   S485      1.0  0.76700  0.06193  0.71195  1.0000
  S   S486      1.0  0.70907  0.11455  0.70511  1.0000
  Fe  Fe245     1.0  0.73392  0.03182  0.69046  1.0000
  H   H2121     1.0  0.77321  0.11361  0.50609  1.0000
  Fe  Fe246     1.0  0.75121  0.02681  0.71810  1.0000
  Fe  Fe247     1.0  0.78131  0.04858  0.69181  1.0000
  S   S487      1.0  0.81916  0.05156  0.67957  1.0000
  S   S488      1.0  0.71574  0.04359  0.71051  1.0000
  S   S489      1.0  0.74822  0.06733  0.68233  1.0000
  C   C1768     1.0  0.98252  0.30687  0.63942  1.0000
  H   H2122     1.0  0.91140  0.14336  0.68127  1.0000
  H   H2123     1.0  0.87904  0.46337  0.72081  1.0000
  C   C1769     1.0  0.67332  0.13659  0.72363  1.0000
  Fe  Fe248     1.0  0.88084  0.16678  0.65181  1.0000
  S   S490      1.0  0.91339  0.13725  0.64826  1.0000
  S   S491      1.0  0.84363  0.15978  0.66365  1.0000
  Fe  Fe249     1.0  0.90990  0.20776  0.63787  1.0000
  S   S492      1.0  0.94485  0.18146  0.63314  1.0000
  S   S493      1.0  0.90892  0.24851  0.63048  1.0000
  Fe  Fe250     1.0  0.92086  0.15918  0.62726  1.0000
  S   S494      1.0  0.93661  0.13777  0.61003  1.0000
  Fe  Fe251     1.0  0.93441  0.16191  0.65446  1.0000
  S   S495      1.0  0.96298  0.14475  0.66778  1.0000
  S   S496      1.0  0.88649  0.18698  0.63012  1.0000
  S   S497      1.0  0.90134  0.18989  0.65985  1.0000
  Fe  Fe252     1.0  0.89272  0.40342  0.67371  1.0000
  S   S498      1.0  0.89845  0.38444  0.65535  1.0000
  S   S499      1.0  0.85420  0.41906  0.68313  1.0000
  Fe  Fe253     1.0  0.94681  0.38971  0.67692  1.0000
  S   S500      1.0  0.95688  0.37030  0.65884  1.0000
  S   S501      1.0  0.97575  0.38561  0.69009  1.0000
  Fe  Fe254     1.0  0.93226  0.40241  0.64886  1.0000
  S   S502      1.0  0.94698  0.42060  0.62770  1.0000
  Fe  Fe255     1.0  0.92254  0.35409  0.66704  1.0000
  S   S503      1.0  0.92559  0.31275  0.67182  1.0000
  S   S504      1.0  0.92495  0.42347  0.66641  1.0000
  S   S505      1.0  0.91396  0.37153  0.68593  1.0000
  S   S506      1.0  0.75393  0.05090  0.51505  1.0000
  Fe  Fe256     1.0  0.92128  0.04358  0.55525  1.0000
  S   S507      1.0  0.89678  0.07773  0.54715  1.0000
  S   S508      1.0  0.96204  0.04147  0.54714  1.0000
  Fe  Fe257     1.0  0.87755  0.01999  0.57145  1.0000
  S   S509      1.0  0.84972  0.05241  0.56469  1.0000
  H   H2124     1.0  0.99301  0.08626  0.58600  1.0000
  Fe  Fe258     1.0  0.87311  0.05225  0.54386  1.0000
  S   S510      1.0  0.86193  0.05534  0.52308  1.0000
  Fe  Fe259     1.0  0.87601  0.07462  0.56866  1.0000
  S   S511      1.0  0.86205  0.10753  0.57939  1.0000
  S   S512      1.0  0.89923  0.01815  0.55038  1.0000
  S   S513      1.0  0.90206  0.04216  0.57706  1.0000
  H   H2125     1.0  0.67403  0.01425  0.49807  1.0000
  C   C1770     1.0  0.82508  0.45171  0.54878  1.0000
  C   C1771     1.0  0.69263  0.11693  0.72168  1.0000
  C   C1772     1.0  0.69881  0.09961  0.73298  1.0000
  C   C1773     1.0  0.99159  0.25233  0.69545  1.0000
  C   C1774     1.0  0.83621  0.09616  0.70596  1.0000
  H   H2126     1.0  0.95575  0.03617  0.57679  1.0000
  C   C1775     1.0  0.78395  0.05236  0.51717  1.0000
  C   C1776     1.0  0.78795  0.05676  0.52972  1.0000
  C   C1777     1.0  0.81184  0.05728  0.53182  1.0000
  C   C1778     1.0  0.83182  0.05359  0.52131  1.0000
  C   C1779     1.0  0.82783  0.04882  0.50885  1.0000
  C   C1780     1.0  0.80398  0.04814  0.50679  1.0000
  H   H2127     1.0  0.77252  0.05984  0.53785  1.0000
  H   H2128     1.0  0.81476  0.06091  0.54147  1.0000
  H   H2129     1.0  0.97920  0.29844  0.66926  1.0000
  H   H2130     1.0  0.80450  0.11867  0.51900  1.0000
  H   H2131     1.0  0.69107  0.00505  0.65707  1.0000
  H   H2132     1.0  0.97422  0.43413  0.67323  1.0000
  C   C1781     1.0  0.91510  0.12876  0.60236  1.0000
  C   C1782     1.0  0.89197  0.14316  0.60152  1.0000
  C   C1783     1.0  0.87582  0.13654  0.59441  1.0000
  C   C1784     1.0  0.88260  0.11537  0.58827  1.0000
  C   C1785     1.0  0.90546  0.10069  0.58945  1.0000
  C   C1786     1.0  0.92169  0.10740  0.59643  1.0000
  H   H2133     1.0  0.88684  0.15980  0.60596  1.0000
  H   H2134     1.0  0.85816  0.14802  0.59349  1.0000
  H   H2135     1.0  0.91106  0.08457  0.58463  1.0000
  H   H2136     1.0  0.93953  0.09616  0.59699  1.0000
  C   C1787     1.0  0.91311  0.26639  0.64207  1.0000
  C   C1788     1.0  0.91942  0.25534  0.65486  1.0000
  C   C1789     1.0  0.92291  0.26986  0.66391  1.0000
  C   C1790     1.0  0.92032  0.29550  0.66021  1.0000
  C   C1791     1.0  0.91416  0.30662  0.64739  1.0000
  C   C1792     1.0  0.91055  0.29206  0.63834  1.0000
  H   H2137     1.0  0.92158  0.23562  0.65779  1.0000
  H   H2138     1.0  0.92747  0.26114  0.67386  1.0000
  H   H2139     1.0  0.91208  0.32639  0.64447  1.0000
  H   H2140     1.0  0.90569  0.30068  0.62844  1.0000
  C   C1793     1.0  0.88226  0.45336  0.61531  1.0000
  H   H2141     1.0  0.77253  0.11965  0.65808  1.0000
  C   C1794     1.0  0.89585  0.41509  0.73466  1.0000
  C   C1795     1.0  0.81265  0.46135  0.52642  1.0000
  C   C1796     1.0  0.81656  0.00491  0.64856  1.0000
  H   H2142     1.0  0.75958  0.20952  0.71835  1.0000
  H   H2143     1.0  0.95615  0.19762  0.66081  1.0000
  C   C1797     1.0  0.71619  0.16388  0.73791  1.0000
  C   C1798     1.0  0.77320  0.02092  0.65245  1.0000
  H   H2144     1.0  0.91300  0.12680  0.55503  1.0000
  C   C1799     1.0  0.92477  0.43900  0.61839  1.0000
  C   C1800     1.0  0.89967  0.43865  0.62301  1.0000
  H   H2145     1.0  0.88297  0.48124  0.63642  1.0000
  H   H2146     1.0  0.90697  0.45247  0.55118  1.0000
  H   H2147     1.0  0.87713  0.39727  0.71643  1.0000
  H   H2148     1.0  0.89367  0.42688  0.63243  1.0000
  H   H2149     1.0  0.95191  0.15964  0.57680  1.0000
  H   H2150     1.0  0.85902  0.48882  0.55591  1.0000
  C   C1801     1.0  0.93781  0.44155  0.70662  1.0000
  H   H2151     1.0  0.87805  0.07038  0.62320  1.0000
  C   C1802     1.0  0.86482  0.46260  0.68735  1.0000
  C   C1803     1.0  0.84800  0.44625  0.69022  1.0000
  C   C1804     1.0  0.82569  0.45146  0.69904  1.0000
  N   N117      1.0  0.86839  0.45175  0.55191  1.0000
  H   H2152     1.0  0.88197  0.45887  0.68047  1.0000
  H   H2153     1.0  0.81263  0.43884  0.70131  1.0000
  H   H2154     1.0  0.96323  0.27975  0.63599  1.0000
  H   H2155     1.0  0.79758  0.08518  0.64839  1.0000
  H   H2156     1.0  0.87238  0.10271  0.62012  1.0000
  H   H2157     1.0  0.86288  0.45288  0.61885  1.0000
  H   H2158     1.0  0.79535  0.02121  0.60737  1.0000
  C   C1805     1.0  0.98958  0.20810  0.66343  1.0000
  C   C1806     1.0  0.85936  0.48394  0.69336  1.0000
  H   H2159     1.0  0.86711  0.03807  0.71213  1.0000
  C   C1807     1.0  0.67113  0.99542  0.49997  1.0000
  H   H2160     1.0  0.80329  0.47632  0.71213  1.0000
  C   C1808     1.0  0.82592  0.08162  0.67526  1.0000
  C   C1809     1.0  0.84857  0.08583  0.66727  1.0000
  C   C1810     1.0  0.85408  0.10979  0.66349  1.0000
  C   C1811     1.0  0.83715  0.12956  0.66790  1.0000
  C   C1812     1.0  0.81459  0.12529  0.67600  1.0000
  C   C1813     1.0  0.80888  0.10140  0.67957  1.0000
  H   H2161     1.0  0.86178  0.07053  0.66395  1.0000
  H   H2162     1.0  0.87128  0.11297  0.65708  1.0000
  H   H2163     1.0  0.80139  0.14053  0.67940  1.0000
  H   H2164     1.0  0.79134  0.09830  0.68570  1.0000
  C   C1814     1.0  0.79397  0.14633  0.64595  1.0000
  Fe  Fe260     1.0  0.74463  0.05343  0.49386  1.0000
  C   C1815     1.0  0.96438  0.29062  0.69652  1.0000
  C   C1816     1.0  0.86413  0.05781  0.70882  1.0000
  H   H2165     1.0  0.67472  0.09482  0.67627  1.0000
  H   H2166     1.0  0.79658  0.99871  0.51545  1.0000
  C   C1817     1.0  0.97418  0.19117  0.66365  1.0000
  C   C1818     1.0  0.93238  0.45425  0.60613  1.0000
  C   C1819     1.0  0.95235  0.14497  0.57126  1.0000
  C   C1820     1.0  0.87073  0.42652  0.55995  1.0000
  H   H2167     1.0  0.84335  0.04562  0.50082  1.0000
  C   C1821     1.0  0.83646  0.46489  0.52039  1.0000
  H   H2168     1.0  0.82170  0.99740  0.60857  1.0000
  C   C1822     1.0  0.85471  0.46201  0.52847  1.0000
  H   H2169     1.0  0.98409  0.09035  0.56270  1.0000
  C   C1823     1.0  0.86569  0.48834  0.64238  1.0000
  H   H2170     1.0  0.83685  0.05857  0.64588  1.0000
  H   H2171     1.0  0.94874  0.28071  0.69719  1.0000
  H   H2172     1.0  0.81588  0.05847  0.63439  1.0000
  N   N118      1.0  0.90190  0.10810  0.69153  1.0000
  C   C1824     1.0  0.91858  0.10592  0.70155  1.0000
  C   C1825     1.0  0.91567  0.09626  0.67974  1.0000
  C   C1826     1.0  0.88053  0.09577  0.69811  1.0000
  C   C1827     1.0  0.88403  0.07005  0.70297  1.0000
  C   C1828     1.0  0.97443  0.03880  0.57257  1.0000
  C   C1829     1.0  0.84026  0.07083  0.71024  1.0000
  H   H2173     1.0  0.92616  0.08649  0.70525  1.0000
  H   H2174     1.0  0.93465  0.11547  0.69696  1.0000
  H   H2175     1.0  0.90877  0.11424  0.71069  1.0000
  H   H2176     1.0  0.92421  0.07695  0.68292  1.0000
  H   H2177     1.0  0.93102  0.10601  0.67404  1.0000
  H   H2178     1.0  0.90330  0.09616  0.67240  1.0000
  H   H2179     1.0  0.90218  0.05911  0.70213  1.0000
  H   H2180     1.0  0.68946  0.08538  0.69113  1.0000
  H   H2181     1.0  0.67895  0.06335  0.68412  1.0000
  C   C1830     1.0  0.79031  0.99859  0.63318  1.0000
  C   C1831     1.0  0.98068  0.28361  0.63733  1.0000
  H   H2182     1.0  0.87513  0.41248  0.55307  1.0000
  C   C1832     1.0  0.88397  0.41512  0.71294  1.0000
  H   H2183     1.0  0.99344  0.14745  0.63908  1.0000
  H   H2184     1.0  0.99460  0.25039  0.70621  1.0000
  H   H2185     1.0  0.92101  0.48107  0.58914  1.0000
  H   H2186     1.0  0.83224  0.00687  0.56777  1.0000
  C   C1833     1.0  0.91498  0.46928  0.59856  1.0000
  H   H2187     1.0  0.79540  0.48786  0.68362  1.0000
  H   H2188     1.0  0.84854  0.11158  0.50902  1.0000
  H   H2189     1.0  0.81967  0.44687  0.55973  1.0000
  C   C1834     1.0  0.83066  0.48146  0.66012  1.0000
  H   H2190     1.0  0.98174  0.15131  0.58938  1.0000
  S   S514      1.0  0.70599  0.04928  0.49335  1.0000
  H   H2191     1.0  0.98323  0.22753  0.66050  1.0000
  C   C1835     1.0  0.98230  0.04154  0.55840  1.0000
  H   H2192     1.0  0.86792  0.42977  0.71495  1.0000
  H   H2193     1.0  0.94000  0.39447  0.72237  1.0000
  H   H2194     1.0  0.81754  0.10614  0.70691  1.0000
  H   H2195     1.0  0.71198  0.02040  0.52628  1.0000
  N   N119      1.0  0.99486  0.12372  0.57629  1.0000
  H   H2196     1.0  0.98467  0.03690  0.59227  1.0000
  H   H2197     1.0  0.91579  0.16024  0.56697  1.0000
  H   H2198     1.0  0.71372  0.08442  0.73158  1.0000
  H   H2199     1.0  0.84315  0.46738  0.56841  1.0000
  H   H2200     1.0  0.84408  0.13510  0.62201  1.0000
  H   H2201     1.0  0.96659  0.29162  0.70710  1.0000
  C   C1836     1.0  0.91366  0.44017  0.71402  1.0000
  H   H2202     1.0  0.73032  0.22020  0.73826  1.0000
  C   C1837     1.0  0.98396  0.27932  0.67462  1.0000
  H   H2203     1.0  0.75321  0.01033  0.61699  1.0000
  C   C1838     1.0  0.89320  0.45533  0.54421  1.0000
  C   C1839     1.0  0.89498  0.13468  0.68626  1.0000
  H   H2204     1.0  0.86992  0.08687  0.63750  1.0000
  C   C1840     1.0  0.86093  0.46963  0.56156  1.0000
  C   C1841     1.0  0.85592  0.10855  0.69987  1.0000
  C   C1842     1.0  0.86601  0.08655  0.62716  1.0000
  H   H2205     1.0  0.84753  0.04636  0.63018  1.0000
  N   N120      1.0  0.83951  0.08605  0.62764  1.0000
  H   H2206     1.0  0.88545  0.14514  0.69461  1.0000
  H   H2207     1.0  0.88286  0.13764  0.67840  1.0000
  H   H2208     1.0  0.97743  0.12613  0.62791  1.0000
  C   C1843     1.0  0.83469  0.06134  0.63489  1.0000
  H   H2209     1.0  0.88975  0.41703  0.70161  1.0000
  C   C1844     1.0  0.80149  0.00098  0.60863  1.0000
  C   C1845     1.0  0.80285  0.10299  0.64439  1.0000
  H   H2210     1.0  0.85123  0.12803  0.69631  1.0000
  C   C1846     1.0  0.82392  0.10641  0.63421  1.0000
  C   C1847     1.0  0.78811  0.12277  0.65007  1.0000
  H   H2211     1.0  0.84689  0.07489  0.60771  1.0000
  C   C1848     1.0  0.80695  0.45482  0.54059  1.0000
  C   C1849     1.0  0.83471  0.08898  0.61344  1.0000
  C   C1850     1.0  0.92367  0.39463  0.71763  1.0000
  C   C1851     1.0  0.81430  0.15034  0.63591  1.0000
  H   H2212     1.0  0.81906  0.16865  0.63290  1.0000
  H   H2213     1.0  0.88995  0.39709  0.73935  1.0000
  C   C1852     1.0  0.82887  0.13082  0.62996  1.0000
  H   H2214     1.0  0.81529  0.08770  0.61327  1.0000
  H   H2215     1.0  0.83795  0.10720  0.60742  1.0000
  C   C1853     1.0  0.99474  0.06787  0.62168  1.0000
  H   H2216     1.0  0.94741  0.09209  0.55297  1.0000
  H   H2217     1.0  0.98694  0.05308  0.61962  1.0000
  H   H2218     1.0  0.84054  0.47079  0.50939  1.0000
  H   H2219     1.0  0.78307  0.16144  0.65075  1.0000
  S   S515      1.0  0.71014  0.02089  0.67766  1.0000
  C   C1854     1.0  0.92965  0.12669  0.55896  1.0000
  C   C1855     1.0  0.83486  0.11043  0.50303  1.0000
  C   C1856     1.0  0.98630  0.46621  0.62532  1.0000
  H   H2220     1.0  0.69091  0.99809  0.54722  1.0000
  H   H2221     1.0  0.77980  0.48514  0.67009  1.0000
  H   H2222     1.0  0.75146  0.01421  0.63917  1.0000
  C   C1857     1.0  0.98987  0.10922  0.62643  1.0000
  H   H2223     1.0  0.75739  0.03024  0.65861  1.0000
  C   C1858     1.0  0.89791  0.46281  0.71568  1.0000
  C   C1859     1.0  0.99452  0.10418  0.58850  1.0000
  H   H2224     1.0  0.95812  0.30960  0.69142  1.0000
  H   H2225     1.0  0.88551  0.42302  0.56635  1.0000
  C   C1860     1.0  0.97967  0.08971  0.62443  1.0000
  C   C1861     1.0  0.77006  0.01159  0.64116  1.0000
  H   H2226     1.0  0.92994  0.39385  0.70654  1.0000
  H   H2227     1.0  0.87247  0.46594  0.52310  1.0000
  H   H2228     1.0  0.96001  0.09186  0.62459  1.0000
  H   H2229     1.0  0.91653  0.37717  0.72214  1.0000
  C   C1862     1.0  0.88991  0.46874  0.60311  1.0000
  H   H2230     1.0  0.86087  0.00156  0.53570  1.0000
  C   C1863     1.0  0.98198  0.16606  0.66774  1.0000
  C   C1864     1.0  0.79629  0.01729  0.65626  1.0000
  H   H2231     1.0  0.85363  0.42315  0.56721  1.0000
  H   H2232     1.0  0.78824  0.45258  0.54524  1.0000
  H   H2233     1.0  0.80103  0.04417  0.49725  1.0000
  H   H2234     1.0  0.96864  0.26971  0.67428  1.0000
  H   H2235     1.0  0.97847  0.10870  0.59649  1.0000
  N   N121      1.0  0.90465  0.41658  0.71970  1.0000
  H   H2236     1.0  0.99565  0.16262  0.57204  1.0000
  C   C1865     1.0  0.82034  0.47270  0.70514  1.0000
  S   S516      1.0  0.76826  0.01190  0.69858  1.0000
  H   H2237     1.0  0.79840  0.46446  0.52012  1.0000
  H   H2238     1.0  0.95177  0.45440  0.60248  1.0000
  C   C1866     1.0  0.84957  0.45514  0.54298  1.0000
  H   H2239     1.0  0.87468  0.46759  0.56846  1.0000
  H   H2240     1.0  0.82480  0.06123  0.71450  1.0000
  H   H2241     1.0  0.96628  0.32102  0.63977  1.0000
  N   N122      1.0  0.98749  0.27856  0.68888  1.0000
  H   H2242     1.0  0.95110  0.42544  0.70465  1.0000
  C   C1867     1.0  0.97003  0.10632  0.56345  1.0000
  H   H2243     1.0  0.76168  0.17024  0.71034  1.0000
  C   C1868     1.0  0.71095  0.00111  0.52693  1.0000
  C   C1869     1.0  0.94558  0.46419  0.70135  1.0000
  C   C1870     1.0  0.99208  0.42842  0.67636  1.0000
  C   C1871     1.0  0.93132  0.14555  0.56566  1.0000
  C   C1872     1.0  0.94896  0.10709  0.55789  1.0000
  C   C1873     1.0  0.97256  0.12537  0.57017  1.0000
  C   C1874     1.0  0.74746  0.19676  0.72390  1.0000
  H   H2244     1.0  0.82192  0.46802  0.66771  1.0000
  H   H2245     1.0  0.96407  0.46472  0.69568  1.0000
  H   H2246     1.0  0.90021  0.44218  0.53687  1.0000
  H   H2247     1.0  0.97558  0.24323  0.69567  1.0000
  H   H2248     1.0  0.83447  0.00199  0.65165  1.0000
  H   H2249     1.0  0.98197  0.48045  0.60480  1.0000
  H   H2250     1.0  0.89309  0.47442  0.53844  1.0000
  H   H2251     1.0  0.87966  0.42938  0.73707  1.0000
  C   C1875     1.0  0.83722  0.48894  0.70236  1.0000
  C   C1876     1.0  0.81004  0.11432  0.50872  1.0000
  C   C1877     1.0  0.99087  0.03917  0.58131  1.0000
  H   H2252     1.0  0.86036  0.45296  0.65417  1.0000
  C   C1878     1.0  0.85291  0.47245  0.65235  1.0000
  C   C1879     1.0  0.79247  0.11149  0.50143  1.0000
  S   S517      1.0  0.86795  0.48712  0.59363  1.0000
  C   C1880     1.0  0.67431  0.08240  0.68634  1.0000
  H   H2253     1.0  0.79837  0.02381  0.66531  1.0000
  C   C1881     1.0  0.74871  0.17464  0.71936  1.0000
  C   C1882     1.0  0.73312  0.15823  0.72636  1.0000
  H   H2254     1.0  0.82142  0.00549  0.52832  1.0000
  C   C1883     1.0  0.90590  0.48534  0.71044  1.0000
  H   H2255     1.0  0.96709  0.46411  0.62834  1.0000
  H   H2256     1.0  0.98921  0.32801  0.68060  1.0000
  C   C1884     1.0  0.73049  0.20265  0.73542  1.0000
  H   H2257     1.0  0.73393  0.14112  0.72272  1.0000
  H   H2258     1.0  0.77958  0.00910  0.53871  1.0000
  C   C1885     1.0  0.92968  0.48603  0.70327  1.0000
  H   H2259     1.0  0.66855  0.15010  0.71492  1.0000
  H   H2260     1.0  0.73245  0.47306  0.73933  1.0000
  C   C1886     1.0  0.72066  0.99560  0.66887  1.0000
  C   C1887     1.0  0.81375  0.99594  0.63708  1.0000
  H   H2261     1.0  0.91060  0.41745  0.73998  1.0000
  H   H2262     1.0  0.79866  0.99484  0.59932  1.0000
  H   H2263     1.0  0.75447  0.99603  0.53669  1.0000
  H   H2264     1.0  0.73060  0.99952  0.50645  1.0000
  H   H2265     1.0  0.79487  0.99318  0.56489  1.0000
  C   C1888     1.0  0.99523  0.47545  0.61170  1.0000
  H   H2266     1.0  0.99495  0.45146  0.64543  1.0000
  Fe  Fe261     1.0  0.74324  0.04769  0.97247  1.0000
  S   S518      1.0  0.72888  0.08643  0.96355  1.0000
  C   C1889     1.0  0.69667  0.01623  0.77370  1.0000
  Fe  Fe262     1.0  0.79098  0.04581  0.95205  1.0000
  S   S519      1.0  0.78026  0.08483  0.94217  1.0000
  S   S520      1.0  0.82791  0.02908  0.94131  1.0000
  Fe  Fe263     1.0  0.76709  0.09292  0.96354  1.0000
  H   H2267     1.0  0.84825  0.08774  0.98802  1.0000
  Fe  Fe264     1.0  0.74344  0.07422  0.94323  1.0000
  S   S521      1.0  0.72619  0.08548  0.92405  1.0000
  S   S522      1.0  0.78082  0.05467  0.97348  1.0000
  S   S523      1.0  0.75480  0.03473  0.95199  1.0000
  C   C1890     1.0  0.68332  0.44563  0.75641  1.0000
  H   H2268     1.0  0.89487  0.35727  0.96036  1.0000
  N   N123      1.0  0.86865  0.07651  0.94992  1.0000
  C   C1891     1.0  0.68829  0.02117  0.79756  1.0000
  C   C1892     1.0  0.84266  0.15299  0.95326  1.0000
  H   H2269     1.0  0.66805  0.20829  0.74188  1.0000
  C   C1893     1.0  0.76252  0.04303  0.89803  1.0000
  C   C1894     1.0  0.86288  0.30325  0.98498  1.0000
  H   H2270     1.0  0.67346  0.03374  0.96498  1.0000
  C   C1895     1.0  0.86028  0.10285  0.95095  1.0000
  C   C1896     1.0  0.89527  0.36659  0.98527  1.0000
  C   C1897     1.0  0.67139  0.05334  0.78050  1.0000
  H   H2271     1.0  0.89983  0.04741  0.95189  1.0000
  N   N124      1.0  0.69540  0.19218  0.75471  1.0000
  C   C1898     1.0  0.71426  0.18629  0.74280  1.0000
  H   H2272     1.0  0.90375  0.38357  0.98291  1.0000
  H   H2273     1.0  0.77704  0.05153  0.89049  1.0000
  C   C1899     1.0  0.88094  0.37288  0.96362  1.0000
  H   H2274     1.0  0.86493  0.37438  0.95834  1.0000
  H   H2275     1.0  0.82580  0.10571  0.94339  1.0000
  H   H2276     1.0  0.88941  0.38975  0.95964  1.0000
  C   C1900     1.0  0.68863  0.42191  0.80880  1.0000
  H   H2277     1.0  0.71835  0.43248  0.74486  1.0000
  C   C1901     1.0  0.83258  0.99811  0.93922  1.0000
  H   H2278     1.0  0.74084  0.02896  0.92324  1.0000
  H   H2279     1.0  0.69355  0.07784  0.80216  1.0000
  C   C1902     1.0  0.70450  0.44373  0.78700  1.0000
  H   H2280     1.0  0.89063  0.10883  0.96012  1.0000
  C   C1903     1.0  0.67617  0.03962  0.92995  1.0000
  H   H2281     1.0  0.80487  0.03887  0.90852  1.0000
  C   C1904     1.0  0.67068  0.19423  0.75116  1.0000
  H   H2282     1.0  0.69169  0.01358  0.80785  1.0000
  C   C1905     1.0  0.67815  0.46828  0.82032  1.0000
  C   C1906     1.0  0.86489  0.14140  0.95739  1.0000
  C   C1907     1.0  0.67700  0.06261  0.90693  1.0000
  C   C1908     1.0  0.79697  0.12603  0.97906  1.0000
  C   C1909     1.0  0.69951  0.00723  0.78730  1.0000
  C   C1910     1.0  0.70361  0.06965  0.92169  1.0000
  H   H2283     1.0  0.81104  0.08800  0.97815  1.0000
  H   H2284     1.0  0.79410  0.02043  0.92438  1.0000
  C   C1911     1.0  0.69430  0.05181  0.93208  1.0000
  C   C1912     1.0  0.67626  0.48903  0.75809  1.0000
  C   C1913     1.0  0.70645  0.44831  0.74846  1.0000
  H   H2285     1.0  0.70081  0.04767  0.94181  1.0000
  H   H2286     1.0  0.72381  0.43780  0.78885  1.0000
  H   H2287     1.0  0.84997  0.07602  0.93313  1.0000
  H   H2288     1.0  0.78733  0.16396  0.98180  1.0000
  C   C1914     1.0  0.83490  0.10435  0.98672  1.0000
  C   C1915     1.0  0.78805  0.03350  0.91542  1.0000
  C   C1916     1.0  0.86109  0.34768  0.98346  1.0000
  H   H2289     1.0  0.86655  0.40910  0.97813  1.0000
  C   C1917     1.0  0.85157  0.06168  0.95962  1.0000
  C   C1918     1.0  0.71447  0.47128  0.74530  1.0000
  C   C1919     1.0  0.87367  0.11670  0.95631  1.0000
  H   H2290     1.0  0.68678  0.05569  0.97055  1.0000
  C   C1920     1.0  0.78892  0.00218  0.90187  1.0000
  H   H2291     1.0  0.66732  0.17655  0.74920  1.0000
  H   H2292     1.0  0.69268  0.23172  0.75085  1.0000
  H   H2293     1.0  0.74062  0.00606  0.91320  1.0000
  H   H2294     1.0  0.83242  0.06700  0.95745  1.0000
  H   H2295     1.0  0.70563  0.00561  0.76569  1.0000
  H   H2296     1.0  0.90752  0.07767  0.94636  1.0000
  C   C1921     1.0  0.71121  0.47917  0.80211  1.0000
  H   H2297     1.0  0.72255  0.47824  0.79220  1.0000
  C   C1922     1.0  0.85703  0.39285  0.98192  1.0000
  C   C1923     1.0  0.69650  0.21567  0.75903  1.0000
  H   H2298     1.0  0.70684  0.41614  0.81224  1.0000
  H   H2299     1.0  0.78590  0.01701  0.88025  1.0000
  H   H2300     1.0  0.83554  0.17188  0.95454  1.0000
  S   S524      1.0  0.77180  0.12713  0.97080  1.0000
  C   C1924     1.0  0.87404  0.32422  0.98096  1.0000
  C   C1925     1.0  0.86877  0.07246  0.93580  1.0000
  H   H2301     1.0  0.87325  0.28544  0.98317  1.0000
  H   H2302     1.0  0.85696  0.04173  0.95904  1.0000
  H   H2303     1.0  0.70039  0.42958  0.78184  1.0000
  H   H2304     1.0  0.87607  0.05300  0.93452  1.0000
  H   H2305     1.0  0.67587  0.09724  0.95929  1.0000
  C   C1926     1.0  0.82142  0.14707  0.98906  1.0000
  C   C1927     1.0  0.66807  0.46621  0.76099  1.0000
  C   C1928     1.0  0.82903  0.13992  0.94805  1.0000
  C   C1929     1.0  0.83758  0.11522  0.94696  1.0000
  H   H2306     1.0  0.85112  0.06385  0.97037  1.0000
  H   H2307     1.0  0.81118  0.14866  0.94542  1.0000
  C   C1930     1.0  0.75259  0.01385  0.91820  1.0000
  H   H2308     1.0  0.87495  0.15133  0.96199  1.0000
  C   C1931     1.0  0.89378  0.06700  0.95319  1.0000
  H   H2309     1.0  0.68217  0.21935  0.76810  1.0000
  H   H2310     1.0  0.88009  0.08451  0.92806  1.0000
  C   C1932     1.0  0.80048  0.14723  0.98331  1.0000
  C   C1933     1.0  0.66732  0.04512  0.91742  1.0000
  C   C1934     1.0  0.68615  0.10229  0.74620  1.0000
  H   H2311     1.0  0.80422  0.48546  0.98094  1.0000
  H   H2312     1.0  0.75038  0.03657  0.89249  1.0000
  N   N125      1.0  0.68710  0.44647  0.79998  1.0000
  H   H2313     1.0  0.66869  0.02614  0.93809  1.0000
  H   H2314     1.0  0.68592  0.40755  0.80330  1.0000
  H   H2315     1.0  0.70435  0.15065  0.74288  1.0000
  C   C1935     1.0  0.69228  0.46467  0.80737  1.0000
  H   H2316     1.0  0.67020  0.06703  0.89727  1.0000
  C   C1936     1.0  0.69815  0.17230  0.76671  1.0000
  C   C1937     1.0  0.69505  0.07489  0.90909  1.0000
  H   H2317     1.0  0.89306  0.32184  0.97604  1.0000
  H   H2318     1.0  0.69484  0.05096  0.81519  1.0000
  H   H2319     1.0  0.69416  0.15461  0.76504  1.0000
  H   H2320     1.0  0.84760  0.46365  0.97972  1.0000
  H   H2321     1.0  0.84023  0.39672  0.97707  1.0000
  C   C1938     1.0  0.83506  0.46211  0.98936  1.0000
  H   H2322     1.0  0.67196  0.03369  0.98296  1.0000
  N   N126      1.0  0.77327  0.02284  0.90814  1.0000
  H   H2323     1.0  0.75082  0.05820  0.90308  1.0000
  C   C1939     1.0  0.81391  0.10445  0.98112  1.0000
  S   S525      1.0  0.67499  0.41601  0.76134  1.0000
  H   H2324     1.0  0.68506  0.17688  0.77604  1.0000
  H   H2325     1.0  0.77737  0.05016  0.91952  1.0000
  H   H2326     1.0  0.69169  0.08933  0.75493  1.0000
  C   C1940     1.0  0.79361  0.00207  0.88748  1.0000
  N   N127      1.0  0.87318  0.36971  0.97872  1.0000
  C   C1941     1.0  0.69949  0.49164  0.75027  1.0000
  H   H2327     1.0  0.70336  0.46111  0.77946  1.0000
  H   H2328     1.0  0.89460  0.06763  0.96407  1.0000
  H   H2329     1.0  0.75889  0.99958  0.92667  1.0000
  C   C1942     1.0  0.68224  0.06695  0.81061  1.0000
  H   H2330     1.0  0.86203  0.00263  0.92211  1.0000
  H   H2331     1.0  0.70217  0.08871  0.90102  1.0000
  H   H2332     1.0  0.67467  0.07847  0.81875  1.0000
  H   H2333     1.0  0.71462  0.21545  0.76195  1.0000
  H   H2334     1.0  0.66855  0.00054  0.85079  1.0000
  C   C1943     1.0  0.68278  0.03925  0.77031  1.0000
  H   H2335     1.0  0.67257  0.48622  0.83793  1.0000
  H   H2336     1.0  0.90980  0.35139  0.98204  1.0000
  H   H2337     1.0  0.70229  0.99940  0.83092  1.0000
  H   H2338     1.0  0.71712  0.16892  0.76912  1.0000
  H   H2339     1.0  0.67431  0.42148  0.81813  1.0000
  C   C1944     1.0  0.68329  0.48439  0.82787  1.0000
  C   C1945     1.0  0.67079  0.04579  0.97285  1.0000
  H   H2340     1.0  0.67618  0.12008  0.93610  1.0000
  C   C1946     1.0  0.66681  0.12187  0.74818  1.0000
  H   H2341     1.0  0.68133  0.04640  0.75965  1.0000
  C   C1947     1.0  0.67359  0.04455  0.79453  1.0000
  C   C1948     1.0  0.81070  0.47468  0.99004  1.0000
  S   S526      1.0  0.74496  0.00919  0.74044  1.0000
  C   C1949     1.0  0.82307  0.64788  0.20469  1.0000
  N   N128      1.0  0.67429  0.52912  0.08595  1.0000
  H   H2342     1.0  0.68953  0.57381  0.01348  1.0000
  Fe  Fe265     1.0  0.79204  0.55696  0.21422  1.0000
  H   H2343     1.0  0.83970  0.51286  0.99360  1.0000
  S   S527      1.0  0.82769  0.56438  0.21852  1.0000
  Fe  Fe266     1.0  0.77069  0.52327  0.20023  1.0000
  S   S528      1.0  0.73191  0.53760  0.20898  1.0000
  C   C1950     1.0  0.69976  0.97338  0.20359  1.0000
  Fe  Fe267     1.0  0.74375  0.57474  0.20312  1.0000
  S   S529      1.0  0.72753  0.60585  0.18787  1.0000
  C   C1951     1.0  0.82236  0.97586  0.23692  1.0000
  S   S530      1.0  0.78206  0.56034  0.19338  1.0000
  S   S531      1.0  0.78498  0.51820  0.21999  1.0000
  H   H2344     1.0  0.74349  0.65293  0.18856  1.0000
  C   C1952     1.0  0.79842  0.65874  0.20760  1.0000
  H   H2345     1.0  0.74357  0.57943  0.14489  1.0000
  C   C1953     1.0  0.68337  0.87697  0.15132  1.0000
  C   C1954     1.0  0.69637  0.57617  0.15442  1.0000
  H   H2346     1.0  0.69905  0.52659  0.03246  1.0000
  C   C1955     1.0  0.67204  0.57192  0.01998  1.0000
  H   H2347     1.0  0.69834  0.52351  0.01518  1.0000
  H   H2348     1.0  0.72993  0.54084  0.14179  1.0000
  C   C1956     1.0  0.68193  0.83124  0.14070  1.0000
  C   C1957     1.0  0.77939  0.64948  0.20378  1.0000
  H   H2349     1.0  0.70045  0.91078  0.13140  1.0000
  C   C1958     1.0  0.71773  0.50627  0.07941  1.0000
  H   H2350     1.0  0.71017  0.52521  0.15584  1.0000
  S   S532      1.0  0.75458  0.57399  0.22356  1.0000
  H   H2351     1.0  0.68582  0.55366  0.05973  1.0000
  C   C1959     1.0  0.70110  0.62785  0.19124  1.0000
  C   C1960     1.0  0.68810  0.62900  0.20450  1.0000
  H   H2352     1.0  0.71987  0.64818  0.21925  1.0000
  H   H2353     1.0  0.74801  0.63289  0.22531  1.0000
  H   H2354     1.0  0.69382  0.61567  0.21307  1.0000
  H   H2355     1.0  0.80131  0.55635  0.99563  1.0000
  C   C1961     1.0  0.73956  0.57225  0.15606  1.0000
  H   H2356     1.0  0.73966  0.62537  0.21055  1.0000
  N   N129      1.0  0.69361  0.87327  0.13702  1.0000
  H   H2357     1.0  0.75764  0.69657  0.20819  1.0000
  H   H2358     1.0  0.71494  0.95822  0.20397  1.0000
  C   C1962     1.0  0.66768  0.64765  0.20665  1.0000
  H   H2359     1.0  0.72845  0.68875  0.21661  1.0000
  C   C1963     1.0  0.78667  0.62893  0.19683  1.0000
  H   H2360     1.0  0.81644  0.60197  0.18916  1.0000
  C   C1964     1.0  0.81136  0.61821  0.19401  1.0000
  C   C1965     1.0  0.84969  0.59305  0.22989  1.0000
  H   H2361     1.0  0.75499  0.67594  0.22449  1.0000
  H   H2362     1.0  0.66664  0.56845  0.07907  1.0000
  H   H2363     1.0  0.67935  0.95564  0.19345  1.0000
  C   C1966     1.0  0.99196  0.86525  0.23906  1.0000
  H   H2364     1.0  0.69183  0.89076  0.15453  1.0000
  C   C1967     1.0  0.80547  0.60354  0.23175  1.0000
  N   N130      1.0  0.75300  0.65991  0.20707  1.0000
  C   C1968     1.0  0.74238  0.66823  0.19424  1.0000
  H   H2365     1.0  0.68683  0.99197  0.10374  1.0000
  C   C1969     1.0  0.67274  0.66331  0.18230  1.0000
  H   H2366     1.0  0.72405  0.84630  0.14350  1.0000
  H   H2367     1.0  0.73048  0.87690  0.13849  1.0000
  H   H2368     1.0  0.72463  0.50939  0.02286  1.0000
  H   H2369     1.0  0.75636  0.55981  0.15907  1.0000
  H   H2370     1.0  0.84439  0.54018  0.99875  1.0000
  H   H2371     1.0  0.75220  0.68236  0.18717  1.0000
  C   C1970     1.0  0.67962  0.97188  0.19759  1.0000
  H   H2372     1.0  0.74146  0.52467  0.15694  1.0000
  C   C1971     1.0  0.80587  0.62332  0.23824  1.0000
  H   H2373     1.0  0.66698  0.67648  0.17369  1.0000
  H   H2374     1.0  0.83519  0.88149  0.23863  1.0000
  C   C1972     1.0  0.66970  0.55488  0.08845  1.0000
  C   C1973     1.0  0.82951  0.62764  0.19795  1.0000
  Fe  Fe268     1.0  0.74698  0.53512  0.22847  1.0000
  C   C1974     1.0  0.68811  0.59924  0.15889  1.0000
  C   C1975     1.0  0.74172  0.51763  0.05708  1.0000
  C   C1976     1.0  0.83287  0.95084  0.23849  1.0000
  C   C1977     1.0  0.69746  0.52468  0.07617  1.0000
  H   H2375     1.0  0.72247  0.67617  0.19632  1.0000
  C   C1978     1.0  0.72030  0.86356  0.13613  1.0000
  H   H2376     1.0  0.82647  0.93845  0.23357  1.0000
  H   H2377     1.0  0.80780  0.98271  0.23087  1.0000
  H   H2378     1.0  0.84851  0.61868  0.19621  1.0000
  C   C1979     1.0  0.74843  0.68123  0.21440  1.0000
  C   C1980     1.0  0.66691  0.57911  0.03298  1.0000
  H   H2379     1.0  0.77327  0.62064  0.19377  1.0000
  H   H2380     1.0  0.68057  0.58653  0.03640  1.0000
  C   C1981     1.0  0.73959  0.64078  0.21594  1.0000
  H   H2381     1.0  0.67085  0.79576  0.14328  1.0000
  H   H2382     1.0  0.68615  0.85987  0.15894  1.0000
  H   H2383     1.0  0.84930  0.81673  0.23606  1.0000
  C   C1982     1.0  0.82742  0.58855  0.22736  1.0000
  H   H2384     1.0  0.69098  0.82555  0.14959  1.0000
  H   H2385     1.0  0.86732  0.61629  0.23826  1.0000
  H   H2386     1.0  0.72847  0.85958  0.12565  1.0000
  C   C1983     1.0  0.71232  0.55199  0.17442  1.0000
  H   H2387     1.0  0.79485  0.67385  0.21323  1.0000
  C   C1984     1.0  0.68111  0.85545  0.13314  1.0000
  H   H2388     1.0  0.86676  0.58154  0.22649  1.0000
  H   H2389     1.0  0.68928  0.51539  0.10467  1.0000
  H   H2390     1.0  0.72849  0.54019  0.17850  1.0000
  N   N131      1.0  0.71788  0.55944  0.15934  1.0000
  C   C1985     1.0  0.66821  0.61566  0.15421  1.0000
  C   C1986     1.0  0.72506  0.53665  0.15315  1.0000
  C   C1987     1.0  0.70040  0.53927  0.06292  1.0000
  H   H2391     1.0  0.68550  0.55908  0.09219  1.0000
  H   H2392     1.0  0.73692  0.58799  0.16163  1.0000
  H   H2393     1.0  0.78830  0.60040  0.22978  1.0000
  C   C1988     1.0  0.69348  0.64517  0.18021  1.0000
  C   C1989     1.0  0.68302  0.57028  0.14524  1.0000
  H   H2394     1.0  0.68756  0.55302  0.14146  1.0000
  H   H2395     1.0  0.83718  0.65458  0.20819  1.0000
  C   C1990     1.0  0.67064  0.81394  0.13713  1.0000
  H   H2396     1.0  0.70366  0.64465  0.16995  1.0000
  S   S533      1.0  0.73223  0.55346  0.99337  1.0000
  S   S534      1.0  0.67433  0.96106  0.12961  1.0000
  H   H2397     1.0  0.70747  0.56798  0.17993  1.0000
  C   C1991     1.0  0.66569  0.49928  0.03235  1.0000
  H   H2398     1.0  0.83114  0.85736  0.23054  1.0000
  H   H2399     1.0  0.99155  0.87586  0.22886  1.0000
  H   H2400     1.0  0.66323  0.88355  0.15247  1.0000
  C   C1992     1.0  0.66928  0.98665  0.10393  1.0000
  H   H2401     1.0  0.72832  0.49795  0.19205  1.0000
  H   H2402     1.0  0.69703  0.60474  0.16607  1.0000
  C   C1993     1.0  0.85004  0.61260  0.23662  1.0000
  H   H2403     1.0  0.67127  0.90672  0.12875  1.0000
  C   C1994     1.0  0.72224  0.53583  0.05358  1.0000
  H   H2404     1.0  0.72409  0.54749  0.04361  1.0000
  H   H2405     1.0  0.69664  0.54158  0.17736  1.0000
  C   C1995     1.0  0.70426  0.51360  0.02499  1.0000
  C   C1996     1.0  0.69091  0.89782  0.12818  1.0000
  H   H2406     1.0  0.75861  0.51490  0.04981  1.0000
  H   H2407     1.0  0.69899  0.89676  0.11727  1.0000
  S   S535      1.0  0.78183  0.49393  0.18665  1.0000
  C   C1997     1.0  0.66811  0.86130  0.12184  1.0000
  C   C1998     1.0  0.67444  0.51288  0.09948  1.0000
  C   C1999     1.0  0.73948  0.50296  0.06998  1.0000
  H   H2408     1.0  0.66620  0.87926  0.11555  1.0000
  C   C2000     1.0  0.83675  0.86114  0.23979  1.0000
  H   H2409     1.0  0.85664  0.85369  0.23977  1.0000
  H   H2410     1.0  0.67674  0.49316  0.09849  1.0000
  H   H2411     1.0  0.71736  0.49409  0.08915  1.0000
  H   H2412     1.0  0.85005  0.77266  0.24014  1.0000
  Fe  Fe269     1.0  0.78437  0.55669  0.46366  1.0000
  C   C2001     1.0  0.90648  0.77908  0.30358  1.0000
  S   S536      1.0  0.74689  0.56552  0.45795  1.0000
  H   H2413     1.0  0.85182  0.53669  0.26249  1.0000
  N   N132      1.0  0.77478  0.53541  0.41666  1.0000
  C   C2002     1.0  0.98078  0.61186  0.33058  1.0000
  Fe  Fe270     1.0  0.89888  0.56394  0.36505  1.0000
  H   H2414     1.0  0.81710  0.59285  0.27040  1.0000
  S   S537      1.0  0.89717  0.60460  0.35863  1.0000
  H   H2415     1.0  0.96052  0.75531  0.26131  1.0000
  H   H2416     1.0  0.82704  0.50674  0.27716  1.0000
  S   S538      1.0  0.86791  0.54202  0.37065  1.0000
  S   S539      1.0  0.92038  0.54207  0.38122  1.0000
  Fe  Fe271     1.0  0.85959  0.90898  0.29919  1.0000
  S   S540      1.0  0.89142  0.91638  0.28255  1.0000
  S   S541      1.0  0.83973  0.93979  0.31052  1.0000
  Fe  Fe272     1.0  0.86169  0.85676  0.29345  1.0000
  S   S542      1.0  0.89377  0.86045  0.27653  1.0000
  S   S543      1.0  0.84421  0.82238  0.29924  1.0000
  Fe  Fe273     1.0  0.90827  0.87794  0.29071  1.0000
  S   S544      1.0  0.94589  0.86387  0.29620  1.0000
  Fe  Fe274     1.0  0.87319  0.89811  0.27028  1.0000
  H   H2417     1.0  0.95485  0.96338  0.35927  1.0000
  S   S545      1.0  0.87751  0.87168  0.30827  1.0000
  S   S546      1.0  0.84009  0.89354  0.28640  1.0000
  Fe  Fe275     1.0  0.85714  0.65556  0.29004  1.0000
  S   S547      1.0  0.87201  0.62898  0.27541  1.0000
  S   S548      1.0  0.83647  0.63865  0.30989  1.0000
  Fe  Fe276     1.0  0.87466  0.69876  0.26973  1.0000
  S   S549      1.0  0.89035  0.67530  0.25344  1.0000
  S   S550      1.0  0.88214  0.73773  0.26320  1.0000
  Fe  Fe277     1.0  0.85568  0.65875  0.25989  1.0000
  C   C2003     1.0  0.85840  0.91379  0.36472  1.0000
  Fe  Fe278     1.0  0.90502  0.64805  0.27065  1.0000
  S   S551      1.0  0.94425  0.62810  0.26874  1.0000
  S   S552      1.0  0.83882  0.68454  0.27490  1.0000
  S   S553      1.0  0.89132  0.67236  0.28652  1.0000
  H   H2418     1.0  0.77099  0.50117  0.43019  1.0000
  S   S554      1.0  0.72582  0.53896  0.48861  1.0000
  C   C2004     1.0  0.97223  0.52504  0.32365  1.0000
  Fe  Fe279     1.0  0.89136  0.51793  0.38537  1.0000
  H   H2419     1.0  0.78711  0.95858  0.30539  1.0000
  C   C2005     1.0  0.82389  0.57672  0.30371  1.0000
  C   C2006     1.0  0.97007  0.87939  0.28758  1.0000
  C   C2007     1.0  0.91941  0.79873  0.30031  1.0000
  C   C2008     1.0  0.95252  0.51584  0.32123  1.0000
  H   H2420     1.0  0.79218  0.57807  0.26029  1.0000
  C   C2009     1.0  0.96451  0.63965  0.27627  1.0000
  C   C2010     1.0  0.95648  0.64880  0.28861  1.0000
  H   H2421     1.0  0.99593  0.97186  0.37082  1.0000
  H   H2422     1.0  0.93777  0.64866  0.29376  1.0000
  S   S555      1.0  0.70658  0.61223  0.47926  1.0000
  C   C2011     1.0  0.83763  0.80920  0.24511  1.0000
  H   H2423     1.0  0.75384  0.51071  0.37910  1.0000
  C   C2012     1.0  0.97004  0.86349  0.24818  1.0000
  H   H2424     1.0  0.69321  0.55938  0.45360  1.0000
  H   H2425     1.0  0.97015  0.91324  0.32649  1.0000
  H   H2426     1.0  0.79410  0.51560  0.28181  1.0000
  C   C2013     1.0  0.85912  0.94779  0.32003  1.0000
  C   C2014     1.0  0.85147  0.96848  0.32653  1.0000
  C   C2015     1.0  0.86650  0.97433  0.33461  1.0000
  C   C2016     1.0  0.88899  0.95923  0.33639  1.0000
  C   C2017     1.0  0.89664  0.93867  0.32982  1.0000
  C   C2018     1.0  0.88190  0.93314  0.32151  1.0000
  C   C2019     1.0  0.98611  0.97768  0.29810  1.0000
  Fe  Fe280     1.0  0.89029  0.51896  0.35532  1.0000
  H   H2427     1.0  0.91401  0.92693  0.33115  1.0000
  H   H2428     1.0  0.88796  0.91717  0.31652  1.0000
  C   C2020     1.0  0.85547  0.79834  0.28955  1.0000
  C   C2021     1.0  0.84749  0.77550  0.29404  1.0000
  C   C2022     1.0  0.85600  0.75633  0.28630  1.0000
  C   C2023     1.0  0.87217  0.76017  0.27390  1.0000
  C   C2024     1.0  0.88024  0.78287  0.26951  1.0000
  C   C2025     1.0  0.87214  0.80172  0.27735  1.0000
  H   H2429     1.0  0.83466  0.77265  0.30351  1.0000
  H   H2430     1.0  0.84962  0.73886  0.28974  1.0000
  H   H2431     1.0  0.89266  0.78599  0.25991  1.0000
  H   H2432     1.0  0.87873  0.81888  0.27382  1.0000
  C   C2026     1.0  0.87967  0.61504  0.34541  1.0000
  C   C2027     1.0  0.88558  0.63463  0.33509  1.0000
  C   C2028     1.0  0.87236  0.64211  0.32411  1.0000
  C   C2029     1.0  0.85285  0.63039  0.32365  1.0000
  C   C2030     1.0  0.84654  0.61131  0.33418  1.0000
  C   C2031     1.0  0.86016  0.60339  0.34493  1.0000
  H   H2433     1.0  0.90057  0.64377  0.33550  1.0000
  H   H2434     1.0  0.87700  0.65717  0.31615  1.0000
  H   H2435     1.0  0.83132  0.60235  0.33394  1.0000
  H   H2436     1.0  0.85530  0.58850  0.35294  1.0000
  H   H2437     1.0  0.78890  0.63533  0.24121  1.0000
  C   C2032     1.0  0.94127  0.79743  0.29099  1.0000
  C   C2033     1.0  0.83335  0.55012  0.43681  1.0000
  C   C2034     1.0  0.83379  0.52472  0.44002  1.0000
  H   H2438     1.0  0.96012  0.94706  0.33919  1.0000
  H   H2439     1.0  0.84913  0.84955  0.26476  1.0000
  H   H2440     1.0  0.77931  0.52380  0.43786  1.0000
  H   H2441     1.0  0.97126  0.62531  0.32328  1.0000
  S   S556      1.0  0.98029  0.50720  0.35983  1.0000
  H   H2442     1.0  0.96947  0.56696  0.35777  1.0000
  H   H2443     1.0  0.97474  0.53168  0.38345  1.0000
  H   H2444     1.0  0.82631  0.58501  0.31210  1.0000
  H   H2445     1.0  0.80922  0.92494  0.34117  1.0000
  C   C2035     1.0  0.86041  0.51938  0.41824  1.0000
  H   H2446     1.0  0.97281  0.71779  0.29465  1.0000
  N   N133      1.0  0.99269  0.96659  0.35064  1.0000
  C   C2036     1.0  0.84754  0.50937  0.43082  1.0000
  C   C2037     1.0  0.94765  0.74214  0.26590  1.0000
  C   C2038     1.0  0.82265  0.92160  0.34799  1.0000
  H   H2447     1.0  0.82724  0.96415  0.28150  1.0000
  H   H2448     1.0  0.94909  0.90515  0.27365  1.0000
  H   H2449     1.0  0.90907  0.54935  0.29342  1.0000
  C   C2039     1.0  0.84321  0.90348  0.34611  1.0000
  C   C2040     1.0  0.76817  0.51247  0.38445  1.0000
  H   H2450     1.0  0.98843  0.55714  0.32208  1.0000
  S   S557      1.0  0.81534  0.57001  0.44776  1.0000
  H   H2451     1.0  0.78443  0.57042  0.40632  1.0000
  H   H2452     1.0  0.79386  0.88342  0.24999  1.0000
  C   C2041     1.0  0.74830  0.54530  0.42049  1.0000
  H   H2453     1.0  0.79893  0.93787  0.29359  1.0000
  H   H2454     1.0  0.87731  0.88584  0.35273  1.0000
  S   S558      1.0  0.90804  0.96536  0.34676  1.0000
  H   H2455     1.0  0.92830  0.57213  0.28565  1.0000
  N   N134      1.0  0.82138  0.85092  0.25263  1.0000
  H   H2456     1.0  0.84684  0.57966  0.42194  1.0000
  H   H2457     1.0  0.94790  0.59775  0.34118  1.0000
  C   C2042     1.0  0.80530  0.51659  0.39817  1.0000
  C   C2043     1.0  0.81033  0.51856  0.27368  1.0000
  C   C2044     1.0  0.96618  0.96481  0.29949  1.0000
  S   S559      1.0  0.72846  0.51964  0.24961  1.0000
  C   C2045     1.0  0.98733  0.90960  0.26945  1.0000
  C   C2046     1.0  0.91120  0.56872  0.29299  1.0000
  C   C2047     1.0  0.93318  0.55749  0.31222  1.0000
  C   C2048     1.0  0.93747  0.75616  0.28785  1.0000
  H   H2458     1.0  0.91235  0.81509  0.30494  1.0000
  C   C2049     1.0  0.99331  0.87103  0.29132  1.0000
  H   H2459     1.0  0.89720  0.61249  0.30141  1.0000
  C   C2050     1.0  0.66820  0.54185  0.47865  1.0000
  S   S560      1.0  0.72849  0.51070  0.45286  1.0000
  C   C2051     1.0  0.81836  0.58079  0.28012  1.0000
  C   C2052     1.0  0.96698  0.89884  0.27669  1.0000
  C   C2053     1.0  0.94353  0.97175  0.30753  1.0000
  H   H2460     1.0  0.91284  0.72090  0.28342  1.0000
  H   H2461     1.0  0.92853  0.96174  0.30835  1.0000
  C   C2054     1.0  0.85674  0.96006  0.37548  1.0000
  C   C2055     1.0  0.83455  0.54704  0.25898  1.0000
  H   H2462     1.0  0.85200  0.91743  0.39211  1.0000
  H   H2463     1.0  0.81165  0.97683  0.38720  1.0000
  H   H2464     1.0  0.78319  0.85842  0.26200  1.0000
  H   H2465     1.0  0.87024  0.55262  0.40543  1.0000
  C   C2056     1.0  0.76200  0.52201  0.39672  1.0000
  C   C2057     1.0  0.80902  0.81151  0.26638  1.0000
  N   N135      1.0  0.91216  0.57401  0.30668  1.0000
  C   C2058     1.0  0.97049  0.84995  0.26129  1.0000
  C   C2059     1.0  0.78208  0.51622  0.42815  1.0000
  C   C2060     1.0  0.81917  0.54112  0.29492  1.0000
  C   C2061     1.0  0.82171  0.59119  0.29097  1.0000
  C   C2062     1.0  0.94004  0.99158  0.31443  1.0000
  H   H2466     1.0  0.74158  0.55995  0.41229  1.0000
  H   H2467     1.0  0.79578  0.95778  0.38110  1.0000
  C   C2063     1.0  0.91523  0.75807  0.29748  1.0000
  C   C2064     1.0  0.97283  0.65786  0.29447  1.0000
  H   H2468     1.0  0.87278  0.58334  0.31261  1.0000
  C   C2065     1.0  0.81280  0.96614  0.37882  1.0000
  C   C2066     1.0  0.95398  0.56620  0.31442  1.0000
  H   H2469     1.0  0.95339  0.84902  0.26843  1.0000
  H   H2470     1.0  0.87293  0.91028  0.37079  1.0000
  C   C2067     1.0  0.78863  0.55595  0.41520  1.0000
  H   H2471     1.0  0.78673  0.55044  0.25633  1.0000
  H   H2472     1.0  0.83385  0.97986  0.32540  1.0000
  H   H2473     1.0  0.74484  0.55351  0.43002  1.0000
  H   H2474     1.0  0.74881  0.98351  0.30611  1.0000
  C   C2068     1.0  0.84703  0.56001  0.42445  1.0000
  C   C2069     1.0  0.83764  0.93241  0.36696  1.0000
  C   C2070     1.0  0.93197  0.71457  0.28550  1.0000
  C   C2071     1.0  0.83469  0.93079  0.39143  1.0000
  H   H2475     1.0  0.83731  0.56641  0.25538  1.0000
  S   S561      1.0  0.91949  0.54283  0.34869  1.0000
  C   C2072     1.0  0.78567  0.96749  0.27131  1.0000
  C   C2073     1.0  0.97237  0.72385  0.28348  1.0000
  H   H2476     1.0  0.76651  0.94852  0.29664  1.0000
  C   C2074     1.0  0.82401  0.77231  0.25877  1.0000
  C   C2075     1.0  0.97976  0.57912  0.35002  1.0000
  H   H2477     1.0  0.81870  0.85174  0.27433  1.0000
  H   H2478     1.0  0.79931  0.95080  0.26927  1.0000
  S   S562      1.0  0.82787  0.65481  0.24723  1.0000
  H   H2479     1.0  0.93134  0.70724  0.29664  1.0000
  C   C2076     1.0  0.91367  0.60051  0.30510  1.0000
  H   H2480     1.0  0.79942  0.77694  0.27759  1.0000
  H   H2481     1.0  0.95583  0.58537  0.31197  1.0000
  Fe  Fe281     1.0  0.93904  0.51919  0.36513  1.0000
  H   H2482     1.0  0.92979  0.60546  0.29739  1.0000
  Fe  Fe282     1.0  0.73317  0.57658  0.47856  1.0000
  C   C2077     1.0  0.88875  0.56993  0.31594  1.0000
  H   H2483     1.0  0.91474  0.60560  0.31505  1.0000
  H   H2484     1.0  0.80880  0.54982  0.41363  1.0000
  H   H2485     1.0  0.68632  0.58119  0.46483  1.0000
  N   N136      1.0  0.94704  0.73451  0.28090  1.0000
  H   H2486     1.0  0.69015  0.80926  0.48858  1.0000
  H   H2487     1.0  0.85515  0.97199  0.38330  1.0000
  N   N137      1.0  0.81308  0.54491  0.27010  1.0000
  H   H2488     1.0  0.88953  0.57187  0.32661  1.0000
  C   C2078     1.0  0.96761  0.59637  0.34062  1.0000
  H   H2489     1.0  0.88422  0.55142  0.31638  1.0000
  H   H2490     1.0  0.96642  0.66501  0.30398  1.0000
  S   S563      1.0  0.78119  0.51756  0.47287  1.0000
  H   H2491     1.0  0.83223  0.94145  0.39997  1.0000
  H   H2492     1.0  0.98671  0.51275  0.32845  1.0000
  H   H2493     1.0  0.76692  0.96345  0.27170  1.0000
  C   C2079     1.0  0.80960  0.78612  0.26836  1.0000
  C   C2080     1.0  0.93332  0.53173  0.31554  1.0000
  H   H2494     1.0  0.81830  0.52170  0.29722  1.0000
  C   C2081     1.0  0.97919  0.93854  0.33749  1.0000
  H   H2495     1.0  0.77418  0.55855  0.27297  1.0000
  H   H2496     1.0  0.98503  0.92436  0.26088  1.0000
  C   C2082     1.0  0.86030  0.54473  0.41510  1.0000
  H   H2497     1.0  0.74264  0.52717  0.40035  1.0000
  H   H2498     1.0  0.95118  0.81284  0.28856  1.0000
  H   H2499     1.0  0.67739  0.65728  0.48565  1.0000
  C   C2083     1.0  0.96621  0.97732  0.35334  1.0000
  H   H2500     1.0  0.97993  0.70745  0.27840  1.0000
  H   H2501     1.0  0.82360  0.51690  0.44959  1.0000
  C   C2084     1.0  0.86107  0.89961  0.35444  1.0000
  N   N138      1.0  0.78780  0.97537  0.28416  1.0000
  H   H2502     1.0  0.92001  0.51433  0.41111  1.0000
  H   H2503     1.0  0.94971  0.52346  0.40522  1.0000
  H   H2504     1.0  0.79792  0.82127  0.27428  1.0000
  H   H2505     1.0  0.87409  0.95120  0.25898  1.0000
  C   C2085     1.0  0.95020  0.77655  0.28479  1.0000
  H   H2506     1.0  0.79742  0.49832  0.36935  1.0000
  H   H2507     1.0  0.82841  0.87808  0.26303  1.0000
  S   S564      1.0  0.71229  0.98666  0.48021  1.0000
  H   H2508     1.0  0.82042  0.51745  0.40314  1.0000
  C   C2086     1.0  0.93954  0.51013  0.41274  1.0000
  H   H2509     1.0  0.87448  0.94729  0.37585  1.0000
  Fe  Fe283     1.0  0.74243  0.52712  0.46819  1.0000
  H   H2510     1.0  0.81533  0.98675  0.29246  1.0000
  C   C2087     1.0  0.79272  0.50536  0.37897  1.0000
  H   H2511     1.0  0.95350  0.72614  0.26036  1.0000
  C   C2088     1.0  0.82965  0.85782  0.26420  1.0000
  H   H2512     1.0  0.89542  0.58057  0.28855  1.0000
  H   H2513     1.0  0.93946  0.69876  0.27994  1.0000
  H   H2514     1.0  0.73676  0.53056  0.42280  1.0000
  C   C2089     1.0  0.81299  0.98068  0.28300  1.0000
  C   C2090     1.0  0.78050  0.52480  0.40384  1.0000
  C   C2091     1.0  0.81978  0.93595  0.35823  1.0000
  C   C2092     1.0  0.85960  0.95794  0.25290  1.0000
  H   H2515     1.0  0.91823  0.52369  0.31413  1.0000
  H   H2516     1.0  0.81928  0.92012  0.39348  1.0000
  S   S565      1.0  0.77123  0.57159  0.48340  1.0000
  C   C2093     1.0  0.99285  0.83839  0.26545  1.0000
  H   H2517     1.0  0.92908  0.75106  0.26360  1.0000
  C   C2094     1.0  0.79554  0.86301  0.25213  1.0000
  H   H2518     1.0  0.96793  0.94929  0.29432  1.0000
  H   H2519     1.0  0.90393  0.74383  0.30032  1.0000
  H   H2520     1.0  0.84561  0.89289  0.33791  1.0000
  H   H2521     1.0  0.99195  0.94143  0.36974  1.0000
  C   C2095     1.0  0.84967  0.98299  0.25099  1.0000
  H   H2522     1.0  0.82464  0.54049  0.31561  1.0000
  C   C2096     1.0  0.85133  0.94185  0.24661  1.0000
  C   C2097     1.0  0.98917  0.63924  0.26999  1.0000
  S   S566      1.0  0.87578  0.49983  0.40652  1.0000
  C   C2098     1.0  0.97306  0.55010  0.32014  1.0000
  H   H2523     1.0  0.78435  0.56476  0.42457  1.0000
  H   H2524     1.0  0.88919  0.78040  0.31066  1.0000
  H   H2525     1.0  0.81266  0.97987  0.36921  1.0000
  C   C2099     1.0  0.81671  0.55544  0.28178  1.0000
  C   C2100     1.0  0.82280  0.55172  0.30566  1.0000
  H   H2526     1.0  0.85835  0.97189  0.36522  1.0000
  H   H2527     1.0  0.98559  0.73684  0.27950  1.0000
  H   H2528     1.0  0.82256  0.61068  0.28954  1.0000
  H   H2529     1.0  0.80359  0.94988  0.35895  1.0000
  N   N139      1.0  0.83531  0.94716  0.37793  1.0000
  C   C2101     1.0  0.78474  0.95426  0.29547  1.0000
  H   H2530     1.0  0.95266  0.87281  0.24514  1.0000
  H   H2531     1.0  0.99176  0.82884  0.27589  1.0000
  S   S567      1.0  0.86367  0.91043  0.24912  1.0000
  C   C2102     1.0  0.74633  0.49827  0.26068  1.0000
  H   H2532     1.0  0.83234  0.53994  0.24980  1.0000
  H   H2533     1.0  0.96704  0.77656  0.27747  1.0000
  C   C2103     1.0  0.98471  0.91899  0.33012  1.0000
  H   H2534     1.0  0.95891  0.98543  0.34366  1.0000
  C   C2104     1.0  0.79060  0.55862  0.26473  1.0000
  H   H2535     1.0  0.78910  0.98179  0.26216  1.0000
  C   C2105     1.0  0.67775  0.57198  0.45863  1.0000
  H   H2536     1.0  0.80172  0.50781  0.42608  1.0000
  H   H2537     1.0  0.99578  0.85582  0.29965  1.0000
  H   H2538     1.0  0.93925  0.51410  0.42312  1.0000
  H   H2539     1.0  0.86054  0.99032  0.33955  1.0000
  S   S568      1.0  0.87409  0.50937  0.33854  1.0000
  H   H2540     1.0  0.80751  0.51140  0.26468  1.0000
  C   C2106     1.0  0.81123  0.50725  0.38587  1.0000
  H   H2541     1.0  0.67041  0.58635  0.45049  1.0000
  H   H2542     1.0  0.99417  0.95808  0.27432  1.0000
  H   H2543     1.0  0.99561  0.63197  0.26052  1.0000
  H   H2544     1.0  0.68470  0.52880  0.47500  1.0000
  H   H2545     1.0  0.83036  0.50160  0.38163  1.0000
  H   H2546     1.0  0.71659  0.49651  0.27782  1.0000
  H   H2547     1.0  0.67390  0.55207  0.48555  1.0000
  C   C2107     1.0  0.82288  0.82390  0.25464  1.0000
  H   H2548     1.0  0.78821  0.85731  0.24397  1.0000
  H   H2549     1.0  0.66830  0.53086  0.45393  1.0000
  C   C2108     1.0  0.83080  0.99193  0.24319  1.0000
  H   H2550     1.0  0.82513  0.75249  0.26056  1.0000
  C   C2109     1.0  0.99407  0.52589  0.38006  1.0000
  H   H2551     1.0  0.70757  0.49414  0.43350  1.0000
  H   H2552     1.0  0.95174  0.49636  0.32416  1.0000
  H   H2553     1.0  0.67894  0.77119  0.48445  1.0000
  C   C2110     1.0  0.83808  0.78379  0.24723  1.0000
  H   H2554     1.0  0.69428  0.94085  0.48905  1.0000
  H   H2555     1.0  0.96292  0.99235  0.35952  1.0000
  H   H2556     1.0  0.77961  0.49588  0.24599  1.0000
  C   C2111     1.0  0.82814  0.62806  0.24059  1.0000
  C   C2112     1.0  0.80518  0.63269  0.53511  1.0000
  Fe  Fe284     1.0  0.73745  0.92226  0.62652  1.0000
  S   S569      1.0  0.77062  0.90386  0.61361  1.0000
  S   S570      1.0  0.74838  0.93086  0.64536  1.0000
  Fe  Fe285     1.0  0.70363  0.91681  0.60720  1.0000
  S   S571      1.0  0.73433  0.89800  0.59316  1.0000
  Fe  Fe286     1.0  0.74672  0.87684  0.61264  1.0000
  S   S572      1.0  0.75851  0.83595  0.61881  1.0000
  Fe  Fe287     1.0  0.75489  0.92682  0.59557  1.0000
  S   S573      1.0  0.77338  0.94992  0.57699  1.0000
  S   S574      1.0  0.71441  0.89372  0.62665  1.0000
  S   S575      1.0  0.72339  0.94726  0.60842  1.0000
  Fe  Fe288     1.0  0.74496  0.67619  0.61798  1.0000
  S   S576      1.0  0.76690  0.68619  0.59703  1.0000
  S   S577      1.0  0.76421  0.66119  0.63639  1.0000
  Fe  Fe289     1.0  0.69639  0.69369  0.60752  1.0000
  S   S578      1.0  0.71410  0.70421  0.58588  1.0000
  C   C2113     1.0  0.72408  0.81873  0.55191  1.0000
  Fe  Fe290     1.0  0.74006  0.66894  0.58984  1.0000
  S   S579      1.0  0.75048  0.64146  0.57544  1.0000
  Fe  Fe291     1.0  0.73888  0.72063  0.59512  1.0000
  S   S580      1.0  0.74405  0.75875  0.58434  1.0000
  S   S581      1.0  0.71997  0.65665  0.61088  1.0000
  S   S582      1.0  0.71932  0.71241  0.61665  1.0000
  H   H2557     1.0  0.74075  0.58337  0.51311  1.0000
  Fe  Fe292     1.0  0.75017  0.56111  0.70158  1.0000
  S   S583      1.0  0.78394  0.57248  0.70525  1.0000
  S   S584      1.0  0.73712  0.56953  0.68098  1.0000
  Fe  Fe293     1.0  0.79212  0.53342  0.71593  1.0000
  H   H2558     1.0  0.71769  0.68867  0.67013  1.0000
  Fe  Fe294     1.0  0.76217  0.58007  0.72565  1.0000
  S   S585      1.0  0.75930  0.52145  0.71120  1.0000
  S   S586      1.0  0.72749  0.57205  0.72097  1.0000
  H   H2559     1.0  0.76163  0.53753  0.66281  1.0000
  C   C2114     1.0  0.76059  0.58193  0.52948  1.0000
  Fe  Fe295     1.0  0.88095  0.56747  0.56517  1.0000
  S   S587      1.0  0.90734  0.56145  0.54586  1.0000
  S   S588      1.0  0.86521  0.60604  0.56875  1.0000
  Fe  Fe296     1.0  0.88465  0.51354  0.57625  1.0000
  H   H2560     1.0  0.81433  0.63032  0.54387  1.0000
  Fe  Fe297     1.0  0.92978  0.53363  0.55969  1.0000
  S   S589      1.0  0.97141  0.52709  0.55563  1.0000
  Fe  Fe298     1.0  0.88673  0.53120  0.54569  1.0000
  H   H2561     1.0  0.85307  0.92970  0.55816  1.0000
  S   S590      1.0  0.90505  0.54213  0.57914  1.0000
  S   S591      1.0  0.85846  0.53956  0.56387  1.0000
  H   H2562     1.0  0.80687  0.96707  0.51348  1.0000
  H   H2563     1.0  0.82114  0.57244  0.53511  1.0000
  C   C2115     1.0  0.97760  0.55920  0.57175  1.0000
  H   H2564     1.0  0.95803  0.56094  0.57545  1.0000
  C   C2116     1.0  0.80241  0.52296  0.51695  1.0000
  H   H2565     1.0  0.78594  0.68667  0.71786  1.0000
  C   C2117     1.0  0.82942  0.52238  0.53327  1.0000
  C   C2118     1.0  0.84902  0.52553  0.52248  1.0000
  C   C2119     1.0  0.67279  0.64291  0.49413  1.0000
  H   H2566     1.0  0.76054  0.95234  0.53379  1.0000
  H   H2567     1.0  0.70562  0.61216  0.52189  1.0000
  C   C2120     1.0  0.66550  0.81287  0.60728  1.0000
  C   C2121     1.0  0.78431  0.49831  0.67574  1.0000
  H   H2568     1.0  0.68452  0.77957  0.58130  1.0000
  C   C2122     1.0  0.79813  0.96156  0.62305  1.0000
  S   S592      1.0  0.77369  0.51923  0.51383  1.0000
  C   C2123     1.0  0.76998  0.65243  0.52429  1.0000
  H   H2569     1.0  0.74584  0.78317  0.55647  1.0000
  C   C2124     1.0  0.81379  0.96917  0.53841  1.0000
  C   C2125     1.0  0.81459  0.94540  0.58871  1.0000
  C   C2126     1.0  0.80181  0.62376  0.51309  1.0000
  H   H2570     1.0  0.78611  0.71273  0.73454  1.0000
  H   H2571     1.0  0.68458  0.65556  0.56092  1.0000
  C   C2127     1.0  0.66624  0.78251  0.49113  1.0000
  H   H2572     1.0  0.75212  0.98132  0.67894  1.0000
  N   N140      1.0  0.68298  0.95020  0.55229  1.0000
  H   H2573     1.0  0.69738  0.76767  0.60798  1.0000
  H   H2574     1.0  0.70639  0.93315  0.52759  1.0000
  H   H2575     1.0  0.89329  0.50234  0.71172  1.0000
  H   H2576     1.0  0.76922  0.64258  0.50487  1.0000
  H   H2577     1.0  0.70010  0.79929  0.58701  1.0000
  C   C2128     1.0  0.78229  0.63149  0.57323  1.0000
  C   C2129     1.0  0.79825  0.64835  0.57165  1.0000
  C   C2130     1.0  0.82368  0.64027  0.57025  1.0000
  C   C2131     1.0  0.83325  0.61529  0.57053  1.0000
  C   C2132     1.0  0.81724  0.59837  0.57230  1.0000
  C   C2133     1.0  0.79178  0.60651  0.57341  1.0000
  H   H2578     1.0  0.79103  0.66771  0.57131  1.0000
  H   H2579     1.0  0.83599  0.65344  0.56891  1.0000
  H   H2580     1.0  0.82437  0.57901  0.57297  1.0000
  H   H2581     1.0  0.77942  0.59338  0.57481  1.0000
  H   H2582     1.0  0.68759  0.58136  0.50454  1.0000
  N   N141      1.0  0.78779  0.98820  0.62123  1.0000
  H   H2583     1.0  0.66578  0.68799  0.58634  1.0000
  H   H2584     1.0  0.69156  0.87943  0.59335  1.0000
  C   C2134     1.0  0.79541  0.67929  0.72653  1.0000
  C   C2135     1.0  0.75729  0.63499  0.64838  1.0000
  C   C2136     1.0  0.74289  0.61927  0.64585  1.0000
  C   C2137     1.0  0.73714  0.59905  0.65586  1.0000
  C   C2138     1.0  0.74593  0.59426  0.66838  1.0000
  C   C2139     1.0  0.76115  0.60939  0.67066  1.0000
  C   C2140     1.0  0.76678  0.62969  0.66069  1.0000
  H   H2585     1.0  0.73591  0.62281  0.63628  1.0000
  H   H2586     1.0  0.72547  0.58731  0.65400  1.0000
  H   H2587     1.0  0.76803  0.60591  0.68026  1.0000
  H   H2588     1.0  0.77809  0.64165  0.66268  1.0000
  H   H2589     1.0  0.81000  0.92803  0.59437  1.0000
  C   C2141     1.0  0.69113  0.65346  0.53465  1.0000
  H   H2590     1.0  0.85317  0.56865  0.53631  1.0000
  H   H2591     1.0  0.79071  0.93413  0.53305  1.0000
  C   C2142     1.0  0.75466  0.81479  0.60901  1.0000
  C   C2143     1.0  0.75612  0.78987  0.61491  1.0000
  C   C2144     1.0  0.75295  0.77247  0.60743  1.0000
  C   C2145     1.0  0.74882  0.77988  0.59390  1.0000
  C   C2146     1.0  0.74767  0.80476  0.58795  1.0000
  C   C2147     1.0  0.75025  0.82224  0.59553  1.0000
  H   H2592     1.0  0.75965  0.78405  0.62533  1.0000
  H   H2593     1.0  0.75405  0.75333  0.61208  1.0000
  H   H2594     1.0  0.74455  0.81059  0.57748  1.0000
  H   H2595     1.0  0.74919  0.84140  0.59091  1.0000
  H   H2596     1.0  0.70345  0.83843  0.62132  1.0000
  H   H2597     1.0  0.83515  0.58025  0.51001  1.0000
  H   H2598     1.0  0.75072  0.98108  0.62812  1.0000
  C   C2148     1.0  0.73694  0.95585  0.65429  1.0000
  C   C2149     1.0  0.74995  0.95916  0.66415  1.0000
  H   H2599     1.0  0.66644  0.82996  0.54468  1.0000
  N   N142      1.0  0.66629  0.79191  0.60023  1.0000
  H   H2600     1.0  0.77527  0.65822  0.54390  1.0000
  S   S593      1.0  0.66535  0.84467  0.50558  1.0000
  C   C2150     1.0  0.69566  0.94905  0.56404  1.0000
  H   H2601     1.0  0.69577  0.96754  0.56633  1.0000
  N   N143      1.0  0.82013  0.61102  0.61521  1.0000
  C   C2151     1.0  0.79784  0.62625  0.61035  1.0000
  C   C2152     1.0  0.81867  0.61242  0.62989  1.0000
  C   C2153     1.0  0.84165  0.62225  0.60740  1.0000
  C   C2154     1.0  0.82144  0.58518  0.61360  1.0000
  C   C2155     1.0  0.84179  0.57220  0.60566  1.0000
  C   C2156     1.0  0.80188  0.57217  0.62014  1.0000
  C   C2157     1.0  0.84250  0.54767  0.60459  1.0000
  C   C2158     1.0  0.80269  0.54772  0.61882  1.0000
  C   C2159     1.0  0.82306  0.53545  0.61114  1.0000
  H   H2602     1.0  0.78051  0.62117  0.61672  1.0000
  H   H2603     1.0  0.79704  0.64599  0.61079  1.0000
  H   H2604     1.0  0.79749  0.62465  0.59958  1.0000
  H   H2605     1.0  0.80195  0.60607  0.63636  1.0000
  H   H2606     1.0  0.81761  0.63169  0.63147  1.0000
  H   H2607     1.0  0.83499  0.60107  0.63402  1.0000
  H   H2608     1.0  0.85913  0.61234  0.61083  1.0000
  H   H2609     1.0  0.84345  0.62246  0.59618  1.0000
  H   H2610     1.0  0.83997  0.64174  0.60871  1.0000
  H   H2611     1.0  0.85733  0.58057  0.60001  1.0000
  H   H2612     1.0  0.78568  0.58096  0.62619  1.0000
  H   H2613     1.0  0.85817  0.53804  0.59853  1.0000
  H   H2614     1.0  0.78739  0.53826  0.62366  1.0000
  S   S594      1.0  0.75738  0.61535  0.73423  1.0000
  H   H2615     1.0  0.86029  0.63215  0.51820  1.0000
  H   H2616     1.0  0.68097  0.60260  0.55813  1.0000
  C   C2160     1.0  0.99228  0.57119  0.57720  1.0000
  C   C2161     1.0  0.66541  0.85314  0.62043  1.0000
  N   N144      1.0  0.69784  0.63230  0.54540  1.0000
  C   C2162     1.0  0.67697  0.61849  0.54991  1.0000
  C   C2163     1.0  0.67857  0.60016  0.50474  1.0000
  C   C2164     1.0  0.68961  0.70270  0.65217  1.0000
  H   H2617     1.0  0.67545  0.66689  0.53877  1.0000
  H   H2618     1.0  0.68651  0.93871  0.57364  1.0000
  H   H2619     1.0  0.80631  0.64329  0.72089  1.0000
  H   H2620     1.0  0.77592  0.56887  0.52551  1.0000
  H   H2621     1.0  0.87695  0.96387  0.55072  1.0000
  N   N145      1.0  0.83911  0.60266  0.52430  1.0000
  C   C2165     1.0  0.82740  0.98979  0.57367  1.0000
  C   C2166     1.0  0.80263  0.53377  0.67474  1.0000
  H   H2622     1.0  0.74161  0.61249  0.55627  1.0000
  H   H2623     1.0  0.79347  0.95222  0.61539  1.0000
  C   C2167     1.0  0.68157  0.79586  0.58648  1.0000
  N   N146      1.0  0.78959  0.97226  0.53398  1.0000
  C   C2168     1.0  0.85063  0.98634  0.53870  1.0000
  C   C2169     1.0  0.68668  0.97845  0.49239  1.0000
  C   C2170     1.0  0.83421  0.52260  0.64794  1.0000
  H   H2624     1.0  0.81851  0.95798  0.62192  1.0000
  H   H2625     1.0  0.77411  0.94380  0.54890  1.0000
  H   H2626     1.0  0.73426  0.66386  0.68979  1.0000
  C   C2171     1.0  0.98842  0.54462  0.56172  1.0000
  C   C2172     1.0  0.68673  0.83605  0.61823  1.0000
  H   H2627     1.0  0.81380  0.93249  0.55103  1.0000
  H   H2628     1.0  0.76641  0.94636  0.66616  1.0000
  H   H2629     1.0  0.87235  0.49662  0.69101  1.0000
  C   C2173     1.0  0.69644  0.96325  0.53970  1.0000
  N   N147      1.0  0.68223  0.67804  0.65674  1.0000
  C   C2174     1.0  0.69678  0.62618  0.68606  1.0000
  H   H2630     1.0  0.86600  0.57896  0.51214  1.0000
  H   H2631     1.0  0.67862  0.78239  0.52650  1.0000
  H   H2632     1.0  0.71443  0.76048  0.55491  1.0000
  H   H2633     1.0  0.77587  0.58378  0.54709  1.0000
  C   C2175     1.0  0.85631  0.51334  0.64012  1.0000
  H   H2634     1.0  0.71699  0.65267  0.55466  1.0000
  H   H2635     1.0  0.67671  0.74638  0.56205  1.0000
  H   H2636     1.0  0.67067  0.91547  0.56085  1.0000
  H   H2637     1.0  0.78745  0.97548  0.72901  1.0000
  H   H2638     1.0  0.75179  0.94051  0.73516  1.0000
  C   C2176     1.0  0.77223  0.99161  0.54060  1.0000
  C   C2177     1.0  0.67252  0.80409  0.49341  1.0000
  H   H2639     1.0  0.68436  0.71390  0.66056  1.0000
  H   H2640     1.0  0.84708  0.94239  0.59770  1.0000
  H   H2641     1.0  0.72792  0.95604  0.50746  1.0000
  H   H2642     1.0  0.68062  0.71330  0.64340  1.0000
  C   C2178     1.0  0.68237  0.95409  0.49488  1.0000
  H   H2643     1.0  0.82383  0.51646  0.61012  1.0000
  H   H2644     1.0  0.70998  0.66259  0.64156  1.0000
  H   H2645     1.0  0.67434  0.63224  0.67069  1.0000
  C   C2179     1.0  0.74189  0.97896  0.67140  1.0000
  H   H2646     1.0  0.86632  0.52557  0.63229  1.0000
  N   N148      1.0  0.79732  0.51726  0.66631  1.0000
  C   C2180     1.0  0.76193  0.99075  0.61910  1.0000
  H   H2647     1.0  0.69959  0.91298  0.54979  1.0000
  H   H2648     1.0  0.71512  0.93974  0.56212  1.0000
  H   H2649     1.0  0.70689  0.66332  0.53016  1.0000
  C   C2181     1.0  0.76048  0.59031  0.54160  1.0000
  C   C2182     1.0  0.68485  0.61867  0.49383  1.0000
  H   H2650     1.0  0.68479  0.64792  0.52613  1.0000
  H   H2651     1.0  0.86012  0.53042  0.50052  1.0000
  H   H2652     1.0  0.83131  0.58876  0.54598  1.0000
  S   S595      1.0  0.87885  0.52593  0.52541  1.0000
  C   C2183     1.0  0.80707  0.65491  0.72814  1.0000
  C   C2184     1.0  0.71571  0.97251  0.65173  1.0000
  H   H2653     1.0  0.68920  0.74575  0.54406  1.0000
  Fe  Fe299     1.0  0.73955  0.53344  0.73113  1.0000
  C   C2185     1.0  0.72071  0.65749  0.68566  1.0000
  H   H2654     1.0  0.76817  0.98586  0.55190  1.0000
  C   C2186     1.0  0.79975  0.95969  0.57949  1.0000
  N   N149      1.0  0.66699  0.78014  0.54835  1.0000
  H   H2655     1.0  0.81596  0.52381  0.68161  1.0000
  C   C2187     1.0  0.72827  0.79314  0.55397  1.0000
  H   H2656     1.0  0.70982  0.70127  0.64850  1.0000
  C   C2188     1.0  0.82061  0.50691  0.65814  1.0000
  C   C2189     1.0  0.74049  0.60692  0.54680  1.0000
  S   S596      1.0  0.86738  0.98636  0.58615  1.0000
  C   C2190     1.0  0.85977  0.96509  0.54708  1.0000
  C   C2191     1.0  0.81552  0.61982  0.52400  1.0000
  C   C2192     1.0  0.70994  0.78028  0.55299  1.0000
  C   C2193     1.0  0.82362  0.94771  0.54700  1.0000
  H   H2657     1.0  0.82791  0.54217  0.64598  1.0000
  H   H2658     1.0  0.85497  0.62148  0.53641  1.0000
  H   H2659     1.0  0.81898  0.52865  0.49567  1.0000
  C   C2194     1.0  0.66792  0.86820  0.58225  1.0000
  C   C2195     1.0  0.83597  0.58228  0.53595  1.0000
  H   H2660     1.0  0.78571  0.54136  0.68139  1.0000
  C   C2196     1.0  0.72164  0.98939  0.51576  1.0000
  H   H2661     1.0  0.81052  0.54977  0.66842  1.0000
  C   C2197     1.0  0.78018  0.53155  0.65703  1.0000
  C   C2198     1.0  0.68685  0.81628  0.61172  1.0000
  H   H2662     1.0  0.68097  0.67466  0.63596  1.0000
  C   C2199     1.0  0.78277  0.64873  0.53523  1.0000
  H   H2663     1.0  0.78648  0.54870  0.65119  1.0000
  C   C2200     1.0  0.69337  0.66345  0.66859  1.0000
  S   S597      1.0  0.66536  0.92538  0.60182  1.0000
  H   H2664     1.0  0.73832  0.82853  0.55279  1.0000
  H   H2665     1.0  0.77768  0.52032  0.64964  1.0000
  C   C2201     1.0  0.83570  0.95343  0.59050  1.0000
  H   H2666     1.0  0.67277  0.61106  0.54136  1.0000
  Fe  Fe300     1.0  0.76511  0.53311  0.49235  1.0000
  H   H2667     1.0  0.69199  0.60815  0.69039  1.0000
  S   S598      1.0  0.83157  0.51515  0.71030  1.0000
  C   C2202     1.0  0.80625  0.52086  0.53051  1.0000
  C   C2203     1.0  0.79215  0.97984  0.51885  1.0000
  H   H2668     1.0  0.76665  0.50667  0.68154  1.0000
  C   C2204     1.0  0.68116  0.92464  0.55131  1.0000
  H   H2669     1.0  0.80788  0.61456  0.50428  1.0000
  H   H2670     1.0  0.83218  0.52058  0.54374  1.0000
  H   H2671     1.0  0.75269  0.66497  0.52436  1.0000
  H   H2672     1.0  0.77478  0.98037  0.51502  1.0000
  C   C2205     1.0  0.85854  0.61555  0.52620  1.0000
  H   H2673     1.0  0.68041  0.85149  0.58049  1.0000
  S   S599      1.0  0.77333  0.54210  0.73679  1.0000
  H   H2674     1.0  0.87685  0.60345  0.52564  1.0000
  C   C2206     1.0  0.68975  0.66470  0.64493  1.0000
  H   H2675     1.0  0.67604  0.75222  0.60383  1.0000
  C   C2207     1.0  0.74076  0.59018  0.52247  1.0000
  H   H2676     1.0  0.70404  0.80398  0.60995  1.0000
  C   C2208     1.0  0.77940  0.63989  0.51329  1.0000
  C   C2209     1.0  0.77836  0.94955  0.53758  1.0000
  C   C2210     1.0  0.70761  0.95184  0.52809  1.0000
  H   H2677     1.0  0.79074  0.95198  0.63336  1.0000
  C   C2211     1.0  0.71357  0.63490  0.69155  1.0000
  C   C2212     1.0  0.70162  0.83164  0.54870  1.0000
  C   C2213     1.0  0.84812  0.59164  0.51162  1.0000
  H   H2678     1.0  0.70550  0.97004  0.64420  1.0000
  C   C2214     1.0  0.70113  0.64252  0.55730  1.0000
  C   C2215     1.0  0.69879  0.98822  0.53881  1.0000
  C   C2216     1.0  0.71990  0.61570  0.53989  1.0000
  C   C2217     1.0  0.84506  0.52797  0.50893  1.0000
  H   H2679     1.0  0.70412  0.62790  0.56632  1.0000
  C   C2218     1.0  0.72071  0.60675  0.52757  1.0000
  C   C2219     1.0  0.82176  0.52703  0.50615  1.0000
  H   H2680     1.0  0.79133  0.51764  0.53889  1.0000
  C   C2220     1.0  0.71093  0.67161  0.67431  1.0000
  C   C2221     1.0  0.84209  0.97567  0.58299  1.0000
  H   H2681     1.0  0.85112  0.60597  0.50240  1.0000
  C   C2222     1.0  0.84630  0.94583  0.55122  1.0000
  C   C2223     1.0  0.80621  0.98190  0.57199  1.0000
  H   H2682     1.0  0.72155  0.62380  0.70018  1.0000
  C   C2224     1.0  0.68679  0.79293  0.54970  1.0000
  H   H2683     1.0  0.82998  0.98649  0.63137  1.0000
  C   C2225     1.0  0.81916  0.64523  0.73929  1.0000
  H   H2684     1.0  0.66810  0.76613  0.61903  1.0000
  C   C2226     1.0  0.68687  0.64012  0.67472  1.0000
  H   H2685     1.0  0.68472  0.64600  0.64734  1.0000
  C   C2227     1.0  0.68335  0.81902  0.54746  1.0000
  C   C2228     1.0  0.67739  0.76858  0.60815  1.0000
  C   C2229     1.0  0.72021  0.96478  0.51640  1.0000
  C   C2230     1.0  0.82799  0.98841  0.53447  1.0000
  H   H2686     1.0  0.98387  0.58229  0.58503  1.0000
  C   C2231     1.0  0.79546  0.69397  0.73621  1.0000
  S   S600      1.0  0.91129  0.50264  0.55796  1.0000
  H   H2687     1.0  0.69829  0.85156  0.54707  1.0000
  C   C2232     1.0  0.67304  0.75290  0.55136  1.0000
  H   H2688     1.0  0.67123  0.92437  0.54282  1.0000
  H   H2689     1.0  0.67300  0.81204  0.57972  1.0000
  C   C2233     1.0  0.67443  0.88424  0.58944  1.0000
  H   H2690     1.0  0.76073  0.98238  0.61016  1.0000
  H   H2691     1.0  0.93573  0.50353  0.69909  1.0000
  H   H2692     1.0  0.66559  0.86890  0.62508  1.0000
  C   C2234     1.0  0.78375  0.97005  0.74002  1.0000
  C   C2235     1.0  0.70756  0.99228  0.65905  1.0000
  C   C2236     1.0  0.95246  0.67754  0.83123  1.0000
  C   C2237     1.0  0.76888  0.61546  0.74928  1.0000
  C   C2238     1.0  0.74783  0.63152  0.85833  1.0000
  C   C2239     1.0  0.76152  0.94694  0.88282  1.0000
  H   H2693     1.0  0.69502  0.56769  0.86774  1.0000
  Fe  Fe301     1.0  0.72788  0.53079  0.96014  1.0000
  S   S601      1.0  0.70907  0.56803  0.96477  1.0000
  S   S602      1.0  0.72981  0.51797  0.93987  1.0000
  Fe  Fe302     1.0  0.74461  0.56945  0.97141  1.0000
  S   S603      1.0  0.76081  0.60455  0.96669  1.0000
  S   S604      1.0  0.70976  0.52008  0.74809  1.0000
  S   S605      1.0  0.76427  0.53321  0.96569  1.0000
  C   C2240     1.0  0.81667  0.68671  0.77055  1.0000
  Fe  Fe303     1.0  0.88538  0.91276  0.88517  1.0000
  S   S606      1.0  0.85422  0.89723  0.89935  1.0000
  S   S607      1.0  0.87436  0.93681  0.86591  1.0000
  Fe  Fe304     1.0  0.92323  0.88424  0.90294  1.0000
  S   S608      1.0  0.89459  0.86578  0.91806  1.0000
  S   S609      1.0  0.96227  0.87011  0.90690  1.0000
  Fe  Fe305     1.0  0.87996  0.86142  0.89975  1.0000
  S   S610      1.0  0.86691  0.82962  0.89451  1.0000
  Fe  Fe306     1.0  0.87182  0.90359  0.91612  1.0000
  S   S611      1.0  0.84893  0.91674  0.93515  1.0000
  S   S612      1.0  0.91052  0.87655  0.88470  1.0000
  S   S613      1.0  0.90118  0.92243  0.90197  1.0000
  Fe  Fe307     1.0  0.87395  0.64876  0.91679  1.0000
  S   S614      1.0  0.89698  0.65176  0.89582  1.0000
  S   S615      1.0  0.85870  0.61321  0.92364  1.0000
  Fe  Fe308     1.0  0.88091  0.69853  0.92050  1.0000
  S   S616      1.0  0.90397  0.70598  0.89983  1.0000
  S   S617      1.0  0.87556  0.72732  0.93384  1.0000
  Fe  Fe309     1.0  0.87658  0.69013  0.89234  1.0000
  S   S618      1.0  0.86592  0.70783  0.87176  1.0000
  Fe  Fe310     1.0  0.92277  0.66729  0.90479  1.0000
  S   S619      1.0  0.96338  0.66044  0.89649  1.0000
  S   S620      1.0  0.85129  0.68627  0.91262  1.0000
  S   S621      1.0  0.90190  0.66064  0.92623  1.0000
  H   H2694     1.0  0.73329  0.56954  0.93500  1.0000
  C   C2241     1.0  0.82347  0.95666  0.94638  1.0000
  C   C2242     1.0  0.75138  0.90416  0.86364  1.0000
  C   C2243     1.0  0.77535  0.93329  0.84893  1.0000
  Fe  Fe311     1.0  0.75521  0.92414  0.81417  1.0000
  S   S622      1.0  0.79551  0.92544  0.80729  1.0000
  S   S623      1.0  0.73187  0.96014  0.81831  1.0000
  Fe  Fe312     1.0  0.76115  0.87002  0.81115  1.0000
  S   S624      1.0  0.80166  0.86743  0.80391  1.0000
  S   S625      1.0  0.74099  0.83765  0.81447  1.0000
  Fe  Fe313     1.0  0.80097  0.88862  0.82072  1.0000
  S   S626      1.0  0.82622  0.87352  0.83629  1.0000
  Fe  Fe314     1.0  0.79201  0.90452  0.79117  1.0000
  S   S627      1.0  0.80776  0.91325  0.76869  1.0000
  S   S628      1.0  0.76084  0.88881  0.82888  1.0000
  S   S629      1.0  0.75126  0.90563  0.79719  1.0000
  Fe  Fe315     1.0  0.74490  0.66857  0.81992  1.0000
  S   S630      1.0  0.77325  0.63467  0.82219  1.0000
  S   S631      1.0  0.70520  0.66600  0.82856  1.0000
  Fe  Fe316     1.0  0.78267  0.70077  0.80544  1.0000
  S   S632      1.0  0.81399  0.66889  0.80658  1.0000
  S   S633      1.0  0.79307  0.73726  0.79406  1.0000
  Fe  Fe317     1.0  0.78885  0.64801  0.80039  1.0000
  S   S634      1.0  0.80353  0.62022  0.78600  1.0000
  Fe  Fe318     1.0  0.79539  0.65853  0.82819  1.0000
  S   S635      1.0  0.81375  0.64150  0.84663  1.0000
  S   S636      1.0  0.75891  0.68053  0.79761  1.0000
  S   S637      1.0  0.76583  0.69180  0.82762  1.0000
  C   C2244     1.0  0.75609  0.80966  0.80908  1.0000
  C   C2245     1.0  0.77883  0.80809  0.80038  1.0000
  C   C2246     1.0  0.79000  0.78578  0.79589  1.0000
  C   C2247     1.0  0.77883  0.76471  0.80031  1.0000
  C   C2248     1.0  0.75626  0.76617  0.80917  1.0000
  C   C2249     1.0  0.74481  0.78866  0.81340  1.0000
  H   H2695     1.0  0.78772  0.82409  0.79700  1.0000
  H   H2696     1.0  0.80747  0.78477  0.78905  1.0000
  H   H2697     1.0  0.74741  0.75010  0.81258  1.0000
  H   H2698     1.0  0.72718  0.78974  0.82011  1.0000
  H   H2699     1.0  0.71798  0.55128  0.87768  1.0000
  C   C2250     1.0  0.78691  0.59654  0.75400  1.0000
  C   C2251     1.0  0.79697  0.59799  0.76547  1.0000
  C   C2252     1.0  0.78874  0.61809  0.77247  1.0000
  C   C2253     1.0  0.76996  0.63650  0.76810  1.0000
  C   C2254     1.0  0.76029  0.63534  0.75643  1.0000
  H   H2700     1.0  0.81152  0.58369  0.76880  1.0000
  H   H2701     1.0  0.76332  0.65189  0.77350  1.0000
  H   H2702     1.0  0.74631  0.65003  0.75283  1.0000
  H   H2703     1.0  0.80215  0.64539  0.91653  1.0000
  C   C2255     1.0  0.76026  0.97679  0.76216  1.0000
  C   C2256     1.0  0.77374  0.95542  0.76853  1.0000
  C   C2257     1.0  0.79207  0.94101  0.76070  1.0000
  H   H2704     1.0  0.83173  0.94726  0.88608  1.0000
  H   H2705     1.0  0.76030  0.64298  0.85172  1.0000
  C   C2258     1.0  0.76242  0.61904  0.92324  1.0000
  H   H2706     1.0  0.76985  0.95010  0.77954  1.0000
  H   H2707     1.0  0.96420  0.68559  0.80936  1.0000
  H   H2708     1.0  0.95201  0.95031  0.94089  1.0000
  C   C2259     1.0  0.85208  0.68927  0.86444  1.0000
  C   C2260     1.0  0.85067  0.66497  0.87063  1.0000
  C   C2261     1.0  0.83980  0.65024  0.86466  1.0000
  C   C2262     1.0  0.82928  0.66001  0.85287  1.0000
  C   C2263     1.0  0.83085  0.68425  0.84656  1.0000
  C   C2264     1.0  0.84265  0.69872  0.85223  1.0000
  H   H2709     1.0  0.85803  0.65746  0.87996  1.0000
  H   H2710     1.0  0.83917  0.63128  0.86928  1.0000
  H   H2711     1.0  0.82303  0.69180  0.83733  1.0000
  H   H2712     1.0  0.84428  0.71727  0.84716  1.0000
  C   C2265     1.0  0.98294  0.66721  0.90640  1.0000
  C   C2266     1.0  0.97393  0.67243  0.91964  1.0000
  H   H2713     1.0  0.95486  0.67177  0.92404  1.0000
  C   C2267     1.0  0.86134  0.91976  0.85713  1.0000
  C   C2268     1.0  0.86180  0.89461  0.86175  1.0000
  C   C2269     1.0  0.85163  0.88075  0.85493  1.0000
  C   C2270     1.0  0.84031  0.89193  0.84358  1.0000
  C   C2271     1.0  0.83952  0.91719  0.83892  1.0000
  C   C2272     1.0  0.85016  0.93109  0.84568  1.0000
  H   H2714     1.0  0.87009  0.88562  0.87059  1.0000
  H   H2715     1.0  0.85231  0.86130  0.85864  1.0000
  H   H2716     1.0  0.83093  0.92595  0.83009  1.0000
  H   H2717     1.0  0.84979  0.95055  0.84202  1.0000
  C   C2273     1.0  0.86733  0.80215  0.90632  1.0000
  C   C2274     1.0  0.87301  0.80017  0.91943  1.0000
  C   C2275     1.0  0.87461  0.77728  0.92819  1.0000
  C   C2276     1.0  0.87076  0.75647  0.92374  1.0000
  C   C2277     1.0  0.86434  0.75875  0.91081  1.0000
  C   C2278     1.0  0.86250  0.78154  0.90218  1.0000
  H   H2718     1.0  0.87638  0.81613  0.92276  1.0000
  H   H2719     1.0  0.87935  0.77559  0.93826  1.0000
  H   H2720     1.0  0.86065  0.74294  0.90747  1.0000
  H   H2721     1.0  0.85747  0.78319  0.89224  1.0000
  H   H2722     1.0  0.91145  0.94781  0.95125  1.0000
  C   C2279     1.0  0.69634  0.98248  0.83643  1.0000
  H   H2723     1.0  0.75869  0.83221  0.75821  1.0000
  H   H2724     1.0  0.72280  0.59423  0.75843  1.0000
  C   C2280     1.0  0.69750  0.55900  0.78740  1.0000
  H   H2725     1.0  0.87014  0.95886  0.91921  1.0000
  H   H2726     1.0  0.81291  0.94377  0.95330  1.0000
  H   H2727     1.0  0.76154  0.88835  0.85858  1.0000
  C   C2281     1.0  0.74047  0.59249  0.87214  1.0000
  C   C2282     1.0  0.93739  0.68820  0.86549  1.0000
  H   H2728     1.0  0.93440  0.67594  0.82970  1.0000
  C   C2283     1.0  0.78716  0.60741  0.95409  1.0000
  C   C2284     1.0  0.79689  0.62937  0.95114  1.0000
  C   C2285     1.0  0.81880  0.63152  0.94176  1.0000
  C   C2286     1.0  0.83105  0.61164  0.93532  1.0000
  C   C2287     1.0  0.82093  0.58997  0.93800  1.0000
  C   C2288     1.0  0.79893  0.58796  0.94724  1.0000
  H   H2729     1.0  0.78773  0.64458  0.95634  1.0000
  H   H2730     1.0  0.82641  0.64835  0.93971  1.0000
  H   H2731     1.0  0.83013  0.57468  0.93288  1.0000
  H   H2732     1.0  0.79112  0.57132  0.94910  1.0000
  C   C2289     1.0  0.69435  0.58574  0.83733  1.0000
  H   H2733     1.0  0.82539  0.54555  0.95924  1.0000
  H   H2734     1.0  0.71365  0.60288  0.78703  1.0000
  C   C2290     1.0  0.70011  0.63542  0.83134  1.0000
  C   C2291     1.0  0.71626  0.61821  0.82421  1.0000
  C   C2292     1.0  0.71359  0.59341  0.82732  1.0000
  H   H2735     1.0  0.81834  0.73289  0.75998  1.0000
  H   H2736     1.0  0.99425  0.73024  0.92343  1.0000
  H   H2737     1.0  0.73080  0.62401  0.81623  1.0000
  H   H2738     1.0  0.72663  0.58012  0.82202  1.0000
  C   C2293     1.0  0.66978  0.55308  0.80950  1.0000
  C   C2294     1.0  0.70409  0.52354  0.93136  1.0000
  H   H2739     1.0  0.83835  0.71441  0.74826  1.0000
  H   H2740     1.0  0.89070  0.93667  0.94363  1.0000
  C   C2295     1.0  0.87210  0.59436  0.96269  1.0000
  C   C2296     1.0  0.95210  0.64488  0.86545  1.0000
  C   C2297     1.0  0.80486  0.54862  0.98596  1.0000
  C   C2298     1.0  0.70795  0.96004  0.83239  1.0000
  C   C2299     1.0  0.70055  0.93815  0.83971  1.0000
  H   H2741     1.0  0.85398  0.52795  0.96334  1.0000
  C   C2300     1.0  0.83403  0.61529  0.97378  1.0000
  H   H2742     1.0  0.70932  0.92080  0.83655  1.0000
  C   C2301     1.0  0.98968  0.67837  0.92725  1.0000
  C   C2302     1.0  0.85578  0.96507  0.92721  1.0000
  C   C2303     1.0  0.84220  0.94832  0.93612  1.0000
  N   N150      1.0  0.84384  0.79580  0.85727  1.0000
  C   C2304     1.0  0.85846  0.77439  0.86487  1.0000
  C   C2305     1.0  0.86130  0.80759  0.84604  1.0000
  C   C2306     1.0  0.83271  0.81340  0.86683  1.0000
  C   C2307     1.0  0.82417  0.78915  0.85155  1.0000
  C   C2308     1.0  0.80979  0.80726  0.84313  1.0000
  C   C2309     1.0  0.81843  0.76494  0.85423  1.0000
  C   C2310     1.0  0.79149  0.80138  0.83737  1.0000
  C   C2311     1.0  0.80014  0.75923  0.84836  1.0000
  C   C2312     1.0  0.78681  0.77737  0.83989  1.0000
  H   H2743     1.0  0.84695  0.76542  0.87408  1.0000
  H   H2744     1.0  0.86718  0.76032  0.85825  1.0000
  H   H2745     1.0  0.87356  0.77985  0.86866  1.0000
  H   H2746     1.0  0.86918  0.79541  0.83825  1.0000
  H   H2747     1.0  0.87673  0.81217  0.84997  1.0000
  H   H2748     1.0  0.85253  0.82527  0.84059  1.0000
  H   H2749     1.0  0.81912  0.80546  0.87530  1.0000
  H   H2750     1.0  0.84686  0.81852  0.87160  1.0000
  H   H2751     1.0  0.82307  0.83087  0.86156  1.0000
  H   H2752     1.0  0.81258  0.82618  0.84090  1.0000
  H   H2753     1.0  0.82782  0.75003  0.86081  1.0000
  H   H2754     1.0  0.78089  0.81554  0.83090  1.0000
  H   H2755     1.0  0.79631  0.74057  0.85035  1.0000
  H   H2756     1.0  0.77274  0.77285  0.83530  1.0000
  C   C2313     1.0  0.97668  0.91441  0.90702  1.0000
  H   H2757     1.0  0.73594  0.57740  0.79340  1.0000
  H   H2758     1.0  0.87610  0.55560  0.96469  1.0000
  H   H2759     1.0  0.68636  0.55093  0.88459  1.0000
  H   H2760     1.0  0.95341  0.80279  0.91070  1.0000
  H   H2761     1.0  0.74515  0.53900  0.78303  1.0000
  H   H2762     1.0  0.73052  0.50638  0.80559  1.0000
  H   H2763     1.0  0.80726  0.67094  0.77583  1.0000
  H   H2764     1.0  0.98266  0.68225  0.93752  1.0000
  C   C2314     1.0  0.75267  0.85225  0.75492  1.0000
  C   C2315     1.0  0.80033  0.98140  0.91023  1.0000
  H   H2765     1.0  0.92757  0.72696  0.92185  1.0000
  H   H2766     1.0  0.78701  0.94747  0.84828  1.0000
  N   N151      1.0  0.71762  0.57024  0.77800  1.0000
  H   H2767     1.0  0.91740  0.94655  0.93301  1.0000
  N   N152      1.0  0.80556  0.70003  0.75841  1.0000
  S   S638      1.0  0.69247  0.55429  0.84126  1.0000
  H   H2768     1.0  0.75953  0.94220  0.84359  1.0000
  H   H2769     1.0  0.92364  0.68485  0.87490  1.0000
  H   H2770     1.0  0.66750  0.64129  0.84640  1.0000
  H   H2771     1.0  0.68738  0.63437  0.87076  1.0000
  H   H2772     1.0  0.82803  0.65050  0.75775  1.0000
  H   H2773     1.0  0.78629  0.91920  0.84280  1.0000
  C   C2316     1.0  0.74489  0.58163  0.92818  1.0000
  H   H2774     1.0  0.75666  0.55747  0.91336  1.0000
  H   H2775     1.0  0.73720  0.60842  0.94159  1.0000
  C   C2317     1.0  0.73812  0.55069  0.77390  1.0000
  H   H2776     1.0  0.83663  0.67978  0.76777  1.0000
  C   C2318     1.0  0.75801  0.57498  0.91588  1.0000
  C   C2319     1.0  0.74703  0.60361  0.93183  1.0000
  C   C2320     1.0  0.96850  0.79030  0.91474  1.0000
  H   H2777     1.0  0.69675  0.57601  0.80541  1.0000
  C   C2321     1.0  0.72288  0.64080  0.86111  1.0000
  H   H2778     1.0  0.74526  0.83492  0.78150  1.0000
  N   N153      1.0  0.95292  0.75203  0.91217  1.0000
  C   C2322     1.0  0.81972  0.96231  0.89046  1.0000
  C   C2323     1.0  0.72786  0.58711  0.78417  1.0000
  H   H2779     1.0  0.92012  0.87945  0.96178  1.0000
  H   H2780     1.0  0.95961  0.92343  0.90356  1.0000
  C   C2324     1.0  0.74196  0.89270  0.76161  1.0000
  H   H2781     1.0  0.77606  0.60021  0.86121  1.0000
  C   C2325     1.0  0.77318  0.59045  0.90709  1.0000
  H   H2782     1.0  0.76371  0.63537  0.92698  1.0000
  H   H2783     1.0  0.73566  0.91227  0.85810  1.0000
  H   H2784     1.0  0.72462  0.95311  0.85879  1.0000
  H   H2785     1.0  0.69099  0.53813  0.77277  1.0000
  H   H2786     1.0  0.71716  0.96235  0.74956  1.0000
  H   H2787     1.0  0.90222  0.89925  0.93459  1.0000
  H   H2788     1.0  0.77767  0.71990  0.77211  1.0000
  H   H2789     1.0  0.70306  0.57270  0.75930  1.0000
  C   C2326     1.0  0.79737  0.94854  0.74644  1.0000
  C   C2327     1.0  0.74732  0.96469  0.89036  1.0000
  H   H2790     1.0  0.80673  0.59400  0.98388  1.0000
  C   C2328     1.0  0.98716  0.93052  0.94370  1.0000
  H   H2791     1.0  0.79917  0.89344  0.86306  1.0000
  C   C2329     1.0  0.77604  0.61287  0.91057  1.0000
  H   H2792     1.0  0.78304  0.58456  0.89766  1.0000
  H   H2793     1.0  0.77679  0.66294  0.90830  1.0000
  H   H2794     1.0  0.66932  0.61370  0.89127  1.0000
  C   C2330     1.0  0.96946  0.68316  0.81939  1.0000
  C   C2331     1.0  0.95891  0.67417  0.84451  1.0000
  C   C2332     1.0  0.79482  0.65061  0.90670  1.0000
  H   H2795     1.0  0.71287  0.89754  0.77945  1.0000
  N   N154      1.0  0.76751  0.92224  0.86339  1.0000
  C   C2333     1.0  0.67008  0.96127  0.85516  1.0000
  C   C2334     1.0  0.67198  0.59722  0.88627  1.0000
  H   H2796     1.0  0.76850  0.69464  0.76705  1.0000
  H   H2797     1.0  0.96913  0.64637  0.86904  1.0000
  H   H2798     1.0  0.77778  0.87481  0.77680  1.0000
  H   H2799     1.0  0.70608  0.51049  0.82848  1.0000
  C   C2335     1.0  0.72182  0.90583  0.76963  1.0000
  H   H2800     1.0  0.89003  0.59510  0.95637  1.0000
  N   N155      1.0  0.79280  0.62852  0.90126  1.0000
  H   H2801     1.0  0.81925  0.59998  0.89226  1.0000
  H   H2802     1.0  0.80374  0.92054  0.86815  1.0000
  H   H2803     1.0  0.74366  0.89669  0.87435  1.0000
  C   C2336     1.0  0.78985  0.90847  0.86890  1.0000
  H   H2804     1.0  0.76858  0.89770  0.74272  1.0000
  H   H2805     1.0  0.93070  0.74816  0.93226  1.0000
  H   H2806     1.0  0.81516  0.69880  0.77829  1.0000
  C   C2337     1.0  0.96649  0.88773  0.94913  1.0000
  H   H2807     1.0  0.70746  0.59445  0.90214  1.0000
  H   H2808     1.0  0.97983  0.72108  0.90624  1.0000
  H   H2809     1.0  0.73256  0.53848  0.76804  1.0000
  H   H2810     1.0  0.73414  0.85475  0.75199  1.0000
  C   C2338     1.0  0.83438  0.53363  0.96763  1.0000
  H   H2811     1.0  0.76432  0.64657  0.88949  1.0000
  H   H2812     1.0  0.86579  0.52710  0.98537  1.0000
  H   H2813     1.0  0.90467  0.66029  0.86478  1.0000
  C   C2339     1.0  0.75377  0.94171  0.87125  1.0000
  C   C2340     1.0  0.70847  0.58454  0.76546  1.0000
  C   C2341     1.0  0.81909  0.65962  0.74912  1.0000
  C   C2342     1.0  0.94100  0.73674  0.92446  1.0000
  H   H2814     1.0  0.78472  0.62184  0.88230  1.0000
  C   C2343     1.0  0.81789  0.61398  0.89886  1.0000
  H   H2815     1.0  0.80773  0.66186  0.89952  1.0000
  C   C2344     1.0  0.77747  0.86447  0.76854  1.0000
  H   H2816     1.0  0.78585  0.84506  0.77179  1.0000
  H   H2817     1.0  0.67595  0.92184  0.85682  1.0000
  C   C2345     1.0  0.78377  0.63712  0.88797  1.0000
  C   C2346     1.0  0.66649  0.53190  0.79157  1.0000
  H   H2818     1.0  0.92211  0.78159  0.91312  1.0000
  H   H2819     1.0  0.83198  0.62572  0.89382  1.0000
  C   C2347     1.0  0.73753  0.85468  0.77859  1.0000
  H   H2820     1.0  0.67983  0.54445  0.94581  1.0000
  H   H2821     1.0  0.78992  0.87221  0.75938  1.0000
  H   H2822     1.0  0.69813  0.94050  0.77171  1.0000
  H   H2823     1.0  0.91487  0.90807  0.96807  1.0000
  C   C2348     1.0  0.96208  0.93210  0.94351  1.0000
  H   H2824     1.0  0.97543  0.74665  0.89277  1.0000
  C   C2349     1.0  0.98210  0.88874  0.90957  1.0000
  C   C2350     1.0  0.91057  0.93681  0.94339  1.0000
  N   N156      1.0  0.75206  0.86651  0.76592  1.0000
  C   C2351     1.0  0.72363  0.94298  0.75282  1.0000
  C   C2352     1.0  0.71744  0.97341  0.87516  1.0000
  C   C2353     1.0  0.81533  0.96173  0.90458  1.0000
  C   C2354     1.0  0.74324  0.93063  0.74470  1.0000
  H   H2825     1.0  0.89240  0.90040  0.95981  1.0000
  H   H2826     1.0  0.75382  0.55860  0.76709  1.0000
  C   C2355     1.0  0.91254  0.89932  0.95953  1.0000
  H   H2827     1.0  0.79855  0.53043  0.98880  1.0000
  H   H2828     1.0  0.79802  0.98029  0.92123  1.0000
  H   H2829     1.0  0.95286  0.72648  0.89876  1.0000
  H   H2830     1.0  0.98367  0.82094  0.91753  1.0000
  C   C2356     1.0  0.93310  0.76944  0.90589  1.0000
  H   H2831     1.0  0.79480  0.65036  0.88097  1.0000
  H   H2832     1.0  0.82368  0.60416  0.90871  1.0000
  C   C2357     1.0  0.73150  0.95580  0.86755  1.0000
  C   C2358     1.0  0.68563  0.54264  0.78298  1.0000
  H   H2833     1.0  0.74811  0.57387  0.87610  1.0000
  C   C2359     1.0  0.72525  0.97781  0.88658  1.0000
  C   C2360     1.0  0.75258  0.90602  0.74909  1.0000
  C   C2361     1.0  0.86374  0.57187  0.96734  1.0000
  C   C2362     1.0  0.92190  0.89834  0.93528  1.0000
  C   C2363     1.0  0.98318  0.67706  0.84514  1.0000
  H   H2834     1.0  0.95443  0.72235  0.92950  1.0000
  C   C2364     1.0  0.70627  0.51430  0.91913  1.0000
  C   C2365     1.0  0.97082  0.76430  0.91617  1.0000
  H   H2835     1.0  0.74295  0.59517  0.77689  1.0000
  C   C2366     1.0  0.75663  0.60739  0.86376  1.0000
  C   C2367     1.0  0.70224  0.49793  0.82259  1.0000
  H   H2836     1.0  0.76575  0.85777  0.74552  1.0000
  C   C2368     1.0  0.70651  0.62605  0.86936  1.0000
  H   H2837     1.0  0.95950  0.87061  0.95097  1.0000
  H   H2838     1.0  0.93005  0.87854  0.93705  1.0000
  N   N157      1.0  0.92448  0.91149  0.94613  1.0000
  C   C2369     1.0  0.80686  0.68444  0.74797  1.0000
  C   C2370     1.0  0.71486  0.60136  0.87517  1.0000
  H   H2839     1.0  0.93924  0.63928  0.87496  1.0000
  C   C2371     1.0  0.99140  0.75008  0.92180  1.0000
  C   C2372     1.0  0.68162  0.93877  0.85112  1.0000
  H   H2840     1.0  0.81043  0.73298  0.74364  1.0000
  H   H2841     1.0  0.94058  0.78116  0.89633  1.0000
  Fe  Fe319     1.0  0.69843  0.54864  0.98636  1.0000
  H   H2842     1.0  0.98961  0.94832  0.90653  1.0000
  C   C2373     1.0  0.99153  0.88640  0.94930  1.0000
  H   H2843     1.0  0.91978  0.75967  0.90316  1.0000
  H   H2844     1.0  0.82621  0.51654  0.97040  1.0000
  N   N158      1.0  0.69820  0.58533  0.88423  1.0000
  C   C2374     1.0  0.67740  0.60307  0.84404  1.0000
  C   C2375     1.0  0.98590  0.80110  0.91863  1.0000
  C   C2376     1.0  0.70591  0.57808  0.89792  1.0000
  S   S639      1.0  0.71422  0.51109  0.98113  1.0000
  C   C2377     1.0  0.81843  0.98157  0.94782  1.0000
  C   C2378     1.0  0.76480  0.98395  0.74789  1.0000
  H   H2845     1.0  0.71607  0.65940  0.85647  1.0000
  H   H2846     1.0  0.79285  0.56050  0.97885  1.0000
  C   C2379     1.0  0.68174  0.53726  0.93639  1.0000
  C   C2380     1.0  0.69951  0.56288  0.87832  1.0000
  H   H2847     1.0  0.68807  0.51111  0.90272  1.0000
  C   C2381     1.0  0.95092  0.91065  0.94632  1.0000
  N   N159      1.0  0.94153  0.66816  0.85730  1.0000
  C   C2382     1.0  0.96580  0.73594  0.90205  1.0000
  C   C2383     1.0  0.71302  0.93065  0.76528  1.0000
  H   H2848     1.0  0.77054  0.72297  0.75540  1.0000
  H   H2849     1.0  0.69220  0.59866  0.76807  1.0000
  C   C2384     1.0  0.81873  0.72100  0.75227  1.0000
  Fe  Fe320     1.0  0.74874  0.51690  0.98710  1.0000
  H   H2850     1.0  0.71812  0.85553  0.77739  1.0000
  C   C2385     1.0  0.85726  0.61603  0.96589  1.0000
  C   C2386     1.0  0.68031  0.62793  0.84105  1.0000
  H   H2851     1.0  0.93032  0.70620  0.85954  1.0000
  S   S640      1.0  0.67043  0.51003  0.87346  1.0000
  H   H2852     1.0  0.79376  0.58122  0.74853  1.0000
  C   C2387     1.0  0.68899  0.56389  0.80101  1.0000
  H   H2853     1.0  0.73763  0.86337  0.78756  1.0000
  H   H2854     1.0  0.86361  0.63349  0.96205  1.0000
  H   H2855     1.0  0.78533  0.89947  0.87974  1.0000
  H   H2856     1.0  0.82392  0.94608  0.91118  1.0000
  H   H2857     1.0  0.93122  0.90645  0.92508  1.0000
  H   H2858     1.0  0.91869  0.64999  0.84901  1.0000
  H   H2859     1.0  0.95659  0.62957  0.85942  1.0000
  H   H2860     1.0  0.72386  0.56554  0.89764  1.0000
  C   C2388     1.0  0.91712  0.66507  0.85494  1.0000
  H   H2861     1.0  0.74617  0.98771  0.76837  1.0000
  C   C2389     1.0  0.68623  0.51857  0.91203  1.0000
  H   H2862     1.0  0.70019  0.98345  0.87225  1.0000
  H   H2863     1.0  0.90733  0.68239  0.84958  1.0000
  H   H2864     1.0  0.69250  0.56812  0.90549  1.0000
  C   C2390     1.0  0.67736  0.98313  0.84774  1.0000
  H   H2865     1.0  0.95435  0.69000  0.86904  1.0000
  H   H2866     1.0  0.71403  0.99131  0.89254  1.0000
  H   H2867     1.0  0.98931  0.67500  0.85488  1.0000
  H   H2868     1.0  0.66453  0.50474  0.76191  1.0000
  H   H2869     1.0  0.77836  0.93744  0.88634  1.0000
  C   C2391     1.0  0.77948  0.70980  0.76341  1.0000
  H   H2870     1.0  0.80407  0.98780  0.95584  1.0000
  C   C2392     1.0  0.83985  0.57049  0.97504  1.0000
  H   H2871     1.0  0.66487  0.60261  0.87636  1.0000
  N   N160      1.0  0.83121  0.54647  0.97954  1.0000
  C   C2393     1.0  0.71601  0.49551  0.80969  1.0000
  H   H2872     1.0  0.99560  0.94697  0.94110  1.0000
  C   C2394     1.0  0.99374  0.92847  0.90862  1.0000
  C   C2395     1.0  0.80892  0.98239  0.88193  1.0000
  H   H2873     1.0  0.75338  0.96804  0.89927  1.0000
  C   C2396     1.0  0.82527  0.59296  0.97825  1.0000
  H   H2874     1.0  0.82235  0.63227  0.97604  1.0000
  H   H2875     1.0  0.71088  0.98953  0.78991  1.0000
  H   H2876     1.0  0.72347  0.50354  0.91523  1.0000
  H   H2877     1.0  0.81273  0.98275  0.87092  1.0000
  H   H2878     1.0  0.66361  0.55705  0.81986  1.0000
  C   C2397     1.0  0.85118  0.98984  0.92888  1.0000
  C   C2398     1.0  0.99318  0.68567  0.82039  1.0000
  C   C2399     1.0  0.66388  0.53230  0.91707  1.0000
  H   H2879     1.0  0.82782  0.62609  0.74063  1.0000
  C   C2400     1.0  0.84593  0.53099  0.98974  1.0000
  H   H2880     1.0  0.81170  0.93753  0.74035  1.0000
