data_image0
_chemical_formula_structural       HCHC3FeS2FeS2FeSFeS3FeS2CFeC3HC2SFeS2C2HCSC2H3NHC6H4C2H2NC6H5CH2CH4C3HFeCHCFeHC2HCHSHNH2C7H2C2HCSCH3C2H5SFeCHCSH7CHCH3CHC3H2CHCH4NC5HSCH5CNSHCNHCH13CHCHSHCH2C3HCFeCHCH4C5H2C2FeHCSCH2NHC3SHC2H3SC2HC2FeS2FeSHCH2FeS2FeS2FeS2FeS2FeSFeS3CH6C6H4CH3CH2CHCHNC6H4SC2HC3H2CH3C2H3NCHCHCH8CSHSC2HC2HCH5C2HFeCH3CH2C3HC2H6CHCHC2H3NC3HC2NHCSHCH4SHCH4NC9H6C2SH2CH4SH2CHCFeC2H2SCH2SFeS2FeS2FeSFeS3H2CH3FeS2FeSH2CHSH2CHSC2HFeS2CHSCFeH3C7H4C2H3C6H4CFeCH2SHCFeC6H4CHC2HCH2CNH3C4HCH2C2H3CHC3H2C3H2NC4HC3H7SH2CHCH2CH3C3NCHCH4C2H2CH2CNHCH3SC3H2CH2CHCSCH2CH2NCFeHSCH3C3H4CH2CH3C2FeS2FeS2H6FeS2FeS2FeSFeS3FeS3C7H5SNHC7H6CHCNCNCHCH2CH3SHCS2CH2C2HC2HC2H3NH5C3SFeH2CHSCH2C2H2FeCH3CH2C2H4C2HC2SHCHC2HC5HCNC2H3CHCNC6FeCH14CHSCSHCH2CHCSFeH3CNSH2CHCH2C2H3C4H4CHCH2FeCHCH2C4HCFeS2FeS2FeS2FeSFeCS2FeS2FeS2HC2HC2NC6H4C6H5C2HCHC3H4SH2CHCHNHCHC2H8CSHC2H2SHC2HCH2CH4NC2HC2H5CSHSCHCH4CHCH3CHCFeSH2NCH2FeSHCH3CHC3HCH4C3HCHCH3C2H4CHC4H2CH2NC4HCHCH7CH2S2H4C2H3CHC2HC2SH2CSC2Fe2NHC5H2FeH2FeCSFeS2FeS2HNCNFeS2FeS2FeSFeS3H2SC2H2C6H4CNC6H4CHCH2CHFeCH6C2HC2H5C3H2C3H2SCSHC2HCSCH2SH3FeCH6CHCH2C3H3CH2C3HNC9H15CH4CH3C2H2CHCNHCH5CNC9H6CH2C2SH2CSHCFeC4FeHC2SHC5SHSC2HC2H2CSCHFeHCSFeS2FeS2FeSFeCS2C3HCHFeS2H4SHFeS2CH2CHSC6H4C6H5FeH2CHC3HCH3CHCFeCSCSHSHC6NC8H13SH3CH2C2H2CH2NH2SHCHCHNHCH2FeHCNC7HCH3CH6CH3NC6H2CH5SHC3H3CHC2H2CHCHCH2C2H2FeS2FeHSHCHC2HFeS2FeSCFeS2FeSFeS3CFeC2HC7H5CHC3HC7H4SNCHC3HCH3CHC2H2CNS2HNC6H2CH16FeC2SCH3CH2CHC2FeC3HC2NC9H12CFeHNHC2SNCFeCH2CH6CHCHCH4SCSCHCH2C2HSH3FeC3HS2H3C2HFeSCH5C2H6FeS2FeS2FeS2FeS2FeSFeS3CSHCFeHFeS2CH3CH2C5HCH3C3HC2HC8H4SHC6H5CHC2HCH3C3SC3H2NC8H15C2H2FeSHCH4C2H2CHFeCHCH4C2HC4HNC2HCH3SH2SHNH3CNH2C3H2NC3H2C2H2NCH9C3HSC3HCHC2HSH2CH4CH2NC2HCHFeHNCFeCH2CH3CH3CHC4H2FeS2C2HC2HFeS2CH2CNHFeHSFeS2FeS2FeSFeCS3CHCNH2C2H4SCFeH3C3HCH6C6H4C2H2C7H4CHCHCSCHFeH2CH4C2H3CHCNCHSHC2H4CSH2C2HC3H5CSC6HCHFeCHC2H3NC9H15FeHCH2FeH2SC2H2C2NH2CHCHSH3CSC2HCH2CH2SC2HCHC2SCHC2HC3HCFeS3C2SH2SNCHFeS2FeS2FeS2FeSFeS3H5C6H6C2H2CHC6H5C4HCHCH4C4HSFeHNC3SNH2CH9CH7CH2CHC3HC2H3CHCH4CHCH3C3H2CHNH4CHCHCSHCSNCHC7H4CH6CSH2FeC2H3CHFeC2HCSCH2SC2SHCHSHSHFeS2FeS2FeSCFeS2FeSFeCS3CH3CFeS2H3C7H7C6H5CHCHC2H5C3SHNC9H8FeH7C3FeC4H4CHC2HNC9H11FeH2NC9H14NC9H8FeCFeNH2CH3CHSH2CS2FeHC2HC2SCHCSC2HC2H3CSFeS2HFeS2FeS2FeSCFeSFeS3H2C2SHFeS2CH2C6H6CH2CHC6H4FeHC3H9SH2FeH2CH3NH4SCHC2HNHSHCH2CHCH2CH3NC2H3C8H4CHC2NC6H3CFeH5C2SHCH2FeC3HNH3CSC2HC2H2CH4CHCHC2SH2C2FeH2C2HSCH2C3FeH2CHCH4CFeCSCHCH2C2H3C2H2C2HCHCH2C2SC5SHC3H2CH2FeS2CHCH2FeS2FeS2FeSFeS3FeS2FeS2CHC2HC6H4C6H4CHCHSH3CH2SCH2NH3CH2CHCFeHC2HCHCNCNC2H7CSC3HFeCHCH3NC9H12C4H5CH2CH4CHNHC4HC4H2CH3SHC2HCSCH2CHCHCHC3FeC2SH9S2CH3SFeS2FeS2HS2FeSFe2S2FeSFeS3H2CHSC6H4CH2C9H5NHCH5CH3SH2SHC3H4C2HC3FeH3FeHCHSH2CNHCHFeH3SC3HCH2NH2NH2CH2C8H5NC9H14NC7H6C2HCHCHC2SHC3FeCH3CH4C3HC2HC2H2SH3C3H3FeH7FeS2FeS2FeS2FeSFeS3FeS3H5FeCSH5CHC9H6CHSCHC6H5CHC2SCH2CH3C5HNHC3H2CSH2NH8C3NCHC6HC3HCH2C2H2CH5SH3SHFeNCH2NC9H13C2HCHC2NHC2SH2CHCH2CH2C3HCHCHSC5HSC2HCH2CHC2H2CH3SHSFeCFeHSC3
_chemical_formula_sum              "H1656 C1380 Fe184 S368 N92"
_cell_length_a       58.7607
_cell_length_b       59.5095
_cell_length_c       58.7994
_cell_angle_alpha    89.0948
_cell_angle_beta     88.4446
_cell_angle_gamma    88.8802

_space_group_name_H-M_alt    "P 1"
_space_group_IT_number       1

loop_
  _space_group_symop_operation_xyz
  'x, y, z'

loop_
  _atom_site_type_symbol
  _atom_site_label
  _atom_site_symmetry_multiplicity
  _atom_site_fract_x
  _atom_site_fract_y
  _atom_site_fract_z
  _atom_site_occupancy
  H   H1        1.0  0.18296  0.18255  0.24333  1.0000
  C   C1        1.0  0.05457  0.19844  0.37631  1.0000
  H   H2        1.0  0.01678  0.04636  0.40286  1.0000
  C   C2        1.0  0.01473  0.24665  0.01217  1.0000
  C   C3        1.0  0.39607  0.01433  0.15972  1.0000
  C   C4        1.0  0.16974  0.18022  0.25697  1.0000
  Fe  Fe1       1.0  0.21658  0.16491  0.16811  1.0000
  S   S1        1.0  0.20736  0.16061  0.20520  1.0000
  S   S2        1.0  0.24457  0.14491  0.14894  1.0000
  Fe  Fe2       1.0  0.18431  0.20574  0.16237  1.0000
  S   S3        1.0  0.17251  0.20384  0.19928  1.0000
  S   S4        1.0  0.17026  0.23655  0.14286  1.0000
  Fe  Fe3       1.0  0.20943  0.19826  0.20741  1.0000
  S   S5        1.0  0.22109  0.21428  0.24022  1.0000
  Fe  Fe4       1.0  0.17099  0.16660  0.19487  1.0000
  S   S6        1.0  0.14491  0.14271  0.21122  1.0000
  S   S7        1.0  0.22140  0.20248  0.17102  1.0000
  S   S8        1.0  0.18007  0.16852  0.15720  1.0000
  Fe  Fe5       1.0  0.02920  0.13345  0.28844  1.0000
  S   S9        1.0  0.03839  0.10915  0.31644  1.0000
  S   S10       1.0  0.05479  0.15849  0.27305  1.0000
  C   C5        1.0  0.00606  0.19384  0.41773  1.0000
  Fe  Fe6       1.0  0.31167  0.00168  0.08186  1.0000
  C   C6        1.0  0.47439  0.10442  0.41837  1.0000
  C   C7        1.0  0.36211  0.01517  0.21235  1.0000
  C   C8        1.0  0.24577  0.10294  0.07270  1.0000
  H   H3        1.0  0.41147  0.03639  0.23108  1.0000
  C   C9        1.0  0.46242  0.12926  0.38844  1.0000
  C   C10       1.0  0.34444  0.22958  0.25347  1.0000
  S   S11       1.0  0.47733  0.18549  0.37733  1.0000
  Fe  Fe7       1.0  0.29005  0.01583  0.12806  1.0000
  S   S12       1.0  0.26811  0.03936  0.15055  1.0000
  S   S13       1.0  0.32426  0.02218  0.11128  1.0000
  C   C11       1.0  0.31388  0.05206  0.20049  1.0000
  C   C12       1.0  0.38606  0.20877  0.26807  1.0000
  H   H4        1.0  0.23632  0.04632  0.05262  1.0000
  C   C13       1.0  0.16625  0.24045  0.11309  1.0000
  S   S14       1.0  0.01484  0.12957  0.37443  1.0000
  C   C14       1.0  0.23158  0.11833  0.08433  1.0000
  C   C15       1.0  0.05185  0.23491  0.39402  1.0000
  H   H5        1.0  0.03091  0.18984  0.30475  1.0000
  H   H6        1.0  0.05964  0.02353  0.34010  1.0000
  H   H7        1.0  0.29676  0.05132  0.19276  1.0000
  N   N1        1.0  0.47926  0.11130  0.39435  1.0000
  H   H8        1.0  0.42869  0.22479  0.36775  1.0000
  C   C16       1.0  0.25142  0.11564  0.15059  1.0000
  C   C17       1.0  0.27049  0.10728  0.13814  1.0000
  C   C18       1.0  0.27614  0.08411  0.13827  1.0000
  C   C19       1.0  0.26248  0.06891  0.15050  1.0000
  C   C20       1.0  0.24374  0.07731  0.16339  1.0000
  C   C21       1.0  0.23822  0.10052  0.16346  1.0000
  H   H9        1.0  0.28095  0.11885  0.12831  1.0000
  H   H10       1.0  0.29113  0.07809  0.12909  1.0000
  H   H11       1.0  0.23317  0.06576  0.17312  1.0000
  H   H12       1.0  0.22352  0.10665  0.17314  1.0000
  C   C22       1.0  0.01279  0.02146  0.30132  1.0000
  C   C23       1.0  0.17636  0.22612  0.09695  1.0000
  H   H13       1.0  0.20808  0.12354  0.11255  1.0000
  H   H14       1.0  0.18650  0.21179  0.10251  1.0000
  N   N2        1.0  0.02968  0.04942  0.36815  1.0000
  C   C24       1.0  0.11899  0.14760  0.22698  1.0000
  C   C25       1.0  0.10715  0.12904  0.23612  1.0000
  C   C26       1.0  0.08729  0.13200  0.24990  1.0000
  C   C27       1.0  0.07905  0.15364  0.25481  1.0000
  C   C28       1.0  0.09087  0.17222  0.24568  1.0000
  C   C29       1.0  0.11060  0.16926  0.23172  1.0000
  H   H15       1.0  0.11343  0.11221  0.23257  1.0000
  H   H16       1.0  0.07843  0.11753  0.25676  1.0000
  H   H17       1.0  0.08461  0.18904  0.24926  1.0000
  H   H18       1.0  0.11935  0.18372  0.22469  1.0000
  H   H19       1.0  0.38644  0.02512  0.14841  1.0000
  C   C30       1.0  0.24385  0.23312  0.24383  1.0000
  H   H20       1.0  0.18033  0.17389  0.32101  1.0000
  H   H21       1.0  0.26265  0.03039  0.05438  1.0000
  C   C31       1.0  0.39470  0.03613  0.22382  1.0000
  H   H22       1.0  0.49232  0.14636  0.48361  1.0000
  H   H23       1.0  0.25692  0.23188  0.20936  1.0000
  H   H24       1.0  0.16496  0.13586  0.25509  1.0000
  H   H25       1.0  0.34150  0.23397  0.29980  1.0000
  C   C32       1.0  0.46610  0.09160  0.35894  1.0000
  C   C33       1.0  0.05435  0.21166  0.39579  1.0000
  C   C34       1.0  0.17357  0.23046  0.07350  1.0000
  H   H26       1.0  0.33853  0.21395  0.26223  1.0000
  Fe  Fe8       1.0  0.48878  0.22016  0.36731  1.0000
  C   C35       1.0  0.01133  0.15466  0.39060  1.0000
  H   H27       1.0  0.07201  0.21872  0.31266  1.0000
  C   C36       1.0  0.23378  0.07359  0.09916  1.0000
  Fe  Fe9       1.0  0.47906  0.00731  0.22381  1.0000
  H   H28       1.0  0.48786  0.09319  0.42539  1.0000
  C   C37       1.0  0.46654  0.07294  0.34475  1.0000
  C   C38       1.0  0.03154  0.05311  0.39292  1.0000
  H   H29       1.0  0.00586  0.05695  0.34198  1.0000
  C   C39       1.0  0.42829  0.00906  0.18539  1.0000
  H   H30       1.0  0.16611  0.19701  0.26448  1.0000
  S   S15       1.0  0.02874  0.22552  0.49866  1.0000
  H   H31       1.0  0.37565  0.19951  0.25680  1.0000
  N   N3        1.0  0.17731  0.16369  0.27443  1.0000
  H   H32       1.0  0.20970  0.08388  0.12547  1.0000
  H   H33       1.0  0.30580  0.03546  0.00044  1.0000
  C   C40       1.0  0.15978  0.16231  0.29296  1.0000
  C   C41       1.0  0.16402  0.16803  0.31583  1.0000
  C   C42       1.0  0.13750  0.15514  0.28829  1.0000
  C   C43       1.0  0.14700  0.16625  0.33287  1.0000
  C   C44       1.0  0.12060  0.15350  0.30537  1.0000
  C   C45       1.0  0.12539  0.15889  0.32768  1.0000
  C   C46       1.0  0.01924  0.15498  0.41301  1.0000
  H   H34       1.0  0.19919  0.18812  0.28899  1.0000
  H   H35       1.0  0.02736  0.14007  0.42006  1.0000
  C   C47       1.0  0.49011  0.10984  0.30064  1.0000
  C   C48       1.0  0.36410  0.05510  0.20401  1.0000
  H   H36       1.0  0.13301  0.15066  0.27129  1.0000
  C   C49       1.0  0.07265  0.20090  0.31856  1.0000
  S   S16       1.0  0.31205  0.01635  0.04516  1.0000
  C   C50       1.0  0.02509  0.00228  0.29375  1.0000
  H   H37       1.0  0.04945  0.24098  0.33689  1.0000
  H   H38       1.0  0.26105  0.07710  0.03477  1.0000
  H   H39       1.0  0.04724  0.04483  0.39952  1.0000
  C   C51       1.0  0.33379  0.03938  0.16656  1.0000
  C   C52       1.0  0.00087  0.17414  0.38180  1.0000
  H   H40       1.0  0.00753  0.07835  0.36313  1.0000
  H   H41       1.0  0.15064  0.17053  0.35025  1.0000
  H   H42       1.0  0.18164  0.21933  0.06120  1.0000
  H   H43       1.0  0.28518  0.05880  0.03920  1.0000
  H   H44       1.0  0.31500  0.00780  0.21137  1.0000
  S   S17       1.0  0.47233  0.00147  0.26152  1.0000
  Fe  Fe10      1.0  0.00876  0.12420  0.33641  1.0000
  C   C53       1.0  0.25117  0.04263  0.06350  1.0000
  H   H45       1.0  0.45625  0.10601  0.35323  1.0000
  C   C54       1.0  0.38000  0.23079  0.27547  1.0000
  S   S18       1.0  0.49673  0.16886  0.43985  1.0000
  H   H46       1.0  0.07373  0.19058  0.30288  1.0000
  H   H47       1.0  0.24491  0.03347  0.07897  1.0000
  H   H48       1.0  0.06937  0.16498  0.34618  1.0000
  H   H49       1.0  0.18499  0.12818  0.27650  1.0000
  H   H50       1.0  0.01611  0.19639  0.33112  1.0000
  H   H51       1.0  0.21268  0.17143  0.26764  1.0000
  H   H52       1.0  0.31755  0.03971  0.15723  1.0000
  C   C55       1.0  0.18047  0.14137  0.26371  1.0000
  H   H53       1.0  0.29417  0.04582  0.07738  1.0000
  C   C56       1.0  0.04652  0.01433  0.34919  1.0000
  H   H54       1.0  0.31150  0.04991  0.21923  1.0000
  H   H55       1.0  0.15422  0.17488  0.24835  1.0000
  H   H56       1.0  0.19415  0.14152  0.25023  1.0000
  C   C57       1.0  0.49391  0.08767  0.29285  1.0000
  H   H57       1.0  0.23109  0.13589  0.07912  1.0000
  C   C58       1.0  0.41519  0.02276  0.17072  1.0000
  C   C59       1.0  0.24727  0.07999  0.07980  1.0000
  C   C60       1.0  0.21847  0.11140  0.10313  1.0000
  H   H58       1.0  0.48418  0.08147  0.27898  1.0000
  H   H59       1.0  0.03215  0.07138  0.39682  1.0000
  C   C61       1.0  0.02986  0.02499  0.36359  1.0000
  H   H60       1.0  0.34188  0.05588  0.16334  1.0000
  C   C62       1.0  0.01671  0.17441  0.42647  1.0000
  H   H61       1.0  0.08877  0.19818  0.32780  1.0000
  H   H62       1.0  0.25572  0.10956  0.05854  1.0000
  H   H63       1.0  0.23488  0.05680  0.10641  1.0000
  H   H64       1.0  0.10376  0.14784  0.30115  1.0000
  N   N4        1.0  0.05262  0.19500  0.33320  1.0000
  C   C63       1.0  0.28156  0.05794  0.08485  1.0000
  C   C64       1.0  0.05358  0.17032  0.33748  1.0000
  C   C65       1.0  0.03161  0.20005  0.32046  1.0000
  C   C66       1.0  0.05258  0.20836  0.35425  1.0000
  C   C67       1.0  0.41515  0.23024  0.29725  1.0000
  H   H65       1.0  0.05088  0.24492  0.40930  1.0000
  S   S19       1.0  0.02503  0.04860  0.29696  1.0000
  C   C68       1.0  0.00804  0.05984  0.36045  1.0000
  H   H66       1.0  0.05334  0.16075  0.32137  1.0000
  H   H67       1.0  0.03860  0.16468  0.34790  1.0000
  H   H68       1.0  0.46257  0.14338  0.40070  1.0000
  H   H69       1.0  0.43604  0.20027  0.29539  1.0000
  H   H70       1.0  0.38730  0.23291  0.36359  1.0000
  C   C69       1.0  0.01282  0.01107  0.37359  1.0000
  N   N5        1.0  0.26319  0.06355  0.06889  1.0000
  S   S20       1.0  0.45162  0.02112  0.19965  1.0000
  H   H71       1.0  0.45727  0.07349  0.32904  1.0000
  C   C70       1.0  0.21942  0.08905  0.11040  1.0000
  N   N6        1.0  0.32977  0.03460  0.19111  1.0000
  H   H72       1.0  0.41983  0.04010  0.16792  1.0000
  C   C71       1.0  0.19995  0.17079  0.28207  1.0000
  H   H73       1.0  0.02300  0.17436  0.44357  1.0000
  H   H74       1.0  0.00905  0.16766  0.48606  1.0000
  H   H75       1.0  0.44479  0.12277  0.38869  1.0000
  H   H76       1.0  0.35779  0.07053  0.19636  1.0000
  H   H77       1.0  0.20698  0.15891  0.29499  1.0000
  H   H78       1.0  0.04786  0.07993  0.36013  1.0000
  H   H79       1.0  0.11238  0.15730  0.34098  1.0000
  H   H80       1.0  0.04125  0.00439  0.28480  1.0000
  H   H81       1.0  0.03034  0.21784  0.31464  1.0000
  H   H82       1.0  0.04767  0.06029  0.33757  1.0000
  H   H83       1.0  0.47750  0.12051  0.29253  1.0000
  H   H84       1.0  0.06550  0.05509  0.36178  1.0000
  H   H85       1.0  0.29097  0.07322  0.08934  1.0000
  C   C72       1.0  0.38522  0.05564  0.21438  1.0000
  H   H86       1.0  0.31981  0.06940  0.19692  1.0000
  C   C73       1.0  0.35178  0.03486  0.20281  1.0000
  H   H87       1.0  0.47346  0.11922  0.42985  1.0000
  S   S21       1.0  0.00606  0.10911  0.27169  1.0000
  H   H88       1.0  0.39467  0.07110  0.21456  1.0000
  C   C74       1.0  0.27404  0.07197  0.04735  1.0000
  H   H89       1.0  0.27487  0.05018  0.10095  1.0000
  H   H90       1.0  0.28539  0.08633  0.05032  1.0000
  C   C75       1.0  0.25878  0.23914  0.22592  1.0000
  C   C76       1.0  0.40608  0.19796  0.27523  1.0000
  C   C77       1.0  0.42303  0.24037  0.35981  1.0000
  H   H91       1.0  0.45788  0.09559  0.42005  1.0000
  C   C78       1.0  0.05073  0.23220  0.35304  1.0000
  Fe  Fe11      1.0  0.01325  0.08556  0.30142  1.0000
  C   C79       1.0  0.04858  0.06161  0.35641  1.0000
  H   H92       1.0  0.34522  0.02628  0.15875  1.0000
  C   C80       1.0  0.05020  0.24519  0.37268  1.0000
  H   H93       1.0  0.41044  0.18116  0.26948  1.0000
  H   H94       1.0  0.46629  0.13688  0.37135  1.0000
  H   H95       1.0  0.05572  0.18049  0.37915  1.0000
  H   H96       1.0  0.05531  0.20380  0.41252  1.0000
  C   C81       1.0  0.42056  0.20867  0.28981  1.0000
  C   C82       1.0  0.38316  0.01598  0.22283  1.0000
  C   C83       1.0  0.31433  0.00417  0.01747  1.0000
  C   C84       1.0  0.49260  0.05359  0.36959  1.0000
  C   C85       1.0  0.47879  0.09164  0.37922  1.0000
  H   H97       1.0  0.32878  0.23929  0.24865  1.0000
  H   H98       1.0  0.30119  0.01335  0.18504  1.0000
  C   C86       1.0  0.39956  0.24505  0.35743  1.0000
  C   C87       1.0  0.31809  0.01272  0.19325  1.0000
  Fe  Fe12      1.0  0.00617  0.23449  0.46918  1.0000
  H   H99       1.0  0.35349  0.22518  0.23723  1.0000
  C   C88       1.0  0.49223  0.07211  0.38397  1.0000
  S   S22       1.0  0.00226  0.21902  0.43372  1.0000
  C   C89       1.0  0.24686  0.24245  0.26538  1.0000
  H   H100      1.0  0.23545  0.23792  0.27938  1.0000
  H   H101      1.0  0.42646  0.23854  0.30861  1.0000
  N   N7        1.0  0.35900  0.24284  0.26836  1.0000
  H   H102      1.0  0.20502  0.24755  0.20787  1.0000
  C   C90       1.0  0.47975  0.05400  0.35004  1.0000
  C   C91       1.0  0.39520  0.24118  0.29028  1.0000
  C   C92       1.0  0.49815  0.16313  0.48670  1.0000
  S   S23       1.0  0.49564  0.14608  0.32864  1.0000
  H   H103      1.0  0.48064  0.03993  0.33851  1.0000
  C   C93       1.0  0.34499  0.24895  0.28879  1.0000
  C   C94       1.0  0.16036  0.24892  0.06583  1.0000
  H   H104      1.0  0.39113  0.00066  0.22930  1.0000
  H   H105      1.0  0.30689  0.24836  0.39999  1.0000
  H   H106      1.0  0.32812  0.99904  0.18462  1.0000
  S   S24       1.0  0.00067  0.14989  0.30933  1.0000
  C   C95       1.0  0.08341  0.21053  0.82071  1.0000
  C   C96       1.0  0.20884  0.06110  0.88312  1.0000
  H   H107      1.0  0.50017  0.15761  0.52319  1.0000
  C   C97       1.0  0.04340  0.02077  0.74407  1.0000
  C   C98       1.0  0.20489  0.10091  0.89338  1.0000
  Fe  Fe13      1.0  0.03537  0.11475  0.70857  1.0000
  S   S25       1.0  0.03478  0.09675  0.67500  1.0000
  S   S26       1.0  0.06684  0.11121  0.73082  1.0000
  Fe  Fe14      1.0  0.01457  0.12698  0.66192  1.0000
  S   S27       1.0  0.02578  0.14560  0.62878  1.0000
  H   H108      1.0  0.08638  0.03980  0.73485  1.0000
  C   C99       1.0  0.02358  0.01435  0.68169  1.0000
  H   H109      1.0  0.26114  0.09031  0.77960  1.0000
  H   H110      1.0  0.46200  0.04200  0.75539  1.0000
  Fe  Fe15      1.0  0.47540  0.19799  0.61703  1.0000
  S   S28       1.0  0.43960  0.21408  0.61876  1.0000
  S   S29       1.0  0.48266  0.16834  0.59403  1.0000
  Fe  Fe16      1.0  0.29935  0.02446  0.87446  1.0000
  S   S30       1.0  0.29173  0.06214  0.87189  1.0000
  S   S31       1.0  0.33400  0.01360  0.88716  1.0000
  Fe  Fe17      1.0  0.16319  0.17842  0.79493  1.0000
  S   S32       1.0  0.19775  0.16605  0.78227  1.0000
  S   S33       1.0  0.13089  0.18408  0.77455  1.0000
  Fe  Fe18      1.0  0.17973  0.18726  0.84293  1.0000
  S   S34       1.0  0.21546  0.17564  0.83400  1.0000
  S   S35       1.0  0.16862  0.19286  0.87996  1.0000
  Fe  Fe19      1.0  0.21163  0.19528  0.80111  1.0000
  S   S36       1.0  0.24439  0.21337  0.79081  1.0000
  Fe  Fe20      1.0  0.19972  0.14736  0.81589  1.0000
  S   S37       1.0  0.21084  0.11046  0.81821  1.0000
  S   S38       1.0  0.17699  0.20925  0.81166  1.0000
  S   S39       1.0  0.16404  0.15739  0.82690  1.0000
  C   C100      1.0  0.25025  0.22997  0.76606  1.0000
  H   H111      1.0  0.01163  0.19816  0.64414  1.0000
  H   H112      1.0  0.20297  0.04686  0.87378  1.0000
  H   H113      1.0  0.41919  0.07962  0.73122  1.0000
  H   H114      1.0  0.30968  0.02029  0.96133  1.0000
  H   H115      1.0  0.05702  0.04204  0.70611  1.0000
  H   H116      1.0  0.12107  0.18588  0.82223  1.0000
  C   C101      1.0  0.26929  0.07521  0.85663  1.0000
  C   C102      1.0  0.26698  0.09878  0.85674  1.0000
  C   C103      1.0  0.24942  0.10990  0.84491  1.0000
  C   C104      1.0  0.23373  0.09750  0.83301  1.0000
  C   C105      1.0  0.23620  0.07395  0.83271  1.0000
  C   C106      1.0  0.25389  0.06283  0.84441  1.0000
  H   H117      1.0  0.27895  0.10849  0.86597  1.0000
  H   H118      1.0  0.24815  0.12802  0.84503  1.0000
  H   H119      1.0  0.22426  0.06419  0.82349  1.0000
  H   H120      1.0  0.25549  0.04469  0.84412  1.0000
  C   C107      1.0  0.14681  0.23850  0.92711  1.0000
  H   H121      1.0  0.31525  0.07300  0.82357  1.0000
  H   H122      1.0  0.28307  0.06227  0.80021  1.0000
  H   H123      1.0  0.47470  0.24083  0.64024  1.0000
  C   C108      1.0  0.18694  0.13092  0.91549  1.0000
  H   H124      1.0  0.15694  0.20347  0.92630  1.0000
  H   H125      1.0  0.25285  0.07579  0.91550  1.0000
  C   C109      1.0  0.36247  0.04152  0.78688  1.0000
  H   H126      1.0  0.22487  0.14128  0.89026  1.0000
  C   C110      1.0  0.19708  0.08174  0.88194  1.0000
  H   H127      1.0  0.48467  0.12397  0.67088  1.0000
  N   N8        1.0  0.19318  0.12318  0.89223  1.0000
  C   C111      1.0  0.08438  0.13190  0.74269  1.0000
  C   C112      1.0  0.10334  0.12478  0.75528  1.0000
  C   C113      1.0  0.11777  0.14045  0.76507  1.0000
  C   C114      1.0  0.11338  0.16353  0.76242  1.0000
  C   C115      1.0  0.09435  0.17066  0.74995  1.0000
  C   C116      1.0  0.07995  0.15497  0.74011  1.0000
  H   H128      1.0  0.10698  0.10700  0.75738  1.0000
  H   H129      1.0  0.13231  0.13467  0.77458  1.0000
  H   H130      1.0  0.09078  0.18845  0.74774  1.0000
  H   H131      1.0  0.06546  0.16073  0.73050  1.0000
  S   S40       1.0  0.28018  0.00088  0.89808  1.0000
  C   C117      1.0  0.42428  0.23149  0.63847  1.0000
  C   C118      1.0  0.05935  0.00262  0.74642  1.0000
  H   H132      1.0  0.01810  0.05987  0.75296  1.0000
  C   C119      1.0  0.01892  0.18746  0.57323  1.0000
  C   C120      1.0  0.02782  0.17386  0.59098  1.0000
  C   C121      1.0  0.01341  0.16184  0.60617  1.0000
  H   H133      1.0  0.03030  0.19675  0.56196  1.0000
  H   H134      1.0  0.04604  0.17286  0.59313  1.0000
  C   C122      1.0  0.27222  0.23862  0.76258  1.0000
  H   H135      1.0  0.44620  0.22561  0.66677  1.0000
  H   H136      1.0  0.21288  0.13488  0.86347  1.0000
  H   H137      1.0  0.32611  0.11282  0.82554  1.0000
  C   C123      1.0  0.02017  0.01507  0.74223  1.0000
  C   C124      1.0  0.23903  0.24843  0.73078  1.0000
  H   H138      1.0  0.35864  0.07734  0.78349  1.0000
  H   H139      1.0  0.41168  0.04100  0.71728  1.0000
  H   H140      1.0  0.18226  0.08233  0.87148  1.0000
  N   N9        1.0  0.42632  0.04855  0.74937  1.0000
  C   C125      1.0  0.43202  0.07203  0.74277  1.0000
  H   H141      1.0  0.42400  0.01703  0.73168  1.0000
  C   C126      1.0  0.09662  0.22799  0.85496  1.0000
  H   H142      1.0  0.23961  0.14264  0.75553  1.0000
  C   C127      1.0  0.11870  0.23062  0.81969  1.0000
  H   H143      1.0  0.12514  0.22188  0.80409  1.0000
  H   H144      1.0  0.00460  0.19374  0.68104  1.0000
  H   H145      1.0  0.03448  0.02811  0.67678  1.0000
  H   H146      1.0  0.39695  0.00515  0.92371  1.0000
  H   H147      1.0  0.44871  0.07283  0.73330  1.0000
  H   H148      1.0  0.43357  0.08276  0.75796  1.0000
  H   H149      1.0  0.21671  0.22836  0.75245  1.0000
  H   H150      1.0  0.44490  0.04782  0.78054  1.0000
  C   C128      1.0  0.43133  0.23461  0.66074  1.0000
  S   S41       1.0  0.49813  0.18480  0.64468  1.0000
  H   H151      1.0  0.44207  0.03698  0.71793  1.0000
  S   S42       1.0  0.01756  0.14553  0.69484  1.0000
  C   C129      1.0  0.11635  0.19463  0.83833  1.0000
  C   C130      1.0  0.38987  0.06537  0.76724  1.0000
  H   H152      1.0  0.43220  0.02132  0.83769  1.0000
  C   C131      1.0  0.17201  0.12328  0.87895  1.0000
  C   C132      1.0  0.31040  0.01794  0.99816  1.0000
  H   H153      1.0  0.23621  0.11996  0.77534  1.0000
  C   C133      1.0  0.20863  0.13973  0.88126  1.0000
  H   H154      1.0  0.07130  0.20017  0.83109  1.0000
  H   H155      1.0  0.20070  0.15686  0.88068  1.0000
  H   H156      1.0  0.39415  0.08230  0.76215  1.0000
  H   H157      1.0  0.37068  0.00623  0.78770  1.0000
  H   H158      1.0  0.10597  0.18265  0.84873  1.0000
  C   C134      1.0  0.15475  0.21873  0.91631  1.0000
  C   C135      1.0  0.00406  0.22153  0.61765  1.0000
  H   H159      1.0  0.23829  0.04318  0.89550  1.0000
  Fe  Fe21      1.0  0.00121  0.08286  0.68749  1.0000
  C   C136      1.0  0.22515  0.09805  0.90585  1.0000
  H   H160      1.0  0.03699  0.05239  0.77554  1.0000
  H   H161      1.0  0.17610  0.11843  0.92472  1.0000
  H   H162      1.0  0.00717  0.02777  0.73906  1.0000
  C   C137      1.0  0.42373  0.00790  0.82932  1.0000
  H   H163      1.0  0.10105  0.22622  0.91317  1.0000
  H   H164      1.0  0.47501  0.09712  0.70236  1.0000
  C   C138      1.0  0.40125  0.00242  0.83619  1.0000
  C   C139      1.0  0.15973  0.21856  0.89277  1.0000
  C   C140      1.0  0.49703  0.07030  0.68997  1.0000
  H   H165      1.0  0.17732  0.14729  0.91505  1.0000
  C   C141      1.0  0.22872  0.05895  0.89540  1.0000
  C   C142      1.0  0.23368  0.23487  0.74999  1.0000
  H   H166      1.0  0.02879  0.05191  0.71364  1.0000
  H   H167      1.0  0.16065  0.23862  0.86202  1.0000
  H   H168      1.0  0.10983  0.24616  0.81370  1.0000
  H   H169      1.0  0.08825  0.20085  0.80511  1.0000
  H   H170      1.0  0.25536  0.11702  0.75081  1.0000
  H   H171      1.0  0.07842  0.04164  0.76485  1.0000
  C   C143      1.0  0.42592  0.03532  0.72820  1.0000
  H   H172      1.0  0.17564  0.11869  0.86087  1.0000
  C   C144      1.0  0.44493  0.03958  0.76366  1.0000
  H   H173      1.0  0.15929  0.11151  0.88648  1.0000
  C   C145      1.0  0.36931  0.06277  0.77953  1.0000
  C   C146      1.0  0.23689  0.07740  0.90669  1.0000
  H   H174      1.0  0.07892  0.06618  0.74681  1.0000
  H   H175      1.0  0.20210  0.13376  0.92588  1.0000
  H   H176      1.0  0.40675  0.01004  0.76657  1.0000
  N   N10       1.0  0.05033  0.04453  0.74207  1.0000
  C   C147      1.0  0.03626  0.05883  0.75771  1.0000
  C   C148      1.0  0.07458  0.04800  0.74746  1.0000
  C   C149      1.0  0.04695  0.05248  0.71841  1.0000
  H   H177      1.0  0.13256  0.19760  0.84708  1.0000
  C   C150      1.0  0.39667  0.02513  0.76969  1.0000
  C   C151      1.0  0.15679  0.23845  0.88010  1.0000
  N   N11       1.0  0.10368  0.21602  0.83393  1.0000
  H   H178      1.0  0.44352  0.02125  0.76697  1.0000
  C   C152      1.0  0.40439  0.24277  0.63128  1.0000
  S   S43       1.0  0.00277  0.09925  0.72179  1.0000
  H   H179      1.0  0.04205  0.07658  0.75743  1.0000
  C   C153      1.0  0.48705  0.09203  0.68912  1.0000
  H   H180      1.0  0.14294  0.23833  0.94521  1.0000
  H   H181      1.0  0.07741  0.00517  0.74739  1.0000
  H   H182      1.0  0.16370  0.14030  0.87846  1.0000
  H   H183      1.0  0.30504  0.14198  0.80472  1.0000
  S   S44       1.0  0.46447  0.00222  0.80542  1.0000
  H   H184      1.0  0.34665  0.03952  0.79658  1.0000
  C   C154      1.0  0.40427  0.04652  0.76201  1.0000
  H   H185      1.0  0.38260  0.00434  0.89721  1.0000
  H   H186      1.0  0.07400  0.22576  0.81470  1.0000
  H   H187      1.0  0.28515  0.23497  0.77492  1.0000
  H   H188      1.0  0.23242  0.11191  0.91458  1.0000
  N   N12       1.0  0.26804  0.13724  0.77773  1.0000
  C   C155      1.0  0.25799  0.15292  0.79472  1.0000
  C   C156      1.0  0.28326  0.15004  0.76193  1.0000
  C   C157      1.0  0.24906  0.12872  0.76426  1.0000
  C   C158      1.0  0.28119  0.11926  0.78954  1.0000
  C   C159      1.0  0.30002  0.12474  0.80292  1.0000
  C   C160      1.0  0.27557  0.09614  0.78867  1.0000
  C   C161      1.0  0.31229  0.10818  0.81481  1.0000
  C   C162      1.0  0.28811  0.07971  0.80045  1.0000
  C   C163      1.0  0.30632  0.08572  0.81360  1.0000
  H   H189      1.0  0.27101  0.16162  0.80452  1.0000
  H   H190      1.0  0.24768  0.16645  0.78648  1.0000
  H   H191      1.0  0.24664  0.14390  0.80706  1.0000
  H   H192      1.0  0.29665  0.15903  0.77097  1.0000
  H   H193      1.0  0.27367  0.16331  0.75233  1.0000
  H   H194      1.0  0.29188  0.13873  0.74934  1.0000
  C   C164      1.0  0.31259  0.00936  0.97587  1.0000
  C   C165      1.0  0.37606  0.02275  0.78187  1.0000
  S   S45       1.0  0.48921  0.05175  0.71303  1.0000
  H   H195      1.0  0.11197  0.20471  0.87998  1.0000
  H   H196      1.0  0.13376  0.23576  0.82932  1.0000
  C   C166      1.0  0.10225  0.22003  0.87710  1.0000
  H   H197      1.0  0.05232  0.07015  0.71582  1.0000
  H   H198      1.0  0.39256  0.01170  0.84961  1.0000
  H   H199      1.0  0.02111  0.22026  0.61016  1.0000
  H   H200      1.0  0.02902  0.00436  0.62335  1.0000
  S   S46       1.0  0.30064  0.00075  0.84508  1.0000
  H   H201      1.0  0.25418  0.24062  0.61542  1.0000
  H   H202      1.0  0.27190  0.24519  0.63941  1.0000
  C   C167      1.0  0.09608  0.23228  0.89649  1.0000
  H   H203      1.0  0.39868  0.24037  0.61416  1.0000
  C   C168      1.0  0.49248  0.10736  0.67124  1.0000
  Fe  Fe22      1.0  0.50014  0.01733  0.72802  1.0000
  C   C169      1.0  0.00052  0.01865  0.68682  1.0000
  C   C170      1.0  0.08427  0.24870  0.85361  1.0000
  H   H204      1.0  0.02756  0.24719  0.99856  1.0000
  H   H205      1.0  0.20857  0.30048  0.02392  1.0000
  S   S47       1.0  0.14248  0.36332  0.00479  1.0000
  C   C171      1.0  0.31126  0.26288  0.38866  1.0000
  H   H206      1.0  0.21217  0.27586  0.23342  1.0000
  H   H207      1.0  0.22742  0.40684  0.43445  1.0000
  S   S48       1.0  0.05146  0.29927  0.01500  1.0000
  Fe  Fe23      1.0  0.29731  0.32461  0.33218  1.0000
  S   S49       1.0  0.30639  0.28922  0.32190  1.0000
  S   S50       1.0  0.26603  0.32968  0.35561  1.0000
  Fe  Fe24      1.0  0.33529  0.34447  0.30201  1.0000
  S   S51       1.0  0.34750  0.31040  0.28994  1.0000
  S   S52       1.0  0.35356  0.37762  0.29519  1.0000
  Fe  Fe25      1.0  0.31022  0.30283  0.28634  1.0000
  S   S53       1.0  0.30092  0.28400  0.25425  1.0000
  Fe  Fe26      1.0  0.34294  0.29868  0.32630  1.0000
  S   S54       1.0  0.36209  0.27029  0.34492  1.0000
  S   S55       1.0  0.29834  0.33785  0.29591  1.0000
  S   S56       1.0  0.33344  0.33328  0.33901  1.0000
  H   H208      1.0  0.21980  0.46722  0.45574  1.0000
  H   H209      1.0  0.26488  0.32330  0.23859  1.0000
  C   C172      1.0  0.32882  0.46733  0.30051  1.0000
  H   H210      1.0  0.12753  0.38928  0.49012  1.0000
  H   H211      1.0  0.35570  0.47604  0.23965  1.0000
  H   H212      1.0  0.43422  0.47850  0.12611  1.0000
  Fe  Fe27      1.0  0.37548  0.47371  0.19668  1.0000
  S   S57       1.0  0.35887  0.44020  0.20578  1.0000
  S   S58       1.0  0.39035  0.47890  0.16110  1.0000
  Fe  Fe28      1.0  0.13582  0.27785  0.01503  1.0000
  S   S59       1.0  0.11494  0.30741  0.02741  1.0000
  H   H213      1.0  0.32012  0.45731  0.24430  1.0000
  H   H214      1.0  0.23658  0.25138  0.17885  1.0000
  C   C173      1.0  0.24058  0.30452  0.19071  1.0000
  H   H215      1.0  0.30723  0.42176  0.26037  1.0000
  S   S60       1.0  0.15833  0.25392  0.03597  1.0000
  H   H216      1.0  0.21264  0.43191  0.44297  1.0000
  H   H217      1.0  0.17463  0.49154  0.47195  1.0000
  C   C174      1.0  0.25339  0.31431  0.22799  1.0000
  H   H218      1.0  0.26450  0.42444  0.40555  1.0000
  S   S61       1.0  0.14449  0.34572  0.47842  1.0000
  C   C175      1.0  0.18618  0.49356  0.48575  1.0000
  C   C176      1.0  0.18617  0.41593  0.00060  1.0000
  H   H219      1.0  0.26632  0.26496  0.28559  1.0000
  Fe  Fe29      1.0  0.22665  0.37115  0.47972  1.0000
  S   S62       1.0  0.25853  0.36586  0.45722  1.0000
  S   S63       1.0  0.19382  0.38641  0.46798  1.0000
  C   C177      1.0  0.27625  0.25456  0.22948  1.0000
  H   H220      1.0  0.27328  0.29116  0.39669  1.0000
  S   S64       1.0  0.40398  0.49179  0.21312  1.0000
  C   C178      1.0  0.22808  0.34167  0.03590  1.0000
  Fe  Fe30      1.0  0.19632  0.41039  0.49710  1.0000
  H   H221      1.0  0.32463  0.25711  0.37613  1.0000
  H   H222      1.0  0.23887  0.43809  0.47291  1.0000
  H   H223      1.0  0.31227  0.46358  0.08985  1.0000
  C   C179      1.0  0.31275  0.43473  0.27163  1.0000
  C   C180      1.0  0.26416  0.34138  0.38324  1.0000
  C   C181      1.0  0.28337  0.34849  0.39446  1.0000
  C   C182      1.0  0.28129  0.35604  0.41705  1.0000
  C   C183      1.0  0.25997  0.35698  0.42852  1.0000
  C   C184      1.0  0.24062  0.35073  0.41701  1.0000
  C   C185      1.0  0.24277  0.34282  0.39454  1.0000
  H   H224      1.0  0.29983  0.34800  0.38582  1.0000
  H   H225      1.0  0.29633  0.36099  0.42576  1.0000
  H   H226      1.0  0.22409  0.35145  0.42557  1.0000
  H   H227      1.0  0.22777  0.33749  0.38597  1.0000
  C   C186      1.0  0.39188  0.26525  0.34718  1.0000
  C   C187      1.0  0.40794  0.28073  0.33923  1.0000
  H   H228      1.0  0.25531  0.41356  0.46606  1.0000
  H   H229      1.0  0.40234  0.29636  0.33135  1.0000
  H   H230      1.0  0.26892  0.44028  0.46697  1.0000
  C   C188      1.0  0.35579  0.39406  0.26971  1.0000
  C   C189      1.0  0.36938  0.41330  0.26932  1.0000
  C   C190      1.0  0.37101  0.42733  0.24978  1.0000
  C   C191      1.0  0.35876  0.42244  0.23045  1.0000
  C   C192      1.0  0.34538  0.40306  0.23075  1.0000
  C   C193      1.0  0.34394  0.38890  0.25021  1.0000
  H   H231      1.0  0.37871  0.41738  0.28428  1.0000
  H   H232      1.0  0.38177  0.44183  0.24968  1.0000
  H   H233      1.0  0.33593  0.39904  0.21586  1.0000
  H   H234      1.0  0.33345  0.37417  0.25021  1.0000
  C   C194      1.0  0.22465  0.26262  0.16940  1.0000
  Fe  Fe31      1.0  0.27319  0.48882  0.01652  1.0000
  C   C195      1.0  0.23197  0.47411  0.44359  1.0000
  H   H235      1.0  0.35699  0.48872  0.06011  1.0000
  H   H236      1.0  0.23499  0.27321  0.15754  1.0000
  S   S65       1.0  0.29250  0.48254  0.04966  1.0000
  H   H237      1.0  0.37497  0.27533  0.26608  1.0000
  C   C196      1.0  0.22692  0.42547  0.43191  1.0000
  Fe  Fe32      1.0  0.17634  0.36223  0.49250  1.0000
  C   C197      1.0  0.29089  0.29889  0.45896  1.0000
  C   C198      1.0  0.02454  0.30017  0.00149  1.0000
  C   C199      1.0  0.36520  0.26367  0.25565  1.0000
  C   C200      1.0  0.12412  0.32549  0.48816  1.0000
  C   C201      1.0  0.08799  0.30645  0.48204  1.0000
  C   C202      1.0  0.10528  0.32128  0.47459  1.0000
  H   H238      1.0  0.00638  0.30965  0.03230  1.0000
  H   H239      1.0  0.07364  0.30351  0.47140  1.0000
  H   H240      1.0  0.10395  0.32970  0.45823  1.0000
  H   H241      1.0  0.19863  0.39860  0.05098  1.0000
  C   C203      1.0  0.25321  0.43178  0.46183  1.0000
  H   H242      1.0  0.22242  0.42900  0.41393  1.0000
  C   C204      1.0  0.43910  0.25597  0.35209  1.0000
  C   C205      1.0  0.24819  0.46001  0.43219  1.0000
  H   H243      1.0  0.44368  0.28831  0.33574  1.0000
  C   C206      1.0  0.26714  0.42319  0.42421  1.0000
  H   H244      1.0  0.24238  0.30697  0.17252  1.0000
  H   H245      1.0  0.26733  0.40490  0.42855  1.0000
  C   C207      1.0  0.31607  0.48130  0.08958  1.0000
  N   N13       1.0  0.24900  0.43555  0.43728  1.0000
  H   H246      1.0  0.09885  0.36623  0.49045  1.0000
  H   H247      1.0  0.28437  0.42928  0.42809  1.0000
  H   H248      1.0  0.18450  0.30227  0.18330  1.0000
  C   C208      1.0  0.43139  0.27612  0.34177  1.0000
  C   C209      1.0  0.26242  0.49390  0.41245  1.0000
  C   C210      1.0  0.30174  0.28821  0.41986  1.0000
  C   C211      1.0  0.26439  0.25778  0.26898  1.0000
  H   H249      1.0  0.33570  0.29838  0.37346  1.0000
  C   C212      1.0  0.19500  0.26022  0.19800  1.0000
  H   H250      1.0  0.14525  0.27024  0.11773  1.0000
  H   H251      1.0  0.33516  0.47897  0.31257  1.0000
  C   C213      1.0  0.22866  0.38234  0.03707  1.0000
  C   C214      1.0  0.34164  0.27582  0.41114  1.0000
  H   H252      1.0  0.25587  0.36196  0.02309  1.0000
  H   H253      1.0  0.29560  0.30208  0.47630  1.0000
  H   H254      1.0  0.18546  0.43357  0.00479  1.0000
  C   C215      1.0  0.32816  0.47236  0.27679  1.0000
  H   H255      1.0  0.14514  0.42470  0.47991  1.0000
  C   C216      1.0  0.26230  0.29898  0.43036  1.0000
  C   C217      1.0  0.35861  0.48777  0.25379  1.0000
  C   C218      1.0  0.38524  0.49619  0.03750  1.0000
  H   H256      1.0  0.18385  0.28205  0.16088  1.0000
  H   H257      1.0  0.30944  0.41371  0.30154  1.0000
  C   C219      1.0  0.23917  0.36194  0.03142  1.0000
  C   C220      1.0  0.16701  0.40235  0.00482  1.0000
  C   C221      1.0  0.42482  0.47819  0.10989  1.0000
  H   H258      1.0  0.23678  0.29781  0.25634  1.0000
  H   H259      1.0  0.32834  0.25679  0.28421  1.0000
  N   N14       1.0  0.19341  0.32033  0.05097  1.0000
  C   C222      1.0  0.18933  0.31753  0.07583  1.0000
  C   C223      1.0  0.17112  0.32147  0.03974  1.0000
  C   C224      1.0  0.20563  0.29978  0.04271  1.0000
  C   C225      1.0  0.20589  0.34137  0.04622  1.0000
  H   H260      1.0  0.04827  0.26333  0.37143  1.0000
  C   C226      1.0  0.19575  0.36249  0.05185  1.0000
  C   C227      1.0  0.27910  0.26407  0.25098  1.0000
  C   C228      1.0  0.20700  0.38262  0.04727  1.0000
  H   H261      1.0  0.34038  0.26153  0.42352  1.0000
  H   H262      1.0  0.17851  0.33137  0.08301  1.0000
  H   H263      1.0  0.18036  0.30157  0.08001  1.0000
  H   H264      1.0  0.20567  0.31717  0.08498  1.0000
  H   H265      1.0  0.15922  0.33429  0.04720  1.0000
  H   H266      1.0  0.16219  0.30514  0.04111  1.0000
  H   H267      1.0  0.17337  0.32594  0.02139  1.0000
  S   S66       1.0  0.01344  0.27160  0.47105  1.0000
  H   H268      1.0  0.19561  0.28432  0.04633  1.0000
  H   H269      1.0  0.32318  0.44261  0.32726  1.0000
  C   C229      1.0  0.31397  0.43018  0.29485  1.0000
  H   H270      1.0  0.17879  0.36367  0.05937  1.0000
  C   C230      1.0  0.22341  0.28732  0.22446  1.0000
  H   H271      1.0  0.37880  0.49115  0.09461  1.0000
  H   H272      1.0  0.28751  0.25930  0.21543  1.0000
  C   C231      1.0  0.38763  0.49410  0.07848  1.0000
  H   H273      1.0  0.20540  0.30280  0.16044  1.0000
  H   H274      1.0  0.32699  0.31686  0.39600  1.0000
  H   H275      1.0  0.32451  0.28958  0.44886  1.0000
  C   C232      1.0  0.37495  0.49262  0.05881  1.0000
  C   C233      1.0  0.26842  0.30254  0.45269  1.0000
  C   C234      1.0  0.22459  0.28921  0.20030  1.0000
  N   N15       1.0  0.31899  0.28215  0.40205  1.0000
  C   C235      1.0  0.15010  0.26319  0.08196  1.0000
  H   H276      1.0  0.29619  0.26723  0.37834  1.0000
  C   C236      1.0  0.30740  0.29175  0.44290  1.0000
  H   H277      1.0  0.31815  0.49346  0.23555  1.0000
  H   H278      1.0  0.23705  0.39804  0.03290  1.0000
  H   H279      1.0  0.13982  0.27740  0.07638  1.0000
  H   H280      1.0  0.24491  0.30237  0.42541  1.0000
  C   C237      1.0  0.32894  0.49017  0.10719  1.0000
  C   C238      1.0  0.25486  0.31671  0.20441  1.0000
  H   H281      1.0  0.26735  0.32789  0.19676  1.0000
  H   H282      1.0  0.33484  0.47929  0.12081  1.0000
  C   C239      1.0  0.32187  0.44647  0.30927  1.0000
  H   H283      1.0  0.43333  0.46544  0.09875  1.0000
  H   H284      1.0  0.22216  0.29709  0.05121  1.0000
  C   C240      1.0  0.19538  0.29152  0.17192  1.0000
  N   N16       1.0  0.21011  0.27607  0.18535  1.0000
  H   H285      1.0  0.18289  0.26915  0.20977  1.0000
  C   C241      1.0  0.27870  0.29226  0.41407  1.0000
  H   H286      1.0  0.30630  0.30614  0.37729  1.0000
  H   H287      1.0  0.35391  0.27050  0.39730  1.0000
  H   H288      1.0  0.00977  0.25372  0.06913  1.0000
  S   S67       1.0  0.23578  0.48125  0.01996  1.0000
  C   C242      1.0  0.23753  0.29987  0.23797  1.0000
  C   C243      1.0  0.00476  0.30538  0.01462  1.0000
  C   C244      1.0  0.31997  0.45534  0.26262  1.0000
  H   H289      1.0  0.23714  0.32655  0.03082  1.0000
  H   H290      1.0  0.37589  0.25980  0.24024  1.0000
  C   C245      1.0  0.15322  0.25907  0.10542  1.0000
  H   H291      1.0  0.27624  0.46135  0.40668  1.0000
  H   H292      1.0  0.25582  0.30874  0.46500  1.0000
  C   C246      1.0  0.30821  0.49505  0.07159  1.0000
  H   H293      1.0  0.37138  0.47954  0.26500  1.0000
  C   C247      1.0  0.32210  0.30172  0.38653  1.0000
  S   S68       1.0  0.18759  0.44715  0.48723  1.0000
  C   C248      1.0  0.00467  0.25054  0.05192  1.0000
  H   H294      1.0  0.34971  0.29026  0.41937  1.0000
  H   H295      1.0  0.40750  0.47198  0.11425  1.0000
  C   C249      1.0  0.26340  0.47062  0.41630  1.0000
  H   H296      1.0  0.45811  0.49559  0.08433  1.0000
  H   H297      1.0  0.34982  0.27330  0.25002  1.0000
  N   N17       1.0  0.33731  0.49336  0.26663  1.0000
  C   C250      1.0  0.02112  0.25008  0.03444  1.0000
  Fe  Fe33      1.0  0.08878  0.29737  0.00207  1.0000
  H   H298      1.0  0.39175  0.25787  0.29672  1.0000
  S   S69       1.0  0.46889  0.25120  0.35477  1.0000
  C   C251      1.0  0.13234  0.42420  0.49355  1.0000
  H   H299      1.0  0.15164  0.40976  0.01226  1.0000
  H   H300      1.0  0.18436  0.25064  0.18630  1.0000
  H   H301      1.0  0.35346  0.26135  0.29941  1.0000
  C   C252      1.0  0.12197  0.40396  0.49948  1.0000
  C   C253      1.0  0.48387  0.48778  0.19681  1.0000
  C   C254      1.0  0.23122  0.49734  0.43972  1.0000
  H   H302      1.0  0.37528  0.49502  0.02231  1.0000
  H   H303      1.0  0.46916  0.48118  0.20592  1.0000
  H   H304      1.0  0.03882  0.25315  0.03797  1.0000
  H   H305      1.0  0.21426  0.25186  0.15849  1.0000
  C   C255      1.0  0.19519  0.47432  0.49684  1.0000
  H   H306      1.0  0.07244  0.38075  0.49628  1.0000
  H   H307      1.0  0.47306  0.26458  0.60575  1.0000
  C   C256      1.0  0.02213  0.29475  0.97861  1.0000
  H   H308      1.0  0.22206  0.27766  0.65735  1.0000
  H   H309      1.0  0.46543  0.39940  0.77039  1.0000
  H   H310      1.0  0.45676  0.47069  0.77472  1.0000
  C   C257      1.0  0.15629  0.34026  0.94328  1.0000
  C   C258      1.0  0.28996  0.32858  0.75739  1.0000
  Fe  Fe34      1.0  0.12574  0.28856  0.96507  1.0000
  S   S70       1.0  0.10420  0.31915  0.97440  1.0000
  S   S71       1.0  0.13218  0.28327  0.92693  1.0000
  Fe  Fe35      1.0  0.38810  0.46590  0.78062  1.0000
  S   S72       1.0  0.40900  0.47229  0.81138  1.0000
  S   S73       1.0  0.39276  0.43123  0.76435  1.0000
  H   H311      1.0  0.46802  0.41647  0.74501  1.0000
  H   H312      1.0  0.45785  0.44704  0.80981  1.0000
  H   H313      1.0  0.25124  0.28755  0.76722  1.0000
  H   H314      1.0  0.21996  0.39072  0.91800  1.0000
  H   H315      1.0  0.10725  0.34890  0.53843  1.0000
  H   H316      1.0  0.49408  0.46997  0.76056  1.0000
  Fe  Fe36      1.0  0.32342  0.33869  0.69699  1.0000
  S   S74       1.0  0.29188  0.32827  0.67924  1.0000
  S   S75       1.0  0.31953  0.37282  0.71416  1.0000
  Fe  Fe37      1.0  0.34981  0.29650  0.68164  1.0000
  S   S76       1.0  0.32041  0.28324  0.66244  1.0000
  S   S77       1.0  0.38447  0.27938  0.68696  1.0000
  Fe  Fe38      1.0  0.31509  0.31899  0.65003  1.0000
  S   S78       1.0  0.30860  0.32842  0.61288  1.0000
  Fe  Fe39      1.0  0.29883  0.29341  0.69309  1.0000
  S   S79       1.0  0.26640  0.27470  0.70317  1.0000
  S   S80       1.0  0.34643  0.33157  0.66675  1.0000
  S   S81       1.0  0.32845  0.30452  0.71335  1.0000
  Fe  Fe40      1.0  0.21064  0.37173  0.52943  1.0000
  S   S82       1.0  0.21711  0.36428  0.56703  1.0000
  S   S83       1.0  0.17636  0.38739  0.52080  1.0000
  S   S84       1.0  0.40133  0.49646  0.76200  1.0000
  C   C259      1.0  0.21272  0.28551  0.61111  1.0000
  C   C260      1.0  0.28319  0.33916  0.60063  1.0000
  C   C261      1.0  0.26346  0.34376  0.61373  1.0000
  C   C262      1.0  0.24351  0.35168  0.60318  1.0000
  C   C263      1.0  0.24307  0.35535  0.57949  1.0000
  C   C264      1.0  0.26297  0.35132  0.56647  1.0000
  C   C265      1.0  0.28287  0.34320  0.57700  1.0000
  H   H317      1.0  0.26346  0.34110  0.63194  1.0000
  H   H318      1.0  0.22821  0.35478  0.61340  1.0000
  H   H319      1.0  0.26291  0.35409  0.54823  1.0000
  H   H320      1.0  0.29806  0.33981  0.56669  1.0000
  H   H321      1.0  0.26798  0.28872  0.59163  1.0000
  S   S85       1.0  0.15429  0.29796  0.98758  1.0000
  N   N18       1.0  0.09558  0.38059  0.52410  1.0000
  H   H322      1.0  0.46034  0.45780  0.74710  1.0000
  C   C266      1.0  0.48761  0.25208  0.64721  1.0000
  C   C267      1.0  0.37212  0.41542  0.75028  1.0000
  C   C268      1.0  0.34940  0.42264  0.74883  1.0000
  C   C269      1.0  0.33361  0.40943  0.73764  1.0000
  C   C270      1.0  0.34031  0.38890  0.72768  1.0000
  C   C271      1.0  0.36302  0.38169  0.72904  1.0000
  C   C272      1.0  0.37879  0.39486  0.74034  1.0000
  H   H323      1.0  0.34399  0.43840  0.75640  1.0000
  H   H324      1.0  0.31608  0.41522  0.73665  1.0000
  H   H325      1.0  0.36846  0.36596  0.72145  1.0000
  H   H326      1.0  0.39632  0.38909  0.74133  1.0000
  H   H327      1.0  0.15797  0.34427  0.96154  1.0000
  H   H328      1.0  0.24914  0.30559  0.55896  1.0000
  C   C273      1.0  0.18680  0.37607  0.92292  1.0000
  H   H329      1.0  0.08792  0.42341  0.54335  1.0000
  C   C274      1.0  0.18755  0.37004  0.98988  1.0000
  N   N19       1.0  0.48512  0.27536  0.63816  1.0000
  C   C275      1.0  0.23274  0.26390  0.64975  1.0000
  N   N20       1.0  0.14787  0.36012  0.93030  1.0000
  C   C276      1.0  0.31094  0.36853  0.77844  1.0000
  H   H330      1.0  0.10962  0.29098  0.53297  1.0000
  C   C277      1.0  0.10006  0.42277  0.52928  1.0000
  H   H331      1.0  0.33366  0.34228  0.74856  1.0000
  H   H332      1.0  0.03708  0.29062  0.96827  1.0000
  C   C278      1.0  0.12469  0.36595  0.93940  1.0000
  H   H333      1.0  0.18850  0.35237  0.98597  1.0000
  H   H334      1.0  0.22601  0.25228  0.71857  1.0000
  H   H335      1.0  0.18405  0.29842  0.59236  1.0000
  S   S86       1.0  0.23030  0.39641  0.50762  1.0000
  H   H336      1.0  0.37670  0.26585  0.64008  1.0000
  C   C279      1.0  0.29214  0.31413  0.79605  1.0000
  S   S87       1.0  0.35706  0.48403  0.79488  1.0000
  S   S88       1.0  0.10871  0.26615  0.99147  1.0000
  C   C280      1.0  0.14348  0.25830  0.91439  1.0000
  H   H337      1.0  0.13275  0.34031  0.90441  1.0000
  H   H338      1.0  0.12175  0.37326  0.54822  1.0000
  C   C281      1.0  0.14857  0.25816  0.89084  1.0000
  C   C282      1.0  0.46179  0.28358  0.64450  1.0000
  H   H339      1.0  0.07823  0.35327  0.50845  1.0000
  C   C283      1.0  0.26375  0.25354  0.62450  1.0000
  C   C284      1.0  0.20610  0.40670  0.99073  1.0000
  H   H340      1.0  0.27807  0.25905  0.61313  1.0000
  C   C285      1.0  0.20662  0.38367  0.98545  1.0000
  C   C286      1.0  0.45403  0.43255  0.79885  1.0000
  H   H341      1.0  0.29631  0.37297  0.79004  1.0000
  H   H342      1.0  0.31305  0.47261  0.65669  1.0000
  H   H343      1.0  0.25167  0.30470  0.64710  1.0000
  N   N21       1.0  0.24850  0.27252  0.63156  1.0000
  H   H344      1.0  0.43516  0.45351  0.76404  1.0000
  H   H345      1.0  0.27580  0.29634  0.62957  1.0000
  H   H346      1.0  0.45864  0.30106  0.63822  1.0000
  H   H347      1.0  0.14235  0.40243  0.95123  1.0000
  H   H348      1.0  0.17312  0.33393  0.93683  1.0000
  C   C287      1.0  0.33483  0.45216  0.67758  1.0000
  C   C288      1.0  0.15868  0.39923  0.94293  1.0000
  C   C289      1.0  0.26471  0.29919  0.77051  1.0000
  S   S89       1.0  0.36863  0.48562  0.86220  1.0000
  Fe  Fe41      1.0  0.24100  0.45977  0.98909  1.0000
  H   H349      1.0  0.35497  0.42776  0.69586  1.0000
  H   H350      1.0  0.43514  0.43147  0.79794  1.0000
  C   C290      1.0  0.26095  0.25719  0.72736  1.0000
  H   H351      1.0  0.26865  0.28768  0.80492  1.0000
  S   S90       1.0  0.06807  0.27651  0.51373  1.0000
  C   C291      1.0  0.30037  0.32930  0.77889  1.0000
  H   H352      1.0  0.35677  0.47139  0.90787  1.0000
  H   H353      1.0  0.14599  0.27336  0.88084  1.0000
  C   C292      1.0  0.27760  0.25210  0.74329  1.0000
  C   C293      1.0  0.34347  0.43062  0.68192  1.0000
  H   H354      1.0  0.12476  0.36915  0.95805  1.0000
  H   H355      1.0  0.20744  0.31120  0.55927  1.0000
  Fe  Fe42      1.0  0.03371  0.26309  0.50209  1.0000
  C   C294      1.0  0.39913  0.26066  0.66806  1.0000
  H   H356      1.0  0.35301  0.35125  0.76907  1.0000
  H   H357      1.0  0.14445  0.32597  0.94238  1.0000
  H   H358      1.0  0.17030  0.43162  0.95321  1.0000
  C   C295      1.0  0.33838  0.33999  0.76660  1.0000
  H   H359      1.0  0.48530  0.29214  0.60544  1.0000
  H   H360      1.0  0.42457  0.25162  0.69249  1.0000
  C   C296      1.0  0.08440  0.25275  0.89451  1.0000
  C   C297      1.0  0.16424  0.37861  0.93196  1.0000
  H   H361      1.0  0.47348  0.48452  0.82109  1.0000
  H   H362      1.0  0.06295  0.39345  0.53610  1.0000
  H   H363      1.0  0.13989  0.31724  0.51987  1.0000
  H   H364      1.0  0.22197  0.37632  0.97792  1.0000
  C   C298      1.0  0.14559  0.35371  0.90617  1.0000
  C   C299      1.0  0.39188  0.25724  0.64595  1.0000
  H   H365      1.0  0.29542  0.33939  0.74341  1.0000
  C   C300      1.0  0.08935  0.29540  0.50317  1.0000
  C   C301      1.0  0.08585  0.36984  0.50400  1.0000
  S   S91       1.0  0.20945  0.34524  0.50243  1.0000
  H   H366      1.0  0.24219  0.25622  0.66423  1.0000
  C   C302      1.0  0.24958  0.28975  0.59219  1.0000
  H   H367      1.0  0.33965  0.46600  0.68812  1.0000
  C   C303      1.0  0.19656  0.41324  0.93509  1.0000
  C   C304      1.0  0.20235  0.29566  0.59230  1.0000
  H   H368      1.0  0.45978  0.41701  0.80783  1.0000
  C   C305      1.0  0.27247  0.31369  0.75332  1.0000
  C   C306      1.0  0.21016  0.47730  0.51461  1.0000
  C   C307      1.0  0.21546  0.30274  0.57354  1.0000
  C   C308      1.0  0.45965  0.41538  0.76219  1.0000
  C   C309      1.0  0.45394  0.45522  0.76490  1.0000
  H   H369      1.0  0.14026  0.36844  0.89556  1.0000
  C   C310      1.0  0.10828  0.29949  0.51666  1.0000
  N   N22       1.0  0.31908  0.34509  0.78260  1.0000
  C   C311      1.0  0.32802  0.34397  0.80600  1.0000
  C   C312      1.0  0.48801  0.49227  0.81273  1.0000
  H   H370      1.0  0.33542  0.32704  0.80999  1.0000
  H   H371      1.0  0.34189  0.35622  0.80817  1.0000
  H   H372      1.0  0.31451  0.34816  0.81897  1.0000
  C   C313      1.0  0.12688  0.44364  0.50552  1.0000
  H   H373      1.0  0.32462  0.38092  0.78091  1.0000
  C   C314      1.0  0.17464  0.41627  0.94423  1.0000
  N   N23       1.0  0.31486  0.39617  0.63716  1.0000
  C   C315      1.0  0.33534  0.38489  0.62689  1.0000
  C   C316      1.0  0.30294  0.37995  0.65245  1.0000
  C   C317      1.0  0.29929  0.40209  0.61838  1.0000
  C   C318      1.0  0.32174  0.41567  0.65054  1.0000
  C   C319      1.0  0.33701  0.41261  0.66871  1.0000
  C   C320      1.0  0.31331  0.43791  0.64647  1.0000
  Fe  Fe43      1.0  0.27052  0.49597  0.96423  1.0000
  C   C321      1.0  0.31983  0.45581  0.65988  1.0000
  H   H374      1.0  0.19249  0.36065  0.91495  1.0000
  H   H375      1.0  0.34673  0.37744  0.63988  1.0000
  H   H376      1.0  0.33072  0.37070  0.61586  1.0000
  H   H377      1.0  0.34548  0.39687  0.61623  1.0000
  H   H378      1.0  0.31420  0.37293  0.66574  1.0000
  H   H379      1.0  0.29672  0.36538  0.64296  1.0000
  H   H380      1.0  0.28804  0.38801  0.66141  1.0000
  H   H381      1.0  0.30729  0.41399  0.60591  1.0000
  H   H382      1.0  0.29474  0.38696  0.60859  1.0000
  H   H383      1.0  0.28287  0.40944  0.62494  1.0000
  H   H384      1.0  0.34375  0.39613  0.67320  1.0000
  H   H385      1.0  0.30151  0.44190  0.63319  1.0000
  H   H386      1.0  0.45851  0.28277  0.66324  1.0000
  H   H387      1.0  0.10664  0.45815  0.53261  1.0000
  C   C322      1.0  0.11070  0.44296  0.52328  1.0000
  H   H388      1.0  0.29452  0.25874  0.74091  1.0000
  S   S92       1.0  0.27886  0.46584  0.98647  1.0000
  C   C323      1.0  0.34306  0.48234  0.90225  1.0000
  S   S93       1.0  0.23297  0.48854  0.96516  1.0000
  H   H389      1.0  0.11737  0.38097  0.93055  1.0000
  C   C324      1.0  0.27458  0.29933  0.79177  1.0000
  H   H390      1.0  0.30517  0.37134  0.76079  1.0000
  H   H391      1.0  0.34452  0.32227  0.76865  1.0000
  C   C325      1.0  0.23677  0.28225  0.61160  1.0000
  H   H392      1.0  0.44095  0.41392  0.75980  1.0000
  C   C326      1.0  0.10546  0.40255  0.51750  1.0000
  S   S94       1.0  0.23074  0.42297  0.98437  1.0000
  Fe  Fe44      1.0  0.37852  0.49258  0.82464  1.0000
  H   H393      1.0  0.44851  0.27310  0.63692  1.0000
  H   H394      1.0  0.11261  0.35200  0.93720  1.0000
  H   H395      1.0  0.29903  0.31322  0.81286  1.0000
  C   C327      1.0  0.23898  0.29958  0.57341  1.0000
  N   N24       1.0  0.46485  0.43526  0.77588  1.0000
  S   S95       1.0  0.00325  0.26781  0.52613  1.0000
  H   H396      1.0  0.32390  0.47960  0.93420  1.0000
  H   H397      1.0  0.26505  0.31314  0.73663  1.0000
  C   C328      1.0  0.34422  0.49176  0.88010  1.0000
  H   H398      1.0  0.20911  0.42619  0.93698  1.0000
  C   C329      1.0  0.12553  0.31437  0.50924  1.0000
  H   H399      1.0  0.16169  0.34668  0.89866  1.0000
  H   H400      1.0  0.22152  0.25072  0.64326  1.0000
  C   C330      1.0  0.48984  0.43712  0.77779  1.0000
  C   C331      1.0  0.07710  0.38218  0.54180  1.0000
  H   H401      1.0  0.20155  0.28069  0.62513  1.0000
  H   H402      1.0  0.12775  0.36267  0.52046  1.0000
  H   H403      1.0  0.08351  0.38831  0.55818  1.0000
  C   C332      1.0  0.11380  0.36572  0.53323  1.0000
  C   C333      1.0  0.20266  0.39316  0.92452  1.0000
  C   C334      1.0  0.26242  0.29006  0.64164  1.0000
  C   C335      1.0  0.32439  0.48697  0.91726  1.0000
  H   H404      1.0  0.27135  0.28354  0.65684  1.0000
  H   H405      1.0  0.21726  0.46275  0.52333  1.0000
  H   H406      1.0  0.48221  0.31301  0.66678  1.0000
  H   H407      1.0  0.06958  0.36544  0.54567  1.0000
  C   C336      1.0  0.48675  0.27490  0.61292  1.0000
  H   H408      1.0  0.49452  0.40500  0.79575  1.0000
  C   C337      1.0  0.07834  0.26088  0.87313  1.0000
  H   H409      1.0  0.08035  0.26247  0.90961  1.0000
  H   H410      1.0  0.48585  0.25151  0.66610  1.0000
  Fe  Fe45      1.0  0.13189  0.32696  0.99870  1.0000
  C   C338      1.0  0.16748  0.37936  0.99940  1.0000
  H   H411      1.0  0.06925  0.27684  0.87171  1.0000
  C   C339      1.0  0.49921  0.30791  0.66138  1.0000
  H   H412      1.0  0.07942  0.25583  0.83740  1.0000
  H   H413      1.0  0.13551  0.45915  0.50116  1.0000
  C   C340      1.0  0.41893  0.24926  0.67535  1.0000
  C   C341      1.0  0.41282  0.51699  0.11419  1.0000
  C   C342      1.0  0.40977  0.73790  0.41816  1.0000
  C   C343      1.0  0.19163  0.70795  0.12574  1.0000
  H   H414      1.0  0.21554  0.74623  0.12614  1.0000
  C   C344      1.0  0.09277  0.69691  0.49578  1.0000
  Fe  Fe46      1.0  0.12134  0.69851  0.03264  1.0000
  S   S96       1.0  0.11967  0.71228  0.06876  1.0000
  S   S97       1.0  0.11355  0.66223  0.02579  1.0000
  Fe  Fe47      1.0  0.35406  0.69362  0.31140  1.0000
  S   S98       1.0  0.33420  0.69311  0.27907  1.0000
  S   S99       1.0  0.39163  0.70346  0.31174  1.0000
  Fe  Fe48      1.0  0.31448  0.67355  0.34023  1.0000
  S   S100      1.0  0.29171  0.67162  0.31016  1.0000
  S   S101      1.0  0.30841  0.66548  0.37823  1.0000
  Fe  Fe49      1.0  0.32306  0.65860  0.29080  1.0000
  S   S102      1.0  0.31883  0.63091  0.26466  1.0000
  Fe  Fe50      1.0  0.30440  0.70600  0.30023  1.0000
  C   C345      1.0  0.19201  0.51546  0.49227  1.0000
  S   S103      1.0  0.34494  0.65809  0.32161  1.0000
  S   S104      1.0  0.32516  0.70896  0.33177  1.0000
  Fe  Fe51      1.0  0.38150  0.52280  0.20899  1.0000
  S   S105      1.0  0.38294  0.54642  0.23919  1.0000
  S   S106      1.0  0.39599  0.53133  0.17435  1.0000
  Fe  Fe52      1.0  0.21678  0.61913  0.47003  1.0000
  S   S107      1.0  0.18586  0.59921  0.48116  1.0000
  S   S108      1.0  0.22227  0.62374  0.43155  1.0000
  H   H415      1.0  0.41149  0.69619  0.36824  1.0000
  C   C346      1.0  0.01957  0.62590  0.02188  1.0000
  C   C347      1.0  0.08635  0.67160  0.44282  1.0000
  H   H416      1.0  0.42306  0.51992  0.12947  1.0000
  C   C348      1.0  0.24807  0.53984  0.08736  1.0000
  C   C349      1.0  0.42973  0.71926  0.38726  1.0000
  N   N25       1.0  0.45349  0.55462  0.22474  1.0000
  C   C350      1.0  0.28405  0.65415  0.39261  1.0000
  C   C351      1.0  0.28411  0.65173  0.41648  1.0000
  C   C352      1.0  0.26534  0.64261  0.42867  1.0000
  C   C353      1.0  0.24627  0.63569  0.41709  1.0000
  C   C354      1.0  0.24616  0.63817  0.39324  1.0000
  C   C355      1.0  0.26490  0.64739  0.38105  1.0000
  H   H417      1.0  0.29881  0.65686  0.42561  1.0000
  H   H418      1.0  0.26571  0.64079  0.44699  1.0000
  H   H419      1.0  0.23156  0.63283  0.38407  1.0000
  H   H420      1.0  0.26460  0.64911  0.36271  1.0000
  C   C356      1.0  0.33724  0.60780  0.25764  1.0000
  C   C357      1.0  0.35669  0.60246  0.26999  1.0000
  C   C358      1.0  0.37048  0.58366  0.26406  1.0000
  C   C359      1.0  0.36515  0.57012  0.24560  1.0000
  C   C360      1.0  0.34578  0.57548  0.23318  1.0000
  C   C361      1.0  0.33188  0.59416  0.23925  1.0000
  H   H421      1.0  0.36098  0.61276  0.28421  1.0000
  H   H422      1.0  0.38536  0.57964  0.27386  1.0000
  H   H423      1.0  0.34143  0.56526  0.21893  1.0000
  H   H424      1.0  0.31687  0.59815  0.22959  1.0000
  H   H425      1.0  0.49092  0.52446  0.22991  1.0000
  C   C362      1.0  0.00882  0.61140  0.00745  1.0000
  C   C363      1.0  0.26705  0.72601  0.24879  1.0000
  H   H426      1.0  0.16886  0.58377  0.05224  1.0000
  C   C364      1.0  0.16794  0.65317  0.45106  1.0000
  H   H427      1.0  0.27815  0.71132  0.24975  1.0000
  C   C365      1.0  0.18597  0.71681  0.16669  1.0000
  C   C366      1.0  0.41022  0.70722  0.38267  1.0000
  C   C367      1.0  0.24643  0.50723  0.42420  1.0000
  H   H428      1.0  0.45325  0.51866  0.22066  1.0000
  H   H429      1.0  0.33021  0.54448  0.08881  1.0000
  H   H430      1.0  0.12097  0.71024  0.47600  1.0000
  H   H431      1.0  0.03421  0.74068  0.03132  1.0000
  S   S109      1.0  0.35211  0.50426  0.19484  1.0000
  H   H432      1.0  0.41621  0.50391  0.01909  1.0000
  H   H433      1.0  0.44616  0.58854  0.23606  1.0000
  C   C368      1.0  0.39195  0.74194  0.33820  1.0000
  H   H434      1.0  0.37609  0.67172  0.41565  1.0000
  C   C369      1.0  0.34265  0.51059  0.28364  1.0000
  H   H435      1.0  0.20792  0.52056  0.07957  1.0000
  N   N26       1.0  0.20093  0.71871  0.14598  1.0000
  H   H436      1.0  0.13132  0.68038  0.40713  1.0000
  C   C370      1.0  0.33413  0.51301  0.10710  1.0000
  H   H437      1.0  0.32009  0.74685  0.24979  1.0000
  C   C371      1.0  0.42849  0.72780  0.32441  1.0000
  C   C372      1.0  0.22204  0.56216  0.06405  1.0000
  H   H438      1.0  0.12422  0.74576  0.02843  1.0000
  H   H439      1.0  0.03708  0.69589  0.02075  1.0000
  H   H440      1.0  0.35822  0.69406  0.42677  1.0000
  H   H441      1.0  0.23645  0.71132  0.13788  1.0000
  H   H442      1.0  0.42673  0.56817  0.24676  1.0000
  H   H443      1.0  0.44496  0.71719  0.37662  1.0000
  H   H444      1.0  0.08472  0.64736  0.47020  1.0000
  H   H445      1.0  0.25631  0.71928  0.21482  1.0000
  C   C373      1.0  0.11549  0.69691  0.48747  1.0000
  S   S110      1.0  0.01062  0.74076  0.46900  1.0000
  H   H446      1.0  0.34860  0.52650  0.27529  1.0000
  C   C374      1.0  0.17424  0.68865  0.08603  1.0000
  C   C375      1.0  0.48574  0.57907  0.21113  1.0000
  H   H447      1.0  0.15025  0.61293  0.44594  1.0000
  H   H448      1.0  0.45799  0.74599  0.33474  1.0000
  S   S111      1.0  0.23959  0.60024  0.49393  1.0000
  H   H449      1.0  0.09308  0.69474  0.41527  1.0000
  C   C376      1.0  0.23313  0.58309  0.06539  1.0000
  C   C377      1.0  0.22333  0.70834  0.15148  1.0000
  H   H450      1.0  0.21230  0.51902  0.04900  1.0000
  C   C378      1.0  0.18673  0.58352  0.05647  1.0000
  H   H451      1.0  0.44437  0.74466  0.40762  1.0000
  H   H452      1.0  0.44647  0.54660  0.19010  1.0000
  C   C379      1.0  0.16986  0.69787  0.12592  1.0000
  H   H453      1.0  0.23020  0.61926  0.06281  1.0000
  H   H454      1.0  0.16720  0.68197  0.07071  1.0000
  H   H455      1.0  0.11865  0.73383  0.11207  1.0000
  H   H456      1.0  0.40981  0.53351  0.10555  1.0000
  N   N27       1.0  0.23529  0.54078  0.06591  1.0000
  C   C380      1.0  0.49496  0.54103  0.22349  1.0000
  C   C381      1.0  0.16678  0.65527  0.41038  1.0000
  H   H457      1.0  0.49881  0.51593  0.14820  1.0000
  C   C382      1.0  0.40462  0.72606  0.32566  1.0000
  C   C383      1.0  0.26536  0.74066  0.26716  1.0000
  H   H458      1.0  0.37360  0.74105  0.33900  1.0000
  H   H459      1.0  0.18486  0.53000  0.48358  1.0000
  H   H460      1.0  0.15999  0.73570  0.05078  1.0000
  H   H461      1.0  0.22193  0.68985  0.15416  1.0000
  H   H462      1.0  0.20524  0.69902  0.06928  1.0000
  C   C384      1.0  0.39024  0.72572  0.41395  1.0000
  S   S112      1.0  0.28179  0.73659  0.29185  1.0000
  H   H463      1.0  0.24269  0.54107  0.03010  1.0000
  S   S113      1.0  0.09746  0.71175  0.00620  1.0000
  C   C385      1.0  0.20424  0.70786  0.10477  1.0000
  H   H464      1.0  0.22068  0.71563  0.10317  1.0000
  C   C386      1.0  0.22131  0.60350  0.06226  1.0000
  H   H465      1.0  0.15754  0.65113  0.39477  1.0000
  H   H466      1.0  0.18859  0.54807  0.05717  1.0000
  H   H467      1.0  0.14445  0.68150  0.10648  1.0000
  H   H468      1.0  0.38408  0.66974  0.37373  1.0000
  C   C387      1.0  0.11699  0.64555  0.45195  1.0000
  H   H469      1.0  0.43845  0.71566  0.31467  1.0000
  C   C388      1.0  0.15591  0.62133  0.42982  1.0000
  H   H470      1.0  0.14512  0.61537  0.41597  1.0000
  H   H471      1.0  0.14649  0.59959  0.00119  1.0000
  H   H472      1.0  0.42196  0.55579  0.20686  1.0000
  C   C389      1.0  0.13121  0.67980  0.49379  1.0000
  H   H473      1.0  0.23139  0.50470  0.06749  1.0000
  C   C390      1.0  0.15581  0.74191  0.06760  1.0000
  Fe  Fe53      1.0  0.36838  0.51022  0.16009  1.0000
  S   S114      1.0  0.35081  0.52511  0.12856  1.0000
  H   H474      1.0  0.27419  0.50171  0.40035  1.0000
  H   H475      1.0  0.24581  0.52528  0.42131  1.0000
  N   N28       1.0  0.15499  0.64625  0.43118  1.0000
  C   C391      1.0  0.13749  0.73289  0.08012  1.0000
  H   H476      1.0  0.26458  0.55287  0.04662  1.0000
  H   H477      1.0  0.23638  0.54195  0.10243  1.0000
  Fe  Fe54      1.0  0.03833  0.73444  0.49471  1.0000
  S   S115      1.0  0.07353  0.71840  0.48601  1.0000
  H   H478      1.0  0.15871  0.69756  0.14080  1.0000
  C   C392      1.0  0.43963  0.74501  0.33575  1.0000
  H   H479      1.0  0.37539  0.72879  0.42476  1.0000
  H   H480      1.0  0.18614  0.64796  0.44947  1.0000
  H   H481      1.0  0.16742  0.67175  0.45283  1.0000
  C   C393      1.0  0.19839  0.56300  0.05942  1.0000
  H   H482      1.0  0.12323  0.63278  0.46364  1.0000
  C   C394      1.0  0.19560  0.69837  0.08526  1.0000
  C   C395      1.0  0.32619  0.52681  0.08915  1.0000
  C   C396      1.0  0.47806  0.55806  0.21984  1.0000
  H   H483      1.0  0.16116  0.64564  0.46725  1.0000
  C   C397      1.0  0.25175  0.53941  0.04646  1.0000
  H   H484      1.0  0.31355  0.74351  0.20868  1.0000
  H   H485      1.0  0.26125  0.55293  0.08800  1.0000
  H   H486      1.0  0.26146  0.52311  0.04649  1.0000
  H   H487      1.0  0.18916  0.61949  0.05452  1.0000
  C   C398      1.0  0.19816  0.60370  0.05773  1.0000
  C   C399      1.0  0.22099  0.52047  0.06553  1.0000
  C   C400      1.0  0.02330  0.68960  0.01098  1.0000
  H   H488      1.0  0.18313  0.69895  0.17165  1.0000
  C   C401      1.0  0.44504  0.57081  0.24211  1.0000
  H   H489      1.0  0.18440  0.64806  0.40831  1.0000
  C   C402      1.0  0.44051  0.55838  0.20369  1.0000
  H   H490      1.0  0.16892  0.67378  0.41114  1.0000
  H   H491      1.0  0.45686  0.52775  0.24964  1.0000
  H   H492      1.0  0.30764  0.52873  0.05776  1.0000
  C   C403      1.0  0.16144  0.68836  0.10630  1.0000
  C   C404      1.0  0.00663  0.63927  0.03675  1.0000
  H   H493      1.0  0.35465  0.67413  0.36850  1.0000
  H   H494      1.0  0.44202  0.57575  0.19675  1.0000
  H   H495      1.0  0.21883  0.50773  0.44894  1.0000
  H   H496      1.0  0.06958  0.67872  0.44674  1.0000
  C   C405      1.0  0.31332  0.51794  0.07152  1.0000
  H   H497      1.0  0.45488  0.56906  0.25798  1.0000
  C   C406      1.0  0.12179  0.67228  0.42077  1.0000
  C   C407      1.0  0.25467  0.73062  0.22899  1.0000
  C   C408      1.0  0.44825  0.53164  0.23339  1.0000
  C   C409      1.0  0.09489  0.65392  0.45602  1.0000
  H   H498      1.0  0.17363  0.61489  0.42647  1.0000
  H   H499      1.0  0.23021  0.71545  0.16731  1.0000
  C   C410      1.0  0.09972  0.68070  0.42519  1.0000
  H   H500      1.0  0.37467  0.69270  0.35552  1.0000
  H   H501      1.0  0.25118  0.58382  0.06822  1.0000
  N   N29       1.0  0.36862  0.69803  0.39136  1.0000
  C   C411      1.0  0.34981  0.71440  0.38693  1.0000
  C   C412      1.0  0.37075  0.68303  0.37143  1.0000
  C   C413      1.0  0.36216  0.68391  0.41144  1.0000
  C   C414      1.0  0.38975  0.71019  0.39587  1.0000
  H   H502      1.0  0.25750  0.52349  0.08943  1.0000
  C   C415      1.0  0.20407  0.74296  0.14110  1.0000
  H   H503      1.0  0.34661  0.67405  0.40830  1.0000
  C   C416      1.0  0.13113  0.65441  0.43414  1.0000
  H   H504      1.0  0.42967  0.52966  0.23695  1.0000
  H   H505      1.0  0.35434  0.72583  0.37242  1.0000
  H   H506      1.0  0.33385  0.70580  0.38259  1.0000
  H   H507      1.0  0.34539  0.72495  0.40184  1.0000
  H   H508      1.0  0.16922  0.72549  0.16427  1.0000
  H   H509      1.0  0.19357  0.72493  0.18161  1.0000
  H   H510      1.0  0.03795  0.62747  0.02090  1.0000
  C   C417      1.0  0.42943  0.73476  0.40476  1.0000
  H   H511      1.0  0.01510  0.65121  0.04724  1.0000
  H   H512      1.0  0.36644  0.50303  0.24614  1.0000
  S   S116      1.0  0.20938  0.64758  0.49426  1.0000
  S   S117      1.0  0.15184  0.69935  0.00907  1.0000
  H   H513      1.0  0.35675  0.50492  0.29474  1.0000
  H   H514      1.0  0.47392  0.59284  0.20802  1.0000
  H   H515      1.0  0.32739  0.51504  0.29439  1.0000
  H   H516      1.0  0.32686  0.52036  0.24389  1.0000
  C   C418      1.0  0.17023  0.57118  0.00107  1.0000
  C   C419      1.0  0.13274  0.74075  0.10221  1.0000
  H   H517      1.0  0.44878  0.52477  0.08660  1.0000
  H   H518      1.0  0.39608  0.51112  0.12078  1.0000
  H   H519      1.0  0.14865  0.68046  0.48770  1.0000
  C   C420      1.0  0.04787  0.74831  0.02131  1.0000
  H   H520      1.0  0.45708  0.50891  0.11124  1.0000
  C   C421      1.0  0.32081  0.50386  0.25074  1.0000
  C   C422      1.0  0.44805  0.50782  0.09483  1.0000
  H   H521      1.0  0.43892  0.50666  0.05276  1.0000
  C   C423      1.0  0.00050  0.69606  0.01638  1.0000
  C   C424      1.0  0.16421  0.59432  0.00089  1.0000
  S   S118      1.0  0.19953  0.53434  0.00102  1.0000
  H   H522      1.0  0.30396  0.50681  0.25939  1.0000
  H   H523      1.0  0.15693  0.55885  0.00161  1.0000
  C   C425      1.0  0.40830  0.50120  0.03576  1.0000
  S   S119      1.0  0.45380  0.50372  0.16380  1.0000
  C   C426      1.0  0.42118  0.50274  0.05535  1.0000
  C   C427      1.0  0.19320  0.56388  0.00049  1.0000
  Fe  Fe55      1.0  0.14306  0.66359  0.00041  1.0000
  Fe  Fe56      1.0  0.41709  0.49955  0.17764  1.0000
  N   N30       1.0  0.42414  0.50063  0.09856  1.0000
  H   H524      1.0  0.22786  0.57499  0.00026  1.0000
  C   C428      1.0  0.41113  0.49931  0.07740  1.0000
  C   C429      1.0  0.48109  0.49919  0.17604  1.0000
  C   C430      1.0  0.21014  0.58012  0.00003  1.0000
  C   C431      1.0  0.18115  0.61055  0.00007  1.0000
  C   C432      1.0  0.30911  0.71462  0.61299  1.0000
  H   H525      1.0  0.34705  0.65770  0.76375  1.0000
  H   H526      1.0  0.24371  0.53858  0.55965  1.0000
  Fe  Fe57      1.0  0.23068  0.51077  0.99586  1.0000
  H   H527      1.0  0.06475  0.71781  0.53667  1.0000
  H   H528      1.0  0.34228  0.74148  0.60115  1.0000
  Fe  Fe58      1.0  0.12765  0.71028  0.98177  1.0000
  C   C433      1.0  0.12627  0.68782  0.56741  1.0000
  S   S120      1.0  0.12084  0.67487  0.97121  1.0000
  Fe  Fe59      1.0  0.37187  0.51537  0.77834  1.0000
  S   S121      1.0  0.39165  0.52503  0.80890  1.0000
  S   S122      1.0  0.34808  0.53790  0.75735  1.0000
  Fe  Fe60      1.0  0.23007  0.62705  0.51932  1.0000
  S   S123      1.0  0.19992  0.60837  0.53344  1.0000
  S   S124      1.0  0.26054  0.63922  0.53883  1.0000
  H   H529      1.0  0.31268  0.69696  0.51436  1.0000
  N   N31       1.0  0.44384  0.56480  0.73678  1.0000
  C   C434      1.0  0.48463  0.50836  0.79547  1.0000
  N   N32       1.0  0.08557  0.73748  0.55795  1.0000
  Fe  Fe61      1.0  0.34414  0.70382  0.66767  1.0000
  S   S125      1.0  0.34910  0.69497  0.70447  1.0000
  S   S126      1.0  0.36338  0.72864  0.64440  1.0000
  Fe  Fe62      1.0  0.30332  0.67303  0.66420  1.0000
  S   S127      1.0  0.30533  0.66168  0.70096  1.0000
  S   S128      1.0  0.27317  0.66164  0.64363  1.0000
  Fe  Fe63      1.0  0.31095  0.69804  0.70888  1.0000
  S   S129      1.0  0.29682  0.71152  0.74275  1.0000
  Fe  Fe64      1.0  0.34312  0.65914  0.69462  1.0000
  S   S130      1.0  0.36749  0.63350  0.71098  1.0000
  S   S131      1.0  0.30617  0.70966  0.67279  1.0000
  S   S132      1.0  0.34088  0.66772  0.65708  1.0000
  H   H530      1.0  0.06906  0.73939  0.91271  1.0000
  H   H531      1.0  0.27071  0.74007  0.71128  1.0000
  S   S133      1.0  0.01334  0.72915  0.52415  1.0000
  C   C435      1.0  0.15266  0.72817  0.92053  1.0000
  C   C436      1.0  0.20687  0.51846  0.51013  1.0000
  H   H532      1.0  0.45159  0.59999  0.73916  1.0000
  H   H533      1.0  0.46821  0.58478  0.71776  1.0000
  C   C437      1.0  0.26367  0.64419  0.56830  1.0000
  C   C438      1.0  0.24492  0.64657  0.58329  1.0000
  C   C439      1.0  0.24819  0.65199  0.60623  1.0000
  C   C440      1.0  0.27017  0.65507  0.61448  1.0000
  C   C441      1.0  0.28893  0.65217  0.59962  1.0000
  C   C442      1.0  0.28567  0.64687  0.57664  1.0000
  H   H534      1.0  0.22789  0.64473  0.57713  1.0000
  H   H535      1.0  0.23357  0.65402  0.61766  1.0000
  H   H536      1.0  0.30590  0.65378  0.60590  1.0000
  H   H537      1.0  0.30029  0.64505  0.56518  1.0000
  C   C443      1.0  0.43400  0.56450  0.76028  1.0000
  N   N33       1.0  0.25829  0.56968  0.57005  1.0000
  C   C444      1.0  0.35283  0.56537  0.74612  1.0000
  C   C445      1.0  0.37183  0.57768  0.75173  1.0000
  C   C446      1.0  0.37567  0.59888  0.74141  1.0000
  C   C447      1.0  0.36037  0.60816  0.72567  1.0000
  C   C448      1.0  0.34075  0.59634  0.72091  1.0000
  C   C449      1.0  0.33709  0.57500  0.73100  1.0000
  H   H538      1.0  0.38364  0.57067  0.76378  1.0000
  H   H539      1.0  0.39080  0.60796  0.74530  1.0000
  H   H540      1.0  0.32883  0.60326  0.70885  1.0000
  H   H541      1.0  0.32218  0.56572  0.72678  1.0000
  C   C450      1.0  0.10567  0.72221  0.55550  1.0000
  H   H542      1.0  0.01330  0.65445  0.96766  1.0000
  C   C451      1.0  0.39170  0.73817  0.64704  1.0000
  H   H543      1.0  0.27479  0.70482  0.59021  1.0000
  H   H544      1.0  0.09617  0.64880  0.52804  1.0000
  C   C452      1.0  0.40474  0.73270  0.66596  1.0000
  H   H545      1.0  0.46351  0.54247  0.71512  1.0000
  Fe  Fe65      1.0  0.20842  0.58217  0.50692  1.0000
  C   C453      1.0  0.06453  0.72490  0.55409  1.0000
  H   H546      1.0  0.31649  0.59752  0.63301  1.0000
  H   H547      1.0  0.27221  0.53576  0.56910  1.0000
  H   H548      1.0  0.03341  0.73981  0.98943  1.0000
  H   H549      1.0  0.24927  0.54014  0.58952  1.0000
  H   H550      1.0  0.06202  0.71078  0.56639  1.0000
  H   H551      1.0  0.36187  0.60106  0.81274  1.0000
  C   C454      1.0  0.42209  0.58578  0.70576  1.0000
  C   C455      1.0  0.10770  0.70275  0.56966  1.0000
  H   H552      1.0  0.32031  0.71933  0.62700  1.0000
  C   C456      1.0  0.40378  0.58729  0.69105  1.0000
  C   C457      1.0  0.10171  0.66228  0.51677  1.0000
  H   H553      1.0  0.32976  0.57127  0.60295  1.0000
  H   H554      1.0  0.39765  0.72221  0.67947  1.0000
  H   H555      1.0  0.22663  0.57600  0.58864  1.0000
  H   H556      1.0  0.32576  0.67332  0.74890  1.0000
  H   H557      1.0  0.16774  0.71748  0.88849  1.0000
  C   C458      1.0  0.07574  0.74849  0.89793  1.0000
  C   C459      1.0  0.34075  0.69698  0.59336  1.0000
  C   C460      1.0  0.14352  0.69198  0.55130  1.0000
  H   H558      1.0  0.35099  0.70018  0.60863  1.0000
  H   H559      1.0  0.47413  0.58135  0.74735  1.0000
  C   C461      1.0  0.40905  0.54939  0.71906  1.0000
  C   C462      1.0  0.00984  0.66624  0.98119  1.0000
  C   C463      1.0  0.28151  0.69520  0.53408  1.0000
  H   H560      1.0  0.06865  0.67914  0.51717  1.0000
  H   H561      1.0  0.34047  0.56699  0.80411  1.0000
  S   S134      1.0  0.45692  0.51641  0.78590  1.0000
  C   C464      1.0  0.14229  0.71109  0.53739  1.0000
  S   S135      1.0  0.21463  0.54566  0.51954  1.0000
  H   H562      1.0  0.28545  0.66552  0.75416  1.0000
  C   C465      1.0  0.33185  0.73624  0.58663  1.0000
  C   C466      1.0  0.28388  0.70394  0.57402  1.0000
  H   H563      1.0  0.30187  0.69798  0.61783  1.0000
  C   C467      1.0  0.16207  0.73175  0.89847  1.0000
  S   S136      1.0  0.26779  0.51965  0.99410  1.0000
  C   C468      1.0  0.30468  0.69916  0.53103  1.0000
  H   H564      1.0  0.04911  0.73596  0.55593  1.0000
  H   H565      1.0  0.34336  0.73660  0.57133  1.0000
  S   S137      1.0  0.28297  0.50863  0.92887  1.0000
  H   H566      1.0  0.08168  0.73342  0.59451  1.0000
  H   H567      1.0  0.43690  0.73660  0.68223  1.0000
  H   H568      1.0  0.30614  0.56995  0.78112  1.0000
  Fe  Fe66      1.0  0.17959  0.62690  0.50660  1.0000
  C   C469      1.0  0.29701  0.56992  0.58732  1.0000
  H   H569      1.0  0.27163  0.68958  0.52000  1.0000
  H   H570      1.0  0.15757  0.68003  0.54917  1.0000
  H   H571      1.0  0.27091  0.59340  0.54500  1.0000
  H   H572      1.0  0.25545  0.57066  0.53348  1.0000
  H   H573      1.0  0.30352  0.55845  0.57454  1.0000
  H   H574      1.0  0.27655  0.61103  0.63445  1.0000
  C   C470      1.0  0.31216  0.57707  0.60357  1.0000
  H   H575      1.0  0.12715  0.67271  0.57792  1.0000
  C   C471      1.0  0.12361  0.72596  0.53922  1.0000
  H   H576      1.0  0.40107  0.60243  0.68085  1.0000
  H   H577      1.0  0.29419  0.52189  0.88271  1.0000
  C   C472      1.0  0.28220  0.59938  0.62133  1.0000
  C   C473      1.0  0.02815  0.67438  0.99350  1.0000
  C   C474      1.0  0.26754  0.57512  0.54691  1.0000
  H   H578      1.0  0.23567  0.59862  0.56956  1.0000
  H   H579      1.0  0.34943  0.63792  0.79836  1.0000
  H   H580      1.0  0.44747  0.56332  0.77326  1.0000
  C   C475      1.0  0.23513  0.58001  0.57198  1.0000
  H   H581      1.0  0.29147  0.63764  0.74512  1.0000
  H   H582      1.0  0.43307  0.60010  0.70579  1.0000
  C   C476      1.0  0.39083  0.55108  0.70430  1.0000
  C   C477      1.0  0.38815  0.57003  0.69038  1.0000
  C   C478      1.0  0.45707  0.54361  0.73304  1.0000
  H   H583      1.0  0.37348  0.57176  0.67968  1.0000
  N   N34       1.0  0.23019  0.55868  0.93246  1.0000
  C   C479      1.0  0.24441  0.56340  0.91172  1.0000
  C   C480      1.0  0.24516  0.55720  0.95230  1.0000
  C   C481      1.0  0.22009  0.53622  0.92967  1.0000
  C   C482      1.0  0.21300  0.57693  0.93610  1.0000
  C   C483      1.0  0.21985  0.59964  0.93718  1.0000
  C   C484      1.0  0.18937  0.57281  0.93954  1.0000
  C   C485      1.0  0.20404  0.61712  0.94112  1.0000
  C   C486      1.0  0.17370  0.59045  0.94334  1.0000
  C   C487      1.0  0.18101  0.61253  0.94410  1.0000
  H   H584      1.0  0.25511  0.57841  0.91347  1.0000
  H   H585      1.0  0.25661  0.54922  0.90793  1.0000
  H   H586      1.0  0.23363  0.56609  0.89661  1.0000
  H   H587      1.0  0.25363  0.57331  0.95555  1.0000
  H   H588      1.0  0.25892  0.54430  0.94984  1.0000
  H   H589      1.0  0.23528  0.55244  0.96798  1.0000
  H   H590      1.0  0.20839  0.53618  0.91511  1.0000
  H   H591      1.0  0.23346  0.52302  0.92632  1.0000
  H   H592      1.0  0.21065  0.53064  0.94540  1.0000
  H   H593      1.0  0.23757  0.60405  0.93555  1.0000
  H   H594      1.0  0.18256  0.55610  0.93995  1.0000
  H   H595      1.0  0.20963  0.63429  0.94251  1.0000
  H   H596      1.0  0.15585  0.58695  0.94650  1.0000
  H   H597      1.0  0.16890  0.62606  0.94788  1.0000
  H   H598      1.0  0.35300  0.69718  0.57865  1.0000
  C   C488      1.0  0.25584  0.54497  0.57223  1.0000
  H   H599      1.0  0.30334  0.68155  0.78477  1.0000
  H   H600      1.0  0.32617  0.66828  0.79925  1.0000
  H   H601      1.0  0.33408  0.67969  0.59524  1.0000
  H   H602      1.0  0.29755  0.65886  0.80457  1.0000
  C   C489      1.0  0.26698  0.59259  0.60501  1.0000
  H   H603      1.0  0.15553  0.71397  0.52454  1.0000
  H   H604      1.0  0.37812  0.53808  0.70448  1.0000
  H   H605      1.0  0.15120  0.71127  0.92741  1.0000
  C   C490      1.0  0.31760  0.70549  0.54942  1.0000
  C   C491      1.0  0.30767  0.70778  0.57158  1.0000
  H   H606      1.0  0.42359  0.57997  0.76367  1.0000
  H   H607      1.0  0.28367  0.56590  0.54278  1.0000
  C   C492      1.0  0.42523  0.56671  0.72032  1.0000
  H   H608      1.0  0.24996  0.59970  0.60640  1.0000
  C   C493      1.0  0.27396  0.57756  0.58745  1.0000
  N   N35       1.0  0.32192  0.71377  0.59089  1.0000
  H   H609      1.0  0.22377  0.57358  0.55879  1.0000
  C   C494      1.0  0.46011  0.58360  0.73506  1.0000
  H   H610      1.0  0.42288  0.54982  0.76360  1.0000
  H   H611      1.0  0.29253  0.60601  0.76670  1.0000
  H   H612      1.0  0.25318  0.69417  0.55782  1.0000
  H   H613      1.0  0.27622  0.64258  0.77189  1.0000
  H   H614      1.0  0.33210  0.64471  0.74158  1.0000
  C   C495      1.0  0.30475  0.59180  0.62052  1.0000
  N   N36       1.0  0.31234  0.64843  0.77247  1.0000
  C   C496      1.0  0.33008  0.65640  0.75606  1.0000
  C   C497      1.0  0.29039  0.64837  0.76046  1.0000
  C   C498      1.0  0.30978  0.66488  0.79114  1.0000
  C   C499      1.0  0.31930  0.62605  0.78159  1.0000
  C   C500      1.0  0.33915  0.62361  0.79476  1.0000
  C   C501      1.0  0.30742  0.60606  0.77703  1.0000
  C   C502      1.0  0.34649  0.60259  0.80300  1.0000
  C   C503      1.0  0.31496  0.58513  0.78535  1.0000
  C   C504      1.0  0.33442  0.58339  0.79829  1.0000
  H   H615      1.0  0.09473  0.69874  0.58238  1.0000
  H   H616      1.0  0.29513  0.72749  0.61279  1.0000
  H   H617      1.0  0.12343  0.73997  0.52734  1.0000
  H   H618      1.0  0.44687  0.52843  0.73702  1.0000
  H   H619      1.0  0.01900  0.60160  0.99542  1.0000
  H   H620      1.0  0.33552  0.70829  0.54624  1.0000
  C   C505      1.0  0.27111  0.69784  0.55545  1.0000
  H   H621      1.0  0.40982  0.53478  0.73014  1.0000
  H   H622      1.0  0.47194  0.54219  0.74437  1.0000
  C   C506      1.0  0.27551  0.73280  0.74680  1.0000
  C   C507      1.0  0.08604  0.67958  0.51072  1.0000
  S   S138      1.0  0.05634  0.66367  0.98745  1.0000
  H   H623      1.0  0.32690  0.51336  0.85626  1.0000
  H   H624      1.0  0.27611  0.72974  0.78338  1.0000
  C   C508      1.0  0.26551  0.74420  0.72852  1.0000
  S   S139      1.0  0.13215  0.74289  0.96102  1.0000
  H   H625      1.0  0.10843  0.73171  0.89877  1.0000
  C   C509      1.0  0.26849  0.73843  0.76911  1.0000
  Fe  Fe67      1.0  0.42056  0.50387  0.79363  1.0000
  C   C510      1.0  0.12434  0.66208  0.50815  1.0000
  C   C511      1.0  0.42700  0.74092  0.66748  1.0000
  C   C512      1.0  0.32632  0.50593  0.87316  1.0000
  C   C513      1.0  0.14494  0.74643  0.93348  1.0000
  Fe  Fe68      1.0  0.09167  0.67598  0.99738  1.0000
  H   H626      1.0  0.22731  0.50121  0.53510  1.0000
  C   C514      1.0  0.20412  0.60323  0.99968  1.0000
  C   C515      1.0  0.30776  0.51075  0.88826  1.0000
  S   S140      1.0  0.14309  0.63929  0.51583  1.0000
  H   H627      1.0  0.21738  0.61560  0.99917  1.0000
  C   C516      1.0  0.30663  0.50133  0.91042  1.0000
  C   C517      1.0  0.09788  0.74409  0.89002  1.0000
  C   C518      1.0  0.21585  0.49920  0.52123  1.0000
  C   C519      1.0  0.04733  0.74787  0.99766  1.0000
  C   C520      1.0  0.08430  0.74670  0.58126  1.0000
  S   S141      1.0  0.17483  0.64006  0.99913  1.0000
  H   H628      1.0  0.39312  0.77102  0.35963  1.0000
  S   S142      1.0  0.01366  0.80859  0.45429  1.0000
  C   C521      1.0  0.17128  0.91126  0.19605  1.0000
  C   C522      1.0  0.12561  0.76371  0.02306  1.0000
  H   H629      1.0  0.24220  0.82903  0.20690  1.0000
  C   C523      1.0  0.08423  0.77960  0.31022  1.0000
  C   C524      1.0  0.49379  0.89363  0.29041  1.0000
  H   H630      1.0  0.07246  0.76728  0.31690  1.0000
  H   H631      1.0  0.01196  0.86021  0.38797  1.0000
  C   C525      1.0  0.00976  0.81481  0.42478  1.0000
  S   S143      1.0  0.49942  0.80594  0.33978  1.0000
  C   C526      1.0  0.42670  0.88990  0.28374  1.0000
  H   H632      1.0  0.02821  0.96038  0.35138  1.0000
  Fe  Fe69      1.0  0.01276  0.77731  0.47788  1.0000
  H   H633      1.0  0.08874  0.78648  0.06195  1.0000
  C   C527      1.0  0.30814  0.75873  0.21735  1.0000
  S   S144      1.0  0.48198  0.82015  0.39150  1.0000
  Fe  Fe70      1.0  0.18181  0.79965  0.14659  1.0000
  S   S145      1.0  0.21681  0.80366  0.16053  1.0000
  S   S146      1.0  0.18035  0.78917  0.10945  1.0000
  Fe  Fe71      1.0  0.15859  0.81279  0.19196  1.0000
  S   S147      1.0  0.19186  0.81678  0.20942  1.0000
  S   S148      1.0  0.12225  0.81614  0.20658  1.0000
  Fe  Fe72      1.0  0.20312  0.83500  0.17702  1.0000
  S   S149      1.0  0.22363  0.86660  0.18288  1.0000
  Fe  Fe73      1.0  0.20349  0.78519  0.19159  1.0000
  C   C528      1.0  0.16876  0.75908  0.07683  1.0000
  S   S150      1.0  0.16904  0.83279  0.16057  1.0000
  S   S151      1.0  0.16922  0.77945  0.17666  1.0000
  C   C529      1.0  0.23835  0.76422  0.24589  1.0000
  C   C530      1.0  0.42198  0.98666  0.18879  1.0000
  C   C531      1.0  0.01349  0.83687  0.41662  1.0000
  H   H634      1.0  0.01943  0.84934  0.42816  1.0000
  C   C532      1.0  0.08470  0.76731  0.01933  1.0000
  H   H635      1.0  0.25187  0.81817  0.23349  1.0000
  Fe  Fe74      1.0  0.03479  0.88109  0.28969  1.0000
  S   S152      1.0  0.07289  0.87889  0.28087  1.0000
  S   S153      1.0  0.02493  0.89197  0.32538  1.0000
  H   H636      1.0  0.07153  0.84237  0.33665  1.0000
  H   H637      1.0  0.26474  0.79536  0.17641  1.0000
  H   H638      1.0  0.29382  0.77307  0.18782  1.0000
  H   H639      1.0  0.12875  0.76402  0.00434  1.0000
  S   S154      1.0  0.27676  0.99764  0.09804  1.0000
  H   H640      1.0  0.24335  0.79923  0.21210  1.0000
  Fe  Fe75      1.0  0.29074  0.96579  0.11395  1.0000
  S   S155      1.0  0.27023  0.93374  0.11021  1.0000
  S   S156      1.0  0.32532  0.96896  0.09651  1.0000
  C   C533      1.0  0.32041  0.98158  0.01409  1.0000
  H   H641      1.0  0.14119  0.77035  0.03071  1.0000
  H   H642      1.0  0.07247  0.80544  0.35823  1.0000
  C   C534      1.0  0.49031  0.80318  0.47410  1.0000
  H   H643      1.0  0.05850  0.98352  0.33371  1.0000
  S   S157      1.0  0.00990  0.90493  0.27305  1.0000
  C   C535      1.0  0.23639  0.88507  0.16236  1.0000
  C   C536      1.0  0.23507  0.88160  0.13898  1.0000
  C   C537      1.0  0.24552  0.89668  0.12335  1.0000
  C   C538      1.0  0.25740  0.91541  0.13084  1.0000
  C   C539      1.0  0.25865  0.91890  0.15425  1.0000
  C   C540      1.0  0.24820  0.90380  0.16990  1.0000
  H   H644      1.0  0.22608  0.86729  0.13288  1.0000
  H   H645      1.0  0.24446  0.89382  0.10529  1.0000
  H   H646      1.0  0.26772  0.93319  0.16026  1.0000
  H   H647      1.0  0.24935  0.90668  0.18794  1.0000
  C   C541      1.0  0.10910  0.83306  0.22808  1.0000
  C   C542      1.0  0.12158  0.84668  0.24215  1.0000
  C   C543      1.0  0.11023  0.86061  0.25819  1.0000
  C   C544      1.0  0.08634  0.86074  0.26069  1.0000
  C   C545      1.0  0.07390  0.84659  0.24714  1.0000
  C   C546      1.0  0.08524  0.83292  0.23087  1.0000
  H   H648      1.0  0.13993  0.84635  0.24082  1.0000
  H   H649      1.0  0.12001  0.87135  0.26875  1.0000
  H   H650      1.0  0.05553  0.84645  0.24889  1.0000
  H   H651      1.0  0.07542  0.82232  0.22020  1.0000
  H   H652      1.0  0.10196  0.75878  0.06212  1.0000
  Fe  Fe76      1.0  0.47758  0.79086  0.36800  1.0000
  H   H653      1.0  0.22707  0.77875  0.24513  1.0000
  H   H654      1.0  0.43652  0.92459  0.28398  1.0000
  C   C547      1.0  0.11911  0.78676  0.28872  1.0000
  H   H655      1.0  0.43177  0.97585  0.19996  1.0000
  C   C548      1.0  0.16386  0.76711  0.09884  1.0000
  C   C549      1.0  0.10347  0.77628  0.05535  1.0000
  C   C550      1.0  0.14591  0.75768  0.11159  1.0000
  H   H656      1.0  0.32357  0.97073  0.02865  1.0000
  C   C551      1.0  0.04609  0.99121  0.34530  1.0000
  H   H657      1.0  0.05599  0.78252  0.34849  1.0000
  H   H658      1.0  0.49662  0.86145  0.30799  1.0000
  H   H659      1.0  0.04119  0.84110  0.33642  1.0000
  C   C552      1.0  0.48176  0.80435  0.49680  1.0000
  H   H660      1.0  0.46372  0.80714  0.49997  1.0000
  C   C553      1.0  0.01688  0.98035  0.29790  1.0000
  Fe  Fe77      1.0  0.33512  0.98901  0.12726  1.0000
  C   C554      1.0  0.05730  0.80110  0.34837  1.0000
  S   S158      1.0  0.30122  0.98350  0.14520  1.0000
  C   C555      1.0  0.42698  0.76062  0.34867  1.0000
  S   S159      1.0  0.36537  0.98023  0.15032  1.0000
  H   H661      1.0  0.26466  0.82506  0.17199  1.0000
  S   S160      1.0  0.22562  0.75493  0.20175  1.0000
  H   H662      1.0  0.04192  0.80750  0.35795  1.0000
  C   C556      1.0  0.11551  0.80976  0.29141  1.0000
  C   C557      1.0  0.09622  0.81789  0.30333  1.0000
  C   C558      1.0  0.01241  0.98803  0.36934  1.0000
  C   C559      1.0  0.38967  0.99196  0.16324  1.0000
  C   C560      1.0  0.10769  0.80048  0.02259  1.0000
  C   C561      1.0  0.03883  0.80362  0.31220  1.0000
  N   N37       1.0  0.15342  0.89426  0.19313  1.0000
  C   C562      1.0  0.15152  0.89068  0.16832  1.0000
  C   C563      1.0  0.16138  0.87305  0.20405  1.0000
  C   C564      1.0  0.13093  0.90068  0.20330  1.0000
  C   C565      1.0  0.12747  0.91999  0.21702  1.0000
  C   C566      1.0  0.11189  0.88668  0.20067  1.0000
  C   C567      1.0  0.10631  0.92465  0.22763  1.0000
  C   C568      1.0  0.09081  0.89164  0.21116  1.0000
  C   C569      1.0  0.08808  0.91043  0.22482  1.0000
  H   H663      1.0  0.14435  0.90592  0.15969  1.0000
  H   H664      1.0  0.14049  0.87634  0.16448  1.0000
  H   H665      1.0  0.16634  0.92774  0.18825  1.0000
  H   H666      1.0  0.14972  0.85892  0.20121  1.0000
  H   H667      1.0  0.17841  0.86768  0.19730  1.0000
  H   H668      1.0  0.16275  0.87498  0.22275  1.0000
  H   H669      1.0  0.14089  0.93157  0.22017  1.0000
  H   H670      1.0  0.11333  0.87124  0.19120  1.0000
  H   H671      1.0  0.10408  0.93916  0.23845  1.0000
  H   H672      1.0  0.07671  0.88034  0.20939  1.0000
  H   H673      1.0  0.07191  0.91368  0.23363  1.0000
  H   H674      1.0  0.44137  0.82576  0.30067  1.0000
  H   H675      1.0  0.02251  0.81005  0.31992  1.0000
  S   S161      1.0  0.44004  0.78206  0.36423  1.0000
  H   H676      1.0  0.39818  0.96090  0.18067  1.0000
  H   H677      1.0  0.28667  0.81104  0.25038  1.0000
  H   H678      1.0  0.03746  0.78506  0.31175  1.0000
  C   C570      1.0  0.05709  0.83570  0.32712  1.0000
  H   H679      1.0  0.41941  0.85516  0.28741  1.0000
  H   H680      1.0  0.24942  0.77108  0.27978  1.0000
  C   C571      1.0  0.07990  0.80297  0.31311  1.0000
  C   C572      1.0  0.00212  0.79890  0.40959  1.0000
  H   H681      1.0  0.42108  0.89087  0.26634  1.0000
  H   H682      1.0  0.12758  0.82143  0.28386  1.0000
  C   C573      1.0  0.30436  0.77966  0.25202  1.0000
  H   H683      1.0  0.09434  0.83596  0.30427  1.0000
  H   H684      1.0  0.18273  0.76613  0.06690  1.0000
  N   N38       1.0  0.10489  0.77675  0.03007  1.0000
  H   H685      1.0  0.30654  0.78047  0.27027  1.0000
  H   H686      1.0  0.18750  0.75136  0.13750  1.0000
  S   S162      1.0  0.01078  0.85227  0.28999  1.0000
  H   H687      1.0  0.02676  0.96588  0.29221  1.0000
  C   C574      1.0  0.10355  0.77169  0.29818  1.0000
  H   H688      1.0  0.03982  0.80992  0.29425  1.0000
  C   C575      1.0  0.40308  0.75904  0.34971  1.0000
  H   H689      1.0  0.18782  0.90597  0.18775  1.0000
  N   N39       1.0  0.05875  0.81087  0.32500  1.0000
  H   H690      1.0  0.16843  0.88673  0.16007  1.0000
  C   C576      1.0  0.31198  0.76059  0.24050  1.0000
  H   H691      1.0  0.17500  0.91361  0.21431  1.0000
  H   H692      1.0  0.29133  0.80992  0.17175  1.0000
  Fe  Fe78      1.0  0.49563  0.97098  0.25735  1.0000
  H   H693      1.0  0.05668  0.84418  0.31016  1.0000
  C   C577      1.0  0.49973  0.92644  0.31301  1.0000
  N   N40       1.0  0.43383  0.84563  0.33063  1.0000
  C   C578      1.0  0.41030  0.83707  0.33269  1.0000
  C   C579      1.0  0.44815  0.82921  0.31768  1.0000
  C   C580      1.0  0.44281  0.84655  0.35396  1.0000
  C   C581      1.0  0.43388  0.86765  0.31850  1.0000
  C   C582      1.0  0.44225  0.88752  0.32821  1.0000
  C   C583      1.0  0.42590  0.86954  0.29595  1.0000
  C   C584      1.0  0.44270  0.90783  0.31593  1.0000
  H   H694      1.0  0.47885  0.80506  0.46009  1.0000
  C   C585      1.0  0.43520  0.90898  0.29369  1.0000
  H   H695      1.0  0.40294  0.83382  0.31588  1.0000
  H   H696      1.0  0.40977  0.82075  0.34233  1.0000
  H   H697      1.0  0.39881  0.84924  0.34177  1.0000
  C   C586      1.0  0.25089  0.75972  0.26561  1.0000
  H   H698      1.0  0.44927  0.81264  0.32673  1.0000
  H   H699      1.0  0.46578  0.83541  0.31508  1.0000
  H   H700      1.0  0.44222  0.82987  0.36276  1.0000
  H   H701      1.0  0.46096  0.85165  0.35368  1.0000
  H   H702      1.0  0.43267  0.85835  0.36488  1.0000
  H   H703      1.0  0.44928  0.88776  0.34500  1.0000
  C   C587      1.0  0.40283  0.97824  0.17783  1.0000
  H   H704      1.0  0.44981  0.92261  0.32339  1.0000
  H   H705      1.0  0.28633  0.84103  0.22659  1.0000
  H   H706      1.0  0.13391  0.78065  0.27908  1.0000
  N   N41       1.0  0.27584  0.81399  0.20516  1.0000
  C   C588      1.0  0.28682  0.83592  0.20850  1.0000
  C   C589      1.0  0.27418  0.81084  0.18024  1.0000
  C   C590      1.0  0.25234  0.81519  0.21488  1.0000
  C   C591      1.0  0.28871  0.79571  0.21683  1.0000
  C   C592      1.0  0.29288  0.79698  0.24046  1.0000
  C   C593      1.0  0.29666  0.77594  0.20558  1.0000
  H   H707      1.0  0.48998  0.88627  0.27429  1.0000
  H   H708      1.0  0.11909  0.78301  0.06295  1.0000
  C   C594      1.0  0.49491  0.91720  0.29199  1.0000
  H   H709      1.0  0.30495  0.83534  0.20250  1.0000
  H   H710      1.0  0.27803  0.84981  0.19896  1.0000
  H   H711      1.0  0.09193  0.81059  0.02634  1.0000
  H   H712      1.0  0.14187  0.76372  0.12851  1.0000
  H   H713      1.0  0.12203  0.80844  0.03128  1.0000
  S   S163      1.0  0.48880  0.93417  0.26755  1.0000
  H   H714      1.0  0.21143  0.75165  0.15572  1.0000
  C   C595      1.0  0.00926  0.84311  0.39380  1.0000
  C   C596      1.0  0.49733  0.87948  0.30957  1.0000
  C   C597      1.0  0.06622  0.75784  0.03211  1.0000
  H   H715      1.0  0.06573  0.75705  0.05047  1.0000
  H   H716      1.0  0.11160  0.80203  0.00402  1.0000
  H   H717      1.0  0.10635  0.75380  0.29590  1.0000
  C   C598      1.0  0.02904  0.97812  0.35526  1.0000
  H   H718      1.0  0.40964  0.75008  0.43169  1.0000
  C   C599      1.0  0.00087  0.82741  0.37885  1.0000
  C   C600      1.0  0.24038  0.74978  0.22736  1.0000
  H   H719      1.0  0.35472  0.99877  0.21129  1.0000
  H   H720      1.0  0.03941  0.78995  0.61041  1.0000
  C   C601      1.0  0.01846  0.97374  0.68778  1.0000
  H   H721      1.0  0.05037  0.98909  0.67852  1.0000
  C   C602      1.0  0.03115  0.96824  0.62049  1.0000
  H   H722      1.0  0.02403  0.92885  0.58296  1.0000
  C   C603      1.0  0.43550  0.99585  0.81206  1.0000
  H   H723      1.0  0.24090  0.76957  0.71830  1.0000
  H   H724      1.0  0.04844  0.92402  0.65057  1.0000
  C   C604      1.0  0.38489  0.99535  0.91378  1.0000
  C   C605      1.0  0.24860  0.76093  0.73256  1.0000
  H   H725      1.0  0.37823  0.94150  0.89770  1.0000
  H   H726      1.0  0.15795  0.78876  0.89530  1.0000
  Fe  Fe79      1.0  0.03240  0.86345  0.71231  1.0000
  S   S164      1.0  0.06101  0.84005  0.72470  1.0000
  S   S165      1.0  0.03716  0.88166  0.67860  1.0000
  Fe  Fe80      1.0  0.48720  0.78431  0.62787  1.0000
  H   H727      1.0  0.06470  0.96661  0.74824  1.0000
  S   S166      1.0  0.47660  0.81530  0.60814  1.0000
  H   H728      1.0  0.47582  0.82729  0.68317  1.0000
  C   C606      1.0  0.44928  0.89651  0.67492  1.0000
  H   H729      1.0  0.01291  0.90434  0.64094  1.0000
  C   C607      1.0  0.42359  0.75996  0.63111  1.0000
  C   C608      1.0  0.02008  0.94738  0.62387  1.0000
  H   H730      1.0  0.43074  0.77036  0.61756  1.0000
  Fe  Fe81      1.0  0.28397  0.97608  0.86949  1.0000
  S   S167      1.0  0.25272  0.95654  0.85972  1.0000
  S   S168      1.0  0.31714  0.96199  0.88165  1.0000
  Fe  Fe82      1.0  0.18325  0.78846  0.83986  1.0000
  S   S169      1.0  0.21915  0.79463  0.82716  1.0000
  C   C609      1.0  0.10672  0.75582  0.87111  1.0000
  Fe  Fe83      1.0  0.16381  0.82752  0.81161  1.0000
  S   S170      1.0  0.19819  0.83686  0.79691  1.0000
  S   S171      1.0  0.13089  0.84773  0.80580  1.0000
  Fe  Fe84      1.0  0.20439  0.79956  0.79268  1.0000
  S   S172      1.0  0.22029  0.78782  0.75890  1.0000
  Fe  Fe85      1.0  0.21102  0.83152  0.83229  1.0000
  S   S173      1.0  0.24012  0.85106  0.84731  1.0000
  S   S174      1.0  0.16891  0.79076  0.80466  1.0000
  S   S175      1.0  0.17621  0.82485  0.84778  1.0000
  C   C610      1.0  0.24141  0.76638  0.75486  1.0000
  Fe  Fe86      1.0  0.49929  0.80171  0.57953  1.0000
  C   C611      1.0  0.03909  0.92608  0.59383  1.0000
  C   C612      1.0  0.01580  0.79980  0.58446  1.0000
  H   H731      1.0  0.43320  0.96890  0.78835  1.0000
  C   C613      1.0  0.40124  0.75191  0.62968  1.0000
  C   C614      1.0  0.25020  0.92723  0.85509  1.0000
  C   C615      1.0  0.22983  0.91926  0.84640  1.0000
  C   C616      1.0  0.22662  0.89607  0.84338  1.0000
  C   C617      1.0  0.24366  0.88054  0.84940  1.0000
  C   C618      1.0  0.26414  0.88851  0.85785  1.0000
  C   C619      1.0  0.26750  0.91172  0.86050  1.0000
  H   H732      1.0  0.21635  0.93110  0.84211  1.0000
  H   H733      1.0  0.21079  0.89021  0.83686  1.0000
  H   H734      1.0  0.27745  0.87662  0.86246  1.0000
  H   H735      1.0  0.28338  0.91751  0.86691  1.0000
  H   H736      1.0  0.35831  0.96002  0.91157  1.0000
  C   C620      1.0  0.41552  0.96049  0.87433  1.0000
  H   H737      1.0  0.13041  0.80966  0.83519  1.0000
  C   C621      1.0  0.00204  0.83435  0.61534  1.0000
  C   C622      1.0  0.49629  0.80201  0.51543  1.0000
  C   C623      1.0  0.07108  0.77663  0.86804  1.0000
  H   H738      1.0  0.43610  0.95317  0.84434  1.0000
  C   C624      1.0  0.01825  0.90578  0.62271  1.0000
  C   C625      1.0  0.08059  0.84304  0.74702  1.0000
  C   C626      1.0  0.07856  0.86036  0.76282  1.0000
  C   C627      1.0  0.09419  0.86162  0.78058  1.0000
  C   C628      1.0  0.11218  0.84580  0.78261  1.0000
  C   C629      1.0  0.11427  0.82853  0.76678  1.0000
  C   C630      1.0  0.09850  0.82712  0.74919  1.0000
  H   H739      1.0  0.06486  0.87267  0.76146  1.0000
  H   H740      1.0  0.09235  0.87500  0.79277  1.0000
  H   H741      1.0  0.12798  0.81622  0.76809  1.0000
  H   H742      1.0  0.10023  0.81366  0.73708  1.0000
  S   S176      1.0  0.46457  0.76474  0.65327  1.0000
  N   N42       1.0  0.44255  0.83334  0.66972  1.0000
  C   C631      1.0  0.12258  0.79914  0.84897  1.0000
  H   H743      1.0  0.05992  0.78910  0.86050  1.0000
  C   C632      1.0  0.39038  0.98456  0.82609  1.0000
  C   C633      1.0  0.16412  0.75359  0.88918  1.0000
  C   C634      1.0  0.22671  0.87401  0.90409  1.0000
  H   H744      1.0  0.04511  0.76806  0.89321  1.0000
  C   C635      1.0  0.08771  0.80104  0.82881  1.0000
  H   H745      1.0  0.09701  0.77323  0.98436  1.0000
  H   H746      1.0  0.33438  0.88066  0.77533  1.0000
  H   H747      1.0  0.08120  0.81447  0.84037  1.0000
  C   C636      1.0  0.15656  0.77188  0.90220  1.0000
  H   H748      1.0  0.20069  0.89516  0.88976  1.0000
  C   C637      1.0  0.43540  0.96128  0.86074  1.0000
  C   C638      1.0  0.43158  0.83263  0.64728  1.0000
  H   H749      1.0  0.13653  0.78858  0.85618  1.0000
  H   H750      1.0  0.45607  0.87283  0.64890  1.0000
  C   C639      1.0  0.06500  0.75725  0.98465  1.0000
  N   N43       1.0  0.39287  0.97183  0.91014  1.0000
  S   S177      1.0  0.04172  0.77128  0.50163  1.0000
  S   S178      1.0  0.32347  0.97531  0.94471  1.0000
  H   H751      1.0  0.04737  0.90981  0.58882  1.0000
  N   N44       1.0  0.25441  0.93475  0.93060  1.0000
  C   C640      1.0  0.25704  0.93260  0.95559  1.0000
  C   C641      1.0  0.27714  0.93807  0.91972  1.0000
  C   C642      1.0  0.24053  0.95543  0.92619  1.0000
  C   C643      1.0  0.24441  0.91409  0.92167  1.0000
  C   C644      1.0  0.25524  0.89283  0.92533  1.0000
  C   C645      1.0  0.22434  0.91438  0.90864  1.0000
  H   H752      1.0  0.40153  0.95153  0.86742  1.0000
  H   H753      1.0  0.46757  0.99369  0.89360  1.0000
  C   C646      1.0  0.39760  0.96123  0.93256  1.0000
  H   H754      1.0  0.26926  0.91896  0.96035  1.0000
  H   H755      1.0  0.26381  0.94824  0.96288  1.0000
  H   H756      1.0  0.24043  0.92903  0.96435  1.0000
  H   H757      1.0  0.28507  0.95371  0.92559  1.0000
  H   H758      1.0  0.27582  0.93939  0.90091  1.0000
  H   H759      1.0  0.28931  0.92408  0.92352  1.0000
  H   H760      1.0  0.22310  0.95413  0.93392  1.0000
  H   H761      1.0  0.24835  0.97058  0.93338  1.0000
  H   H762      1.0  0.23913  0.95895  0.90759  1.0000
  H   H763      1.0  0.27084  0.89131  0.93457  1.0000
  H   H764      1.0  0.21535  0.92973  0.90413  1.0000
  H   H765      1.0  0.44045  0.84303  0.63406  1.0000
  H   H766      1.0  0.40412  0.94365  0.93054  1.0000
  H   H767      1.0  0.12409  0.75196  0.86582  1.0000
  H   H768      1.0  0.11960  0.77918  0.80725  1.0000
  H   H769      1.0  0.11628  0.81067  0.86256  1.0000
  Fe  Fe87      1.0  0.01718  0.91043  0.69485  1.0000
  C   C647      1.0  0.44894  0.87493  0.66592  1.0000
  C   C648      1.0  0.37381  0.95957  0.90024  1.0000
  S   S179      1.0  0.02526  0.77774  0.56589  1.0000
  C   C649      1.0  0.44197  0.90018  0.69728  1.0000
  H   H770      1.0  0.42705  0.84762  0.71307  1.0000
  H   H771      1.0  0.06532  0.93703  0.62860  1.0000
  H   H772      1.0  0.31826  0.74928  0.58421  1.0000
  C   C650      1.0  0.06233  0.76466  0.88693  1.0000
  H   H773      1.0  0.32800  0.95567  0.98952  1.0000
  H   H774      1.0  0.09601  0.81012  0.81413  1.0000
  C   C651      1.0  0.43662  0.75448  0.65005  1.0000
  H   H775      1.0  0.07316  0.79187  0.82190  1.0000
  C   C652      1.0  0.31909  0.98687  0.97249  1.0000
  C   C653      1.0  0.02607  0.80177  0.60572  1.0000
  Fe  Fe88      1.0  0.31468  0.98842  0.90891  1.0000
  C   C654      1.0  0.09367  0.77253  0.85957  1.0000
  C   C655      1.0  0.40204  0.97275  0.80862  1.0000
  C   C656      1.0  0.21564  0.89455  0.90019  1.0000
  H   H776      1.0  0.06204  0.90721  0.62900  1.0000
  C   C657      1.0  0.01929  0.81889  0.62105  1.0000
  C   C658      1.0  0.43379  0.88237  0.71059  1.0000
  N   N45       1.0  0.26902  0.83641  0.77240  1.0000
  C   C659      1.0  0.28250  0.82043  0.75799  1.0000
  C   C660      1.0  0.26074  0.82370  0.79278  1.0000
  C   C661      1.0  0.24921  0.84430  0.75911  1.0000
  C   C662      1.0  0.28193  0.85607  0.77964  1.0000
  C   C663      1.0  0.27115  0.87273  0.79348  1.0000
  C   C664      1.0  0.30515  0.85944  0.77324  1.0000
  C   C665      1.0  0.28277  0.89165  0.80029  1.0000
  C   C666      1.0  0.31666  0.87840  0.78029  1.0000
  C   C667      1.0  0.30549  0.89447  0.79376  1.0000
  H   H777      1.0  0.29719  0.81304  0.76726  1.0000
  H   H778      1.0  0.27203  0.80594  0.75292  1.0000
  H   H779      1.0  0.28870  0.82856  0.74189  1.0000
  H   H780      1.0  0.27497  0.81880  0.80406  1.0000
  H   H781      1.0  0.25199  0.80806  0.78812  1.0000
  H   H782      1.0  0.24826  0.83356  0.80320  1.0000
  H   H783      1.0  0.25473  0.85456  0.74405  1.0000
  H   H784      1.0  0.23930  0.83002  0.75281  1.0000
  H   H785      1.0  0.23697  0.85471  0.76933  1.0000
  H   H786      1.0  0.25362  0.87117  0.79933  1.0000
  H   H787      1.0  0.31480  0.84765  0.76288  1.0000
  H   H788      1.0  0.27407  0.90411  0.81084  1.0000
  C   C668      1.0  0.25153  0.75511  0.77315  1.0000
  Fe  Fe89      1.0  0.33401  0.98823  0.85915  1.0000
  H   H789      1.0  0.41354  0.83862  0.64856  1.0000
  N   N46       1.0  0.10398  0.78548  0.84033  1.0000
  H   H790      1.0  0.43270  0.79899  0.67658  1.0000
  C   C669      1.0  0.03249  0.99212  0.68238  1.0000
  C   C670      1.0  0.41384  0.97168  0.89555  1.0000
  S   S180      1.0  0.48432  0.80361  0.54372  1.0000
  N   N47       1.0  0.03221  0.92600  0.61829  1.0000
  C   C671      1.0  0.43168  0.81591  0.68456  1.0000
  Fe  Fe90      1.0  0.01576  0.76654  0.53000  1.0000
  C   C672      1.0  0.42437  0.97844  0.80151  1.0000
  H   H791      1.0  0.04860  0.96889  0.61432  1.0000
  H   H792      1.0  0.47603  0.83847  0.65464  1.0000
  C   C673      1.0  0.24648  0.87314  0.91661  1.0000
  H   H793      1.0  0.45624  0.91028  0.66480  1.0000
  H   H794      1.0  0.25527  0.85714  0.91913  1.0000
  H   H795      1.0  0.42838  0.88533  0.72808  1.0000
  H   H796      1.0  0.22033  0.85881  0.89675  1.0000
  H   H797      1.0  0.39133  0.75627  0.61497  1.0000
  H   H798      1.0  0.14101  0.78252  0.93405  1.0000
  C   C674      1.0  0.32291  0.97308  0.99178  1.0000
  H   H799      1.0  0.43174  0.81523  0.64042  1.0000
  C   C675      1.0  0.05229  0.98028  0.74702  1.0000
  H   H800      1.0  0.44042  0.81382  0.70103  1.0000
  C   C676      1.0  0.02933  0.97535  0.74547  1.0000
  H   H801      1.0  0.31443  0.90912  0.79924  1.0000
  H   H802      1.0  0.39382  0.95891  0.80065  1.0000
  H   H803      1.0  0.46910  0.80979  0.65991  1.0000
  H   H804      1.0  0.02743  0.82008  0.63726  1.0000
  S   S181      1.0  0.36257  0.97580  0.83474  1.0000
  C   C677      1.0  0.44094  0.85630  0.67905  1.0000
  S   S182      1.0  0.03088  0.94606  0.68835  1.0000
  C   C678      1.0  0.14695  0.76828  0.92419  1.0000
  H   H805      1.0  0.38193  0.96069  0.94374  1.0000
  C   C679      1.0  0.46691  0.82699  0.66672  1.0000
  H   H806      1.0  0.41331  0.81986  0.68784  1.0000
  H   H807      1.0  0.05150  0.93942  0.58946  1.0000
  C   C680      1.0  0.43318  0.86070  0.70171  1.0000
  C   C681      1.0  0.43336  0.98334  0.90229  1.0000
  H   H808      1.0  0.46901  0.97459  0.85649  1.0000
  S   S183      1.0  0.01474  0.89300  0.72923  1.0000
  H   H809      1.0  0.10016  0.75564  0.58516  1.0000
  H   H810      1.0  0.44322  0.91679  0.70446  1.0000
  H   H811      1.0  0.36885  0.96718  0.88363  1.0000
  Fe  Fe91      1.0  0.48670  0.99415  0.77368  1.0000
  C   C682      1.0  0.05291  0.92350  0.63208  1.0000
  C   C683      1.0  0.11361  0.76994  0.82286  1.0000
  C   C684      1.0  0.45400  0.97336  0.86759  1.0000
  H   H812      1.0  0.24619  0.75911  0.79039  1.0000
  S   S184      1.0  0.17465  0.75685  0.86070  1.0000
  S   S185      1.0  0.47427  0.99093  0.73809  1.0000
  H   H813      1.0  0.12875  0.76024  0.82889  1.0000
  H   H814      1.0  0.02781  0.88990  0.61870  1.0000
  H   H815      1.0  0.49878  0.88102  0.71507  1.0000
  C   C685      1.0  0.08584  0.75684  0.54166  1.0000
  C   C686      1.0  0.02008  0.98866  0.62546  1.0000
  H   H816      1.0  0.41042  0.97052  0.94207  1.0000
  Fe  Fe92      1.0  0.00357  0.86729  0.66939  1.0000
  S   S186      1.0  0.49873  0.92871  0.72172  1.0000
  C   C687      1.0  0.45305  0.98425  0.88840  1.0000
  H   H817      1.0  0.02401  0.95799  0.74526  1.0000
  H   H818      1.0  0.06490  0.75638  0.96625  1.0000
  H   H819      1.0  0.00273  0.90589  0.61226  1.0000
  H   H820      1.0  0.10072  0.75772  0.81765  1.0000
  H   H821      1.0  0.36829  0.99609  0.92348  1.0000
  C   C688      1.0  0.08337  0.76691  0.99525  1.0000
  C   C689      1.0  0.01329  0.99272  0.74330  1.0000
  H   H822      1.0  0.06974  0.75891  0.58339  1.0000
  H   H823      1.0  0.43340  0.99216  0.91821  1.0000
  H   H824      1.0  0.07046  0.76793  0.54399  1.0000
  H   H825      1.0  0.10081  0.76762  0.54402  1.0000
  H   H826      1.0  0.08583  0.75110  0.52369  1.0000
  H   H827      1.0  0.74980  0.00963  0.16093  1.0000
  Fe  Fe93      1.0  0.71413  0.03596  0.12538  1.0000
  S   S187      1.0  0.72047  0.07111  0.13903  1.0000
  S   S188      1.0  0.68710  0.03061  0.09962  1.0000
  Fe  Fe94      1.0  0.97824  0.12390  0.29445  1.0000
  S   S189      1.0  0.98426  0.09900  0.32329  1.0000
  S   S190      1.0  0.94068  0.12942  0.28606  1.0000
  Fe  Fe95      1.0  0.81927  0.15685  0.16740  1.0000
  S   S191      1.0  0.79580  0.18709  0.16708  1.0000
  S   S192      1.0  0.81346  0.12348  0.14993  1.0000
  Fe  Fe96      1.0  0.85625  0.18154  0.19267  1.0000
  S   S193      1.0  0.83540  0.21367  0.19390  1.0000
  S   S194      1.0  0.89267  0.18358  0.20508  1.0000
  Fe  Fe97      1.0  0.80594  0.19185  0.20328  1.0000
  S   S195      1.0  0.77973  0.20010  0.23139  1.0000
  Fe  Fe98      1.0  0.82696  0.20695  0.15758  1.0000
  S   S196      1.0  0.97440  0.23774  0.49130  1.0000
  S   S197      1.0  0.82725  0.15979  0.20455  1.0000
  S   S198      1.0  0.85005  0.17657  0.15543  1.0000
  C   C690      1.0  0.86129  0.24793  0.06478  1.0000
  S   S199      1.0  0.69870  0.01139  0.15068  1.0000
  H   H828      1.0  0.60765  0.24015  0.30218  1.0000
  C   C691      1.0  0.57485  0.20184  0.47140  1.0000
  Fe  Fe99      1.0  0.50424  0.02152  0.26647  1.0000
  H   H829      1.0  0.50299  0.07119  0.39856  1.0000
  Fe  Fe100     1.0  0.53919  0.20752  0.37291  1.0000
  S   S200      1.0  0.57400  0.22284  0.37828  1.0000
  S   S201      1.0  0.53140  0.17152  0.38270  1.0000
  C   C692      1.0  0.99187  0.01834  0.31282  1.0000
  H   H830      1.0  0.84479  0.17772  0.31459  1.0000
  H   H831      1.0  0.81927  0.20653  0.30221  1.0000
  H   H832      1.0  0.52818  0.11032  0.34307  1.0000
  C   C693      1.0  0.90378  0.18959  0.28655  1.0000
  H   H833      1.0  0.61604  0.11407  0.21029  1.0000
  H   H834      1.0  0.75137  0.17414  0.11437  1.0000
  C   C694      1.0  0.62019  0.08007  0.19895  1.0000
  C   C695      1.0  0.96768  0.11786  0.45026  1.0000
  C   C696      1.0  0.60885  0.24231  0.32034  1.0000
  C   C697      1.0  0.77243  0.22719  0.24190  1.0000
  C   C698      1.0  0.75331  0.22968  0.25660  1.0000
  H   H835      1.0  0.81332  0.05505  0.15639  1.0000
  C   C699      1.0  0.56212  0.18973  0.43369  1.0000
  H   H836      1.0  0.91846  0.19532  0.11559  1.0000
  H   H837      1.0  0.74355  0.21509  0.26158  1.0000
  H   H838      1.0  0.80499  0.20423  0.27587  1.0000
  C   C700      1.0  0.99183  0.24391  0.00716  1.0000
  C   C701      1.0  0.86039  0.22642  0.07503  1.0000
  C   C702      1.0  0.84886  0.22299  0.09612  1.0000
  H   H839      1.0  0.59835  0.21057  0.41838  1.0000
  C   C703      1.0  0.90188  0.17710  0.30669  1.0000
  C   C704      1.0  0.86082  0.18164  0.30621  1.0000
  H   H840      1.0  0.84820  0.20635  0.10376  1.0000
  C   C705      1.0  0.93967  0.22430  0.03465  1.0000
  C   C706      1.0  0.99398  0.17862  0.49017  1.0000
  C   C707      1.0  0.92821  0.14314  0.26218  1.0000
  C   C708      1.0  0.94049  0.15771  0.24777  1.0000
  C   C709      1.0  0.92939  0.16971  0.23023  1.0000
  C   C710      1.0  0.90601  0.16703  0.22661  1.0000
  C   C711      1.0  0.89385  0.15206  0.24067  1.0000
  C   C712      1.0  0.90486  0.14037  0.25846  1.0000
  H   H841      1.0  0.95842  0.16009  0.25045  1.0000
  H   H842      1.0  0.93899  0.18121  0.21947  1.0000
  H   H843      1.0  0.87594  0.14966  0.23805  1.0000
  H   H844      1.0  0.89519  0.12920  0.26954  1.0000
  S   S202      1.0  0.51417  0.04471  0.29566  1.0000
  H   H845      1.0  0.89767  0.18733  0.13709  1.0000
  C   C713      1.0  0.74640  0.08581  0.14116  1.0000
  C   C714      1.0  0.74664  0.10531  0.15441  1.0000
  C   C715      1.0  0.76689  0.11726  0.15704  1.0000
  C   C716      1.0  0.78716  0.10987  0.14632  1.0000
  C   C717      1.0  0.78682  0.09062  0.13275  1.0000
  C   C718      1.0  0.76662  0.07858  0.13023  1.0000
  H   H846      1.0  0.73107  0.11110  0.16286  1.0000
  H   H847      1.0  0.76685  0.13205  0.16750  1.0000
  H   H848      1.0  0.80232  0.08502  0.12407  1.0000
  H   H849      1.0  0.76669  0.06382  0.11972  1.0000
  H   H850      1.0  0.74477  0.22446  0.20367  1.0000
  C   C719      1.0  0.69507  0.01846  0.01556  1.0000
  H   H851      1.0  0.68737  0.02786  0.02944  1.0000
  C   C720      1.0  0.59212  0.23300  0.33513  1.0000
  C   C721      1.0  0.76258  0.20771  0.12030  1.0000
  H   H852      1.0  0.60847  0.00884  0.05629  1.0000
  C   C722      1.0  0.82400  0.03743  0.12696  1.0000
  H   H853      1.0  0.75166  0.03865  0.15343  1.0000
  H   H854      1.0  0.86872  0.21233  0.06664  1.0000
  H   H855      1.0  0.88414  0.21619  0.16612  1.0000
  C   C723      1.0  0.73840  0.20448  0.16178  1.0000
  C   C724      1.0  0.92747  0.21191  0.15698  1.0000
  C   C725      1.0  0.91969  0.23897  0.12539  1.0000
  S   S203      1.0  0.63409  0.00230  0.12803  1.0000
  C   C726      1.0  0.99827  0.19353  0.39527  1.0000
  C   C727      1.0  0.96312  0.15342  0.43059  1.0000
  C   C728      1.0  0.50882  0.19983  0.47263  1.0000
  H   H856      1.0  0.51980  0.22271  0.49819  1.0000
  H   H857      1.0  0.87912  0.16328  0.33212  1.0000
  N   N48       1.0  0.56941  0.06394  0.25097  1.0000
  C   C729      1.0  0.56541  0.03949  0.25394  1.0000
  C   C730      1.0  0.57597  0.07251  0.27341  1.0000
  C   C731      1.0  0.54760  0.07492  0.24454  1.0000
  C   C732      1.0  0.58712  0.06908  0.23332  1.0000
  C   C733      1.0  0.59698  0.05243  0.21874  1.0000
  C   C734      1.0  0.59435  0.09151  0.22962  1.0000
  C   C735      1.0  0.73867  0.18665  0.14651  1.0000
  C   C736      1.0  0.61324  0.05796  0.20187  1.0000
  H   H858      1.0  0.97306  0.11852  0.48568  1.0000
  H   H859      1.0  0.58131  0.03004  0.25818  1.0000
  H   H860      1.0  0.55277  0.03592  0.26788  1.0000
  H   H861      1.0  0.55841  0.03228  0.23836  1.0000
  H   H862      1.0  0.59292  0.06559  0.27829  1.0000
  H   H863      1.0  0.56337  0.06775  0.28713  1.0000
  H   H864      1.0  0.57666  0.09113  0.27371  1.0000
  H   H865      1.0  0.54241  0.06945  0.22744  1.0000
  H   H866      1.0  0.53352  0.07070  0.25688  1.0000
  H   H867      1.0  0.54863  0.09355  0.24401  1.0000
  H   H868      1.0  0.59233  0.03499  0.21983  1.0000
  H   H869      1.0  0.58718  0.10515  0.23958  1.0000
  H   H870      1.0  0.72901  0.20189  0.17761  1.0000
  H   H871      1.0  0.84492  0.23597  0.28362  1.0000
  H   H872      1.0  0.64925  0.00925  0.08148  1.0000
  C   C737      1.0  0.82142  0.01882  0.11325  1.0000
  C   C738      1.0  0.51853  0.10420  0.32915  1.0000
  H   H873      1.0  0.99014  0.20846  0.38825  1.0000
  H   H874      1.0  0.77238  0.20876  0.10442  1.0000
  Fe  Fe101     1.0  0.50328  0.18630  0.40508  1.0000
  S   S204      1.0  0.73823  0.01029  0.10975  1.0000
  H   H875      1.0  0.82713  0.23267  0.25955  1.0000
  C   C739      1.0  0.80554  0.00261  0.11942  1.0000
  H   H876      1.0  0.57272  0.24307  0.44911  1.0000
  H   H877      1.0  0.93272  0.22521  0.16875  1.0000
  H   H878      1.0  0.96276  0.12146  0.41417  1.0000
  H   H879      1.0  0.94280  0.20442  0.14831  1.0000
  C   C740      1.0  0.97459  0.24410  0.02462  1.0000
  C   C741      1.0  0.58542  0.21689  0.48617  1.0000
  H   H880      1.0  0.50328  0.03900  0.37330  1.0000
  H   H881      1.0  0.95158  0.19406  0.48402  1.0000
  C   C742      1.0  0.96947  0.15286  0.47175  1.0000
  H   H882      1.0  0.78301  0.23228  0.18674  1.0000
  Fe  Fe102     1.0  0.67314  0.00431  0.12419  1.0000
  C   C743      1.0  0.61074  0.09683  0.21278  1.0000
  H   H883      1.0  0.59344  0.23194  0.47965  1.0000
  C   C744      1.0  0.50975  0.07344  0.30345  1.0000
  H   H884      1.0  0.62038  0.04496  0.19086  1.0000
  H   H885      1.0  0.96856  0.09966  0.44984  1.0000
  H   H886      1.0  0.88671  0.20635  0.25965  1.0000
  H   H887      1.0  0.98201  0.03279  0.31857  1.0000
  C   C745      1.0  0.78491  0.24620  0.23570  1.0000
  C   C746      1.0  0.75051  0.22453  0.15672  1.0000
  H   H888      1.0  0.99285  0.05297  0.36955  1.0000
  C   C747      1.0  0.71093  0.00122  0.02017  1.0000
  C   C748      1.0  0.88429  0.19784  0.27590  1.0000
  C   C749      1.0  0.96425  0.13006  0.43018  1.0000
  C   C750      1.0  0.98173  0.24761  0.04717  1.0000
  H   H889      1.0  0.57018  0.17274  0.43533  1.0000
  N   N49       1.0  0.77898  0.02637  0.17393  1.0000
  C   C751      1.0  0.78240  0.04754  0.18639  1.0000
  C   C752      1.0  0.81061  0.04002  0.14682  1.0000
  H   H890      1.0  0.64870  0.01976  0.05269  1.0000
  C   C753      1.0  0.88047  0.17326  0.31658  1.0000
  H   H891      1.0  0.56080  0.23243  0.42410  1.0000
  H   H892      1.0  0.60742  0.19146  0.44047  1.0000
  H   H893      1.0  0.53442  0.07114  0.32993  1.0000
  S   S205      1.0  0.51623  0.20759  0.34291  1.0000
  H   H894      1.0  0.87576  0.23328  0.14265  1.0000
  H   H895      1.0  0.85717  0.23047  0.25583  1.0000
  S   S206      1.0  0.82516  0.23809  0.13463  1.0000
  H   H896      1.0  0.51580  0.10905  0.39776  1.0000
  N   N50       1.0  0.57440  0.20674  0.44664  1.0000
  H   H897      1.0  0.57818  0.22382  0.32835  1.0000
  H   H898      1.0  0.96089  0.16292  0.41487  1.0000
  H   H899      1.0  0.99277  0.19151  0.47633  1.0000
  C   C754      1.0  0.97025  0.12898  0.47082  1.0000
  N   N51       1.0  0.95009  0.24204  0.01992  1.0000
  H   H900      1.0  0.77066  0.04900  0.20150  1.0000
  H   H901      1.0  0.92045  0.19199  0.27859  1.0000
  C   C755      1.0  0.65209  0.00452  0.06339  1.0000
  C   C756      1.0  0.56297  0.22886  0.44257  1.0000
  C   C757      1.0  0.95335  0.18084  0.49743  1.0000
  H   H902      1.0  0.51083  0.21179  0.45875  1.0000
  H   H903      1.0  0.77883  0.06259  0.17542  1.0000
  N   N52       1.0  0.84177  0.20178  0.27296  1.0000
  C   C758      1.0  0.84289  0.22625  0.26781  1.0000
  C   C759      1.0  0.84107  0.18954  0.25128  1.0000
  C   C760      1.0  0.81991  0.19781  0.28559  1.0000
  H   H904      1.0  0.84058  0.17103  0.25436  1.0000
  H   H905      1.0  0.72983  0.17127  0.15090  1.0000
  C   C761      1.0  0.90392  0.20166  0.12634  1.0000
  C   C762      1.0  0.79399  0.02394  0.15343  1.0000
  H   H906      1.0  0.63280  0.08422  0.18581  1.0000
  H   H907      1.0  0.85614  0.19285  0.23995  1.0000
  N   N53       1.0  0.91072  0.22075  0.14041  1.0000
  C   C763      1.0  0.86216  0.19409  0.28536  1.0000
  H   H908      1.0  0.80001  0.04853  0.19272  1.0000
  H   H909      1.0  0.91704  0.16986  0.31427  1.0000
  H   H910      1.0  0.71978  0.23754  0.19144  1.0000
  H   H911      1.0  0.56219  0.19388  0.41518  1.0000
  H   H912      1.0  0.81692  0.17956  0.28846  1.0000
  H   H913      1.0  0.54391  0.18883  0.43927  1.0000
  H   H914      1.0  0.83623  0.05016  0.12202  1.0000
  H   H915      1.0  0.92146  0.22176  0.03052  1.0000
  H   H916      1.0  0.74282  0.03020  0.18165  1.0000
  C   C764      1.0  0.96579  0.16471  0.45097  1.0000
  C   C765      1.0  0.52215  0.08196  0.32152  1.0000
  C   C766      1.0  0.56475  0.18248  0.48161  1.0000
  H   H917      1.0  0.80132  0.00623  0.19465  1.0000
  S   S207      1.0  0.50982  0.02914  0.22914  1.0000
  C   C767      1.0  0.50223  0.11826  0.31894  1.0000
  C   C768      1.0  0.59804  0.20756  0.43716  1.0000
  C   C769      1.0  0.75080  0.18822  0.12588  1.0000
  H   H918      1.0  0.77229  0.24016  0.13042  1.0000
  C   C770      1.0  0.76242  0.22564  0.13538  1.0000
  H   H919      1.0  0.96565  0.18291  0.45015  1.0000
  C   C771      1.0  0.75484  0.02620  0.16726  1.0000
  C   C772      1.0  0.83839  0.24116  0.10731  1.0000
  H   H920      1.0  0.82577  0.19445  0.24155  1.0000
  S   S208      1.0  0.51239  0.22205  0.39687  1.0000
  H   H921      1.0  0.50625  0.12710  0.37509  1.0000
  H   H922      1.0  0.60791  0.22131  0.44445  1.0000
  C   C773      1.0  0.59380  0.23518  0.35866  1.0000
  H   H923      1.0  0.94895  0.20794  0.03257  1.0000
  H   H924      1.0  0.92020  0.19822  0.16792  1.0000
  H   H925      1.0  0.55579  0.17031  0.47199  1.0000
  H   H926      1.0  0.95463  0.23956  0.13789  1.0000
  C   C774      1.0  0.73824  0.23961  0.19438  1.0000
  H   H927      1.0  0.54575  0.22949  0.45090  1.0000
  H   H928      1.0  0.88988  0.20635  0.11480  1.0000
  N   N54       1.0  0.97300  0.16533  0.49292  1.0000
  C   C775      1.0  0.89043  0.22905  0.15361  1.0000
  C   C776      1.0  0.78313  0.00724  0.18986  1.0000
  H   H929      1.0  0.50333  0.13591  0.40417  1.0000
  C   C777      1.0  0.51358  0.20607  0.49511  1.0000
  H   H930      1.0  0.83164  0.01702  0.09774  1.0000
  Fe  Fe103     1.0  0.70994  0.00298  0.08562  1.0000
  H   H931      1.0  0.93935  0.22864  0.05294  1.0000
  N   N55       1.0  0.75132  0.24350  0.17271  1.0000
  C   C778      1.0  0.57764  0.00076  0.17045  1.0000
  Fe  Fe104     1.0  0.50607  0.17262  0.35448  1.0000
  C   C779      1.0  0.79209  0.00504  0.13922  1.0000
  H   H932      1.0  0.79981  0.24455  0.22462  1.0000
  H   H933      1.0  0.77242  0.00871  0.20569  1.0000
  C   C780      1.0  0.77527  0.24751  0.17862  1.0000
  H   H934      1.0  0.88794  0.24496  0.10779  1.0000
  H   H935      1.0  0.93711  0.17155  0.49865  1.0000
  H   H936      1.0  0.99455  0.17422  0.36469  1.0000
  C   C781      1.0  0.61202  0.24724  0.36716  1.0000
  H   H937      1.0  0.89436  0.24437  0.16326  1.0000
  H   H938      1.0  0.58546  0.00665  0.13474  1.0000
  H   H939      1.0  0.99937  0.01797  0.38440  1.0000
  C   C782      1.0  0.94251  0.24649  0.12608  1.0000
  H   H940      1.0  0.55945  0.00279  0.16862  1.0000
  C   C783      1.0  0.50146  0.17816  0.46817  1.0000
  C   C784      1.0  0.50217  0.12122  0.39279  1.0000
  C   C785      1.0  0.59249  0.00293  0.15122  1.0000
  C   C786      1.0  0.61627  0.00028  0.15310  1.0000
  H   H941      1.0  0.96954  0.24873  0.06119  1.0000
  H   H942      1.0  0.67048  0.00008  0.06098  1.0000
  Fe  Fe105     1.0  0.72180  0.01884  0.86531  1.0000
  S   S209      1.0  0.68948  0.03136  0.88249  1.0000
  S   S210      1.0  0.75212  0.03958  0.85285  1.0000
  C   C787      1.0  0.96544  0.23568  0.61604  1.0000
  C   C788      1.0  0.58535  0.21312  0.50971  1.0000
  H   H943      1.0  0.58444  0.18180  0.65688  1.0000
  C   C789      1.0  0.51791  0.07939  0.65469  1.0000
  C   C790      1.0  0.57321  0.23953  0.64510  1.0000
  H   H944      1.0  0.58578  0.07187  0.68318  1.0000
  Fe  Fe106     1.0  0.98469  0.12882  0.70566  1.0000
  S   S211      1.0  0.98077  0.11184  0.67198  1.0000
  S   S212      1.0  0.95874  0.15299  0.72246  1.0000
  C   C791      1.0  0.97555  0.15068  0.51345  1.0000
  H   H945      1.0  0.81607  0.23325  0.87566  1.0000
  H   H946      1.0  0.54961  0.13284  0.66778  1.0000
  C   C792      1.0  0.56944  0.10270  0.67391  1.0000
  N   N56       1.0  0.56506  0.06217  0.72459  1.0000
  H   H947      1.0  0.59276  0.04623  0.74262  1.0000
  Fe  Fe107     1.0  0.52615  0.20404  0.62640  1.0000
  H   H948      1.0  0.59290  0.22515  0.52077  1.0000
  S   S213      1.0  0.53695  0.17538  0.60388  1.0000
  Fe  Fe108     1.0  0.79412  0.16261  0.81849  1.0000
  S   S214      1.0  0.79626  0.20002  0.82443  1.0000
  S   S215      1.0  0.76222  0.14443  0.83144  1.0000
  Fe  Fe109     1.0  0.83908  0.16095  0.79066  1.0000
  S   S216      1.0  0.84446  0.19776  0.79439  1.0000
  S   S217      1.0  0.86199  0.13555  0.77163  1.0000
  Fe  Fe110     1.0  0.83329  0.19306  0.83113  1.0000
  S   S218      1.0  0.85620  0.20841  0.85746  1.0000
  Fe  Fe111     1.0  0.80701  0.20250  0.78742  1.0000
  C   C793      1.0  0.58136  0.00404  0.80946  1.0000
  S   S219      1.0  0.83040  0.15542  0.82796  1.0000
  S   S220      1.0  0.80236  0.16572  0.78089  1.0000
  S   S221      1.0  0.54763  0.22458  0.65021  1.0000
  C   C794      1.0  0.75126  0.23003  0.76111  1.0000
  H   H949      1.0  0.75219  0.21613  0.77316  1.0000
  C   C795      1.0  0.55154  0.06270  0.74631  1.0000
  N   N57       1.0  0.65292  0.22409  0.69711  1.0000
  H   H950      1.0  0.71006  0.08863  0.91931  1.0000
  H   H951      1.0  0.73703  0.10406  0.89455  1.0000
  C   C796      1.0  0.73542  0.06876  0.95129  1.0000
  C   C797      1.0  0.51252  0.06408  0.67258  1.0000
  H   H952      1.0  0.98939  0.00479  0.63835  1.0000
  H   H953      1.0  0.53291  0.06255  0.74322  1.0000
  H   H954      1.0  0.52010  0.04739  0.67263  1.0000
  H   H955      1.0  0.82394  0.24043  0.83498  1.0000
  S   S222      1.0  0.98293  0.20651  0.54862  1.0000
  C   C798      1.0  0.66825  0.23649  0.68105  1.0000
  Fe  Fe112     1.0  0.99736  0.23084  0.52109  1.0000
  H   H956      1.0  0.92719  0.23390  0.99316  1.0000
  H   H957      1.0  0.97858  0.15362  0.61394  1.0000
  H   H958      1.0  0.50443  0.24438  0.64272  1.0000
  C   C799      1.0  0.60022  0.18927  0.68845  1.0000
  C   C800      1.0  0.77126  0.24056  0.75367  1.0000
  C   C801      1.0  0.69874  0.01143  0.97444  1.0000
  H   H959      1.0  0.98806  0.24245  0.98938  1.0000
  C   C802      1.0  0.85209  0.22838  0.87950  1.0000
  H   H960      1.0  0.75060  0.11608  0.78276  1.0000
  H   H961      1.0  0.80457  0.12707  0.90081  1.0000
  H   H962      1.0  0.59502  0.07617  0.73858  1.0000
  H   H963      1.0  0.63269  0.23276  0.72725  1.0000
  H   H964      1.0  0.95971  0.16855  0.64753  1.0000
  H   H965      1.0  0.73479  0.03209  0.92514  1.0000
  C   C803      1.0  0.93202  0.14754  0.73627  1.0000
  C   C804      1.0  0.91970  0.16552  0.74628  1.0000
  C   C805      1.0  0.89835  0.16215  0.75725  1.0000
  C   C806      1.0  0.88899  0.14072  0.75826  1.0000
  C   C807      1.0  0.90127  0.12273  0.74819  1.0000
  C   C808      1.0  0.92268  0.12608  0.73729  1.0000
  H   H966      1.0  0.92676  0.18217  0.74566  1.0000
  H   H967      1.0  0.88915  0.17615  0.76492  1.0000
  H   H968      1.0  0.89423  0.10608  0.74884  1.0000
  H   H969      1.0  0.93192  0.11209  0.72965  1.0000
  C   C809      1.0  0.54444  0.09909  0.71486  1.0000
  C   C810      1.0  0.56099  0.08203  0.70961  1.0000
  H   H970      1.0  0.73050  0.08086  0.79224  1.0000
  H   H971      1.0  0.72167  0.05710  0.95701  1.0000
  C   C811      1.0  0.79146  0.11532  0.90601  1.0000
  C   C812      1.0  0.75444  0.06908  0.84872  1.0000
  C   C813      1.0  0.73532  0.08341  0.84768  1.0000
  C   C814      1.0  0.73801  0.10648  0.84260  1.0000
  C   C815      1.0  0.75976  0.11544  0.83848  1.0000
  C   C816      1.0  0.77886  0.10124  0.84021  1.0000
  C   C817      1.0  0.77621  0.07818  0.84523  1.0000
  H   H972      1.0  0.71848  0.07663  0.85019  1.0000
  H   H973      1.0  0.72312  0.11739  0.84145  1.0000
  H   H974      1.0  0.79563  0.10809  0.83763  1.0000
  H   H975      1.0  0.79109  0.06726  0.84611  1.0000
  C   C818      1.0  0.58946  0.06049  0.73049  1.0000
  H   H976      1.0  0.95260  0.24563  0.60735  1.0000
  C   C819      1.0  0.63485  0.21182  0.68568  1.0000
  H   H977      1.0  0.96276  0.17791  0.58317  1.0000
  C   C820      1.0  0.50251  0.16950  0.50925  1.0000
  S   S223      1.0  0.98828  0.04644  0.68660  1.0000
  C   C821      1.0  0.58434  0.24015  0.62378  1.0000
  H   H978      1.0  0.99094  0.13954  0.51202  1.0000
  Fe  Fe113     1.0  0.67189  0.00406  0.86369  1.0000
  H   H979      1.0  0.96851  0.00325  0.69570  1.0000
  H   H980      1.0  0.75064  0.06365  0.96105  1.0000
  C   C822      1.0  0.57337  0.08442  0.68864  1.0000
  H   H981      1.0  0.95513  0.19000  0.51366  1.0000
  H   H982      1.0  0.55626  0.16451  0.51275  1.0000
  H   H983      1.0  0.55529  0.04767  0.75729  1.0000
  H   H984      1.0  0.53363  0.09845  0.72997  1.0000
  C   C823      1.0  0.54080  0.11737  0.70006  1.0000
  C   C824      1.0  0.75306  0.10186  0.90292  1.0000
  H   H985      1.0  0.54060  0.04187  0.70839  1.0000
  H   H986      1.0  0.55541  0.07774  0.75642  1.0000
  H   H987      1.0  0.81281  0.09700  0.92916  1.0000
  C   C825      1.0  0.98099  0.17684  0.58524  1.0000
  H   H988      1.0  0.60078  0.05735  0.71540  1.0000
  C   C826      1.0  0.98989  0.16321  0.60294  1.0000
  N   N58       1.0  0.97054  0.19601  0.66766  1.0000
  C   C827      1.0  0.66725  0.20808  0.71032  1.0000
  H   H989      1.0  0.73017  0.08602  0.95659  1.0000
  S   S224      1.0  0.51111  0.02163  0.76398  1.0000
  H   H990      1.0  0.68132  0.21686  0.71875  1.0000
  C   C828      1.0  0.95972  0.22362  0.63596  1.0000
  C   C829      1.0  0.97166  0.17203  0.66133  1.0000
  H   H991      1.0  0.88745  0.22688  0.88835  1.0000
  H   H992      1.0  0.74901  0.24622  0.85115  1.0000
  H   H993      1.0  0.96024  0.14029  0.51674  1.0000
  H   H994      1.0  0.70460  0.05929  0.92124  1.0000
  C   C830      1.0  0.87097  0.23460  0.89206  1.0000
  S   S225      1.0  0.51600  0.11983  0.63098  1.0000
  H   H995      1.0  0.67747  0.22502  0.66906  1.0000
  H   H996      1.0  0.94527  0.21869  0.68227  1.0000
  C   C831      1.0  0.79605  0.09836  0.92193  1.0000
  C   C832      1.0  0.98713  0.19978  0.68578  1.0000
  H   H997      1.0  0.96711  0.16084  0.67600  1.0000
  C   C833      1.0  0.72998  0.23771  0.75319  1.0000
  C   C834      1.0  0.57500  0.19418  0.51918  1.0000
  C   C835      1.0  0.59476  0.00580  0.82894  1.0000
  H   H998      1.0  0.99768  0.18773  0.50601  1.0000
  H   H999      1.0  0.61846  0.19952  0.71712  1.0000
  H   H1000     1.0  0.76346  0.03976  0.92939  1.0000
  H   H1001     1.0  0.56228  0.02619  0.72321  1.0000
  H   H1002     1.0  0.57848  0.10383  0.65762  1.0000
  C   C836      1.0  0.59874  0.18948  0.66485  1.0000
  S   S226      1.0  0.79845  0.23233  0.76386  1.0000
  C   C837      1.0  0.99538  0.18923  0.57036  1.0000
  C   C838      1.0  0.71745  0.07177  0.91528  1.0000
  C   C839      1.0  0.74776  0.04488  0.92042  1.0000
  C   C840      1.0  0.77919  0.08310  0.92848  1.0000
  C   C841      1.0  0.61872  0.00451  0.82736  1.0000
  C   C842      1.0  0.77001  0.11710  0.89660  1.0000
  H   H1003     1.0  0.97778  0.16078  0.52907  1.0000
  C   C843      1.0  0.68904  0.02347  0.99288  1.0000
  H   H1004     1.0  0.78360  0.07017  0.94078  1.0000
  Fe  Fe114     1.0  0.69712  0.00544  0.90989  1.0000
  C   C844      1.0  0.55897  0.04151  0.71259  1.0000
  H   H1005     1.0  0.71915  0.07008  0.89646  1.0000
  C   C845      1.0  0.97618  0.20994  0.64725  1.0000
  C   C846      1.0  0.75713  0.08436  0.91918  1.0000
  H   H1006     1.0  0.57720  0.23151  0.60966  1.0000
  H   H1007     1.0  0.93383  0.19612  0.66582  1.0000
  H   H1008     1.0  0.94416  0.19056  0.69344  1.0000
  N   N59       1.0  0.82219  0.08071  0.78259  1.0000
  C   C847      1.0  0.83095  0.09508  0.80065  1.0000
  C   C848      1.0  0.83343  0.05824  0.78490  1.0000
  C   C849      1.0  0.82921  0.09024  0.76005  1.0000
  C   C850      1.0  0.79702  0.08015  0.78460  1.0000
  C   C851      1.0  0.78492  0.06022  0.79007  1.0000
  C   C852      1.0  0.78386  0.10021  0.78170  1.0000
  C   C853      1.0  0.76116  0.06054  0.79244  1.0000
  C   C854      1.0  0.76014  0.10033  0.78410  1.0000
  C   C855      1.0  0.74881  0.08054  0.78950  1.0000
  H   H1009     1.0  0.82447  0.11272  0.79926  1.0000
  H   H1010     1.0  0.82597  0.08858  0.81787  1.0000
  H   H1011     1.0  0.84988  0.09607  0.79970  1.0000
  H   H1012     1.0  0.85230  0.05930  0.78285  1.0000
  H   H1013     1.0  0.82768  0.04655  0.77171  1.0000
  H   H1014     1.0  0.83006  0.05063  0.80206  1.0000
  H   H1015     1.0  0.82383  0.10815  0.75793  1.0000
  H   H1016     1.0  0.84810  0.09017  0.75761  1.0000
  H   H1017     1.0  0.82194  0.08067  0.74596  1.0000
  H   H1018     1.0  0.79334  0.04425  0.79328  1.0000
  H   H1019     1.0  0.79186  0.11614  0.77826  1.0000
  H   H1020     1.0  0.75232  0.04537  0.79761  1.0000
  H   H1021     1.0  0.64459  0.22016  0.65014  1.0000
  H   H1022     1.0  0.98254  0.19043  0.70179  1.0000
  H   H1023     1.0  0.67659  0.03668  0.98962  1.0000
  Fe  Fe115     1.0  0.50761  0.15666  0.62081  1.0000
  H   H1024     1.0  0.57411  0.19170  0.53749  1.0000
  C   C856      1.0  0.51053  0.19098  0.51363  1.0000
  H   H1025     1.0  0.94224  0.22499  0.64193  1.0000
  H   H1026     1.0  0.67515  0.19504  0.69908  1.0000
  Fe  Fe116     1.0  0.51125  0.18878  0.57867  1.0000
  H   H1027     1.0  0.75158  0.04357  0.90181  1.0000
  H   H1028     1.0  0.52985  0.07435  0.64132  1.0000
  S   S227      1.0  0.51907  0.19921  0.54128  1.0000
  C   C857      1.0  0.94743  0.20072  0.67760  1.0000
  C   C858      1.0  0.61811  0.20005  0.69877  1.0000
  H   H1029     1.0  0.52760  0.12982  0.70395  1.0000
  H   H1030     1.0  0.56887  0.03925  0.69641  1.0000
  C   C859      1.0  0.55323  0.11915  0.67964  1.0000
  C   C860      1.0  0.63302  0.21138  0.66161  1.0000
  N   N60       1.0  0.73966  0.06787  0.92631  1.0000
  H   H1031     1.0  0.76659  0.13023  0.88404  1.0000
  H   H1032     1.0  0.65738  0.19932  0.72405  1.0000
  C   C861      1.0  0.64242  0.24073  0.71296  1.0000
  H   H1033     1.0  0.71463  0.22954  0.75922  1.0000
  C   C862      1.0  0.61528  0.20021  0.65149  1.0000
  H   H1034     1.0  0.58714  0.18108  0.69875  1.0000
  S   S228      1.0  0.68996  0.01837  0.94624  1.0000
  H   H1035     1.0  0.95468  0.22051  0.99087  1.0000
  H   H1036     1.0  0.61380  0.20069  0.63314  1.0000
  H   H1037     1.0  0.98797  0.21791  0.68989  1.0000
  C   C863      1.0  0.98754  0.23461  0.60690  1.0000
  S   S229      1.0  0.50273  0.21884  0.60036  1.0000
  C   C864      1.0  0.50797  0.10115  0.65383  1.0000
  C   C865      1.0  0.83086  0.23840  0.88459  1.0000
  H   H1038     1.0  0.68159  0.24558  0.69010  1.0000
  C   C866      1.0  0.99848  0.20911  0.63731  1.0000
  H   H1039     1.0  0.98900  0.16675  0.65524  1.0000
  H   H1040     1.0  0.82342  0.23925  0.80461  1.0000
  C   C867      1.0  0.56497  0.17880  0.50515  1.0000
  H   H1041     1.0  0.58646  0.00811  0.84541  1.0000
  H   H1042     1.0  0.56299  0.00498  0.81108  1.0000
  S   S230      1.0  0.63451  0.00641  0.85281  1.0000
  C   C868      1.0  0.94566  0.23633  0.99592  1.0000
  C   C869      1.0  0.62915  0.00163  0.80588  1.0000
  H   H1043     1.0  0.64752  0.00087  0.80423  1.0000
  C   C870      1.0  0.59178  0.00101  0.78802  1.0000
  H   H1044     1.0  0.99176  0.24345  0.59111  1.0000
  C   C871      1.0  0.98642  0.00024  0.69193  1.0000
  C   C872      1.0  0.61576  0.99995  0.78638  1.0000
  S   S231      1.0  0.87799  0.25159  0.03945  1.0000
  C   C873      1.0  0.67931  0.45988  0.15240  1.0000
  H   H1045     1.0  0.82916  0.47200  0.47362  1.0000
  C   C874      1.0  0.82728  0.31642  0.45292  1.0000
  C   C875      1.0  0.75866  0.27009  0.25823  1.0000
  H   H1046     1.0  0.52663  0.26992  0.34081  1.0000
  C   C876      1.0  0.64593  0.48919  0.28592  1.0000
  C   C877      1.0  0.77797  0.26754  0.24372  1.0000
  C   C878      1.0  0.64917  0.43597  0.14190  1.0000
  H   H1047     1.0  0.73081  0.45122  0.08305  1.0000
  C   C879      1.0  0.62721  0.25415  0.32885  1.0000
  Fe  Fe117     1.0  0.63696  0.46988  0.20425  1.0000
  S   S232      1.0  0.65812  0.43767  0.21043  1.0000
  S   S233      1.0  0.61311  0.47303  0.17500  1.0000
  S   S234      1.0  0.61322  0.48917  0.22747  1.0000
  C   C880      1.0  0.74186  0.26416  0.16181  1.0000
  C   C881      1.0  0.77207  0.49460  0.43087  1.0000
  S   S235      1.0  0.90148  0.31109  0.01614  1.0000
  H   H1048     1.0  0.89803  0.27589  0.46943  1.0000
  H   H1049     1.0  0.67527  0.45732  0.17080  1.0000
  S   S236      1.0  0.95834  0.30432  0.48709  1.0000
  N   N61       1.0  0.67401  0.43982  0.13908  1.0000
  C   C882      1.0  0.74643  0.25100  0.26472  1.0000
  H   H1050     1.0  0.90210  0.27431  0.08222  1.0000
  Fe  Fe118     1.0  0.79648  0.38342  0.46933  1.0000
  S   S237      1.0  0.78914  0.38308  0.43130  1.0000
  S   S238      1.0  0.83062  0.39674  0.47921  1.0000
  Fe  Fe119     1.0  0.68351  0.34046  0.30414  1.0000
  S   S239      1.0  0.67300  0.32140  0.33608  1.0000
  S   S240      1.0  0.65998  0.37082  0.29681  1.0000
  Fe  Fe120     1.0  0.72122  0.30532  0.29287  1.0000
  S   S241      1.0  0.71278  0.28390  0.32367  1.0000
  S   S242      1.0  0.75030  0.29743  0.26733  1.0000
  Fe  Fe121     1.0  0.67602  0.29035  0.31502  1.0000
  S   S243      1.0  0.64814  0.26486  0.30942  1.0000
  Fe  Fe122     1.0  0.71051  0.31686  0.34251  1.0000
  S   S244      1.0  0.72265  0.31827  0.37930  1.0000
  S   S245      1.0  0.68470  0.30959  0.28272  1.0000
  S   S246      1.0  0.72094  0.33815  0.31210  1.0000
  H   H1051     1.0  0.75369  0.42273  0.44886  1.0000
  H   H1052     1.0  0.55625  0.30882  0.28638  1.0000
  H   H1053     1.0  0.78619  0.25194  0.16355  1.0000
  H   H1054     1.0  0.69755  0.46438  0.15087  1.0000
  H   H1055     1.0  0.78758  0.28221  0.23869  1.0000
  C   C883      1.0  0.77050  0.36495  0.41717  1.0000
  C   C884      1.0  0.75883  0.34778  0.42871  1.0000
  C   C885      1.0  0.74433  0.33373  0.41680  1.0000
  C   C886      1.0  0.74119  0.33666  0.39326  1.0000
  C   C887      1.0  0.75293  0.35382  0.38171  1.0000
  C   C888      1.0  0.76752  0.36783  0.39360  1.0000
  H   H1056     1.0  0.76082  0.34535  0.44682  1.0000
  H   H1057     1.0  0.73531  0.32054  0.42591  1.0000
  H   H1058     1.0  0.75077  0.35625  0.36362  1.0000
  H   H1059     1.0  0.77649  0.38099  0.38444  1.0000
  H   H1060     1.0  0.71787  0.44470  0.12235  1.0000
  H   H1061     1.0  0.89303  0.35744  0.48353  1.0000
  C   C889      1.0  0.76799  0.48461  0.47086  1.0000
  C   C890      1.0  0.82389  0.48567  0.48450  1.0000
  H   H1062     1.0  0.94186  0.28708  0.08450  1.0000
  H   H1063     1.0  0.75212  0.44173  0.47189  1.0000
  C   C891      1.0  0.69540  0.41947  0.30293  1.0000
  H   H1064     1.0  0.61099  0.28755  0.28967  1.0000
  C   C892      1.0  0.65820  0.41924  0.23461  1.0000
  C   C893      1.0  0.64198  0.42106  0.25238  1.0000
  C   C894      1.0  0.64264  0.40592  0.27109  1.0000
  C   C895      1.0  0.65955  0.38888  0.27237  1.0000
  C   C896      1.0  0.67577  0.38708  0.25461  1.0000
  C   C897      1.0  0.67505  0.40215  0.23584  1.0000
  H   H1065     1.0  0.62877  0.43394  0.25162  1.0000
  H   H1066     1.0  0.63002  0.40748  0.28473  1.0000
  H   H1067     1.0  0.68891  0.37411  0.25536  1.0000
  H   H1068     1.0  0.68768  0.40053  0.22221  1.0000
  H   H1069     1.0  0.66104  0.49749  0.24438  1.0000
  C   C898      1.0  0.57875  0.29407  0.33761  1.0000
  C   C899      1.0  0.61635  0.32007  0.32130  1.0000
  C   C900      1.0  0.67448  0.42775  0.31110  1.0000
  C   C901      1.0  0.95033  0.26362  0.11141  1.0000
  H   H1070     1.0  0.83082  0.27674  0.10536  1.0000
  C   C902      1.0  0.67408  0.44944  0.07449  1.0000
  H   H1071     1.0  0.81028  0.32480  0.45094  1.0000
  C   C903      1.0  0.91347  0.26655  0.09448  1.0000
  H   H1072     1.0  0.82526  0.29847  0.44850  1.0000
  H   H1073     1.0  0.88409  0.33760  0.41377  1.0000
  H   H1074     1.0  0.85091  0.28262  0.06805  1.0000
  H   H1075     1.0  0.64799  0.44541  0.09955  1.0000
  C   C904      1.0  0.85031  0.26598  0.07570  1.0000
  C   C905      1.0  0.70518  0.44541  0.10941  1.0000
  C   C906      1.0  0.55785  0.30183  0.30333  1.0000
  C   C907      1.0  0.89914  0.34172  0.49079  1.0000
  H   H1076     1.0  0.64412  0.43284  0.16009  1.0000
  S   S247      1.0  0.73121  0.47348  0.00435  1.0000
  Fe  Fe123     1.0  0.87871  0.28108  0.01385  1.0000
  H   H1077     1.0  0.67951  0.41605  0.16668  1.0000
  N   N62       1.0  0.77255  0.45320  0.44284  1.0000
  C   C908      1.0  0.75287  0.44098  0.45303  1.0000
  C   C909      1.0  0.77342  0.44831  0.41812  1.0000
  C   C910      1.0  0.79381  0.44404  0.45268  1.0000
  S   S248      1.0  0.79870  0.35351  0.49264  1.0000
  N   N63       1.0  0.59729  0.31732  0.30556  1.0000
  H   H1078     1.0  0.92215  0.32079  0.41709  1.0000
  H   H1079     1.0  0.73649  0.44803  0.44673  1.0000
  C   C911      1.0  0.98292  0.30514  0.00512  1.0000
  H   H1080     1.0  0.52432  0.28758  0.30262  1.0000
  H   H1081     1.0  0.75793  0.45489  0.40958  1.0000
  H   H1082     1.0  0.77438  0.42983  0.41502  1.0000
  H   H1083     1.0  0.62217  0.31323  0.27809  1.0000
  H   H1084     1.0  0.79399  0.44590  0.47147  1.0000
  H   H1085     1.0  0.79623  0.42584  0.44922  1.0000
  H   H1086     1.0  0.80896  0.45281  0.44542  1.0000
  H   H1087     1.0  0.70332  0.45450  0.05225  1.0000
  H   H1088     1.0  0.63027  0.33022  0.31331  1.0000
  C   C912      1.0  0.57798  0.30463  0.31574  1.0000
  H   H1089     1.0  0.61068  0.32886  0.33708  1.0000
  H   H1090     1.0  0.66206  0.45165  0.06093  1.0000
  H   H1091     1.0  0.58157  0.34937  0.31310  1.0000
  H   H1092     1.0  0.68451  0.47822  0.24338  1.0000
  H   H1093     1.0  0.96771  0.26931  0.11237  1.0000
  H   H1094     1.0  0.83127  0.31754  0.47129  1.0000
  H   H1095     1.0  0.91992  0.26297  0.02137  1.0000
  C   C913      1.0  0.66575  0.44833  0.30304  1.0000
  H   H1096     1.0  0.68376  0.40479  0.13859  1.0000
  H   H1097     1.0  0.62432  0.30362  0.32606  1.0000
  C   C914      1.0  0.62856  0.25684  0.35235  1.0000
  H   H1098     1.0  0.57713  0.34006  0.28465  1.0000
  C   C915      1.0  0.66622  0.44582  0.09691  1.0000
  C   C916      1.0  0.60643  0.30532  0.28527  1.0000
  C   C917      1.0  0.69949  0.45259  0.27887  1.0000
  H   H1099     1.0  0.77653  0.26165  0.19067  1.0000
  C   C918      1.0  0.67797  0.46133  0.28644  1.0000
  C   C919      1.0  0.68164  0.44344  0.11509  1.0000
  H   H1100     1.0  0.66457  0.41758  0.32306  1.0000
  H   H1101     1.0  0.59354  0.29456  0.34807  1.0000
  H   H1102     1.0  0.60413  0.35050  0.29183  1.0000
  C   C920      1.0  0.71281  0.44908  0.08695  1.0000
  H   H1103     1.0  0.64393  0.42111  0.13220  1.0000
  C   C921      1.0  0.58961  0.34024  0.29848  1.0000
  H   H1104     1.0  0.66908  0.47470  0.14669  1.0000
  H   H1105     1.0  0.64571  0.49164  0.30464  1.0000
  H   H1106     1.0  0.72403  0.42515  0.28034  1.0000
  H   H1107     1.0  0.70157  0.40306  0.30860  1.0000
  C   C922      1.0  0.93007  0.31352  0.49492  1.0000
  H   H1108     1.0  0.59399  0.30491  0.27141  1.0000
  C   C923      1.0  0.68602  0.41997  0.14907  1.0000
  H   H1109     1.0  0.70456  0.42262  0.15063  1.0000
  H   H1110     1.0  0.93972  0.26871  0.04279  1.0000
  H   H1111     1.0  0.64915  0.45332  0.30968  1.0000
  C   C924      1.0  0.93833  0.26371  0.02480  1.0000
  C   C925      1.0  0.77048  0.47746  0.44797  1.0000
  C   C926      1.0  0.92156  0.33392  0.48566  1.0000
  H   H1112     1.0  0.93242  0.34374  0.47436  1.0000
  H   H1113     1.0  0.92939  0.29014  0.44492  1.0000
  C   C927      1.0  0.83895  0.26259  0.09688  1.0000
  H   H1114     1.0  0.73155  0.25270  0.27588  1.0000
  N   N64       1.0  0.66908  0.48292  0.27703  1.0000
  H   H1115     1.0  0.74126  0.27856  0.17373  1.0000
  H   H1116     1.0  0.65632  0.46783  0.24719  1.0000
  H   H1117     1.0  0.63326  0.47629  0.28172  1.0000
  H   H1118     1.0  0.96808  0.30966  0.01543  1.0000
  C   C928      1.0  0.69731  0.45102  0.06953  1.0000
  H   H1119     1.0  0.77422  0.49089  0.41304  1.0000
  C   C929      1.0  0.70793  0.43189  0.28690  1.0000
  H   H1120     1.0  0.63896  0.45095  0.13634  1.0000
  C   C930      1.0  0.54077  0.27962  0.33392  1.0000
  S   S249      1.0  0.77841  0.49778  0.01943  1.0000
  H   H1121     1.0  0.78882  0.45542  0.40949  1.0000
  C   C931      1.0  0.56033  0.28184  0.34646  1.0000
  S   S250      1.0  0.77642  0.40401  0.49493  1.0000
  N   N65       1.0  0.84505  0.32724  0.43825  1.0000
  C   C932      1.0  0.83698  0.32711  0.41452  1.0000
  H   H1122     1.0  0.56141  0.27358  0.36301  1.0000
  C   C933      1.0  0.84675  0.35085  0.44551  1.0000
  C   C934      1.0  0.86777  0.31611  0.43962  1.0000
  C   C935      1.0  0.87258  0.29836  0.45538  1.0000
  C   C936      1.0  0.88626  0.32378  0.42570  1.0000
  C   C937      1.0  0.89450  0.28892  0.45684  1.0000
  C   C938      1.0  0.90813  0.31430  0.42744  1.0000
  C   C939      1.0  0.91224  0.29693  0.44300  1.0000
  H   H1123     1.0  0.83647  0.30966  0.40802  1.0000
  H   H1124     1.0  0.81948  0.33466  0.41326  1.0000
  H   H1125     1.0  0.84788  0.33711  0.40260  1.0000
  H   H1126     1.0  0.75227  0.26963  0.14671  1.0000
  C   C940      1.0  0.53953  0.28959  0.31239  1.0000
  H   H1127     1.0  0.94537  0.27744  0.01390  1.0000
  H   H1128     1.0  0.85848  0.36073  0.43431  1.0000
  H   H1129     1.0  0.82991  0.35973  0.44519  1.0000
  H   H1130     1.0  0.85316  0.35165  0.46314  1.0000
  H   H1131     1.0  0.85994  0.29188  0.46726  1.0000
  H   H1132     1.0  0.70977  0.46148  0.26632  1.0000
  C   C941      1.0  0.66776  0.48153  0.25196  1.0000
  S   S251      1.0  0.86565  0.36756  0.00425  1.0000
  H   H1133     1.0  0.86081  0.41579  0.00701  1.0000
  H   H1134     1.0  0.64262  0.26584  0.35913  1.0000
  Fe  Fe124     1.0  0.98253  0.27422  0.49478  1.0000
  C   C942      1.0  0.93583  0.27365  0.09567  1.0000
  C   C943      1.0  0.52540  0.49250  0.19397  1.0000
  H   H1135     1.0  0.76760  0.47265  0.48492  1.0000
  H   H1136     1.0  0.72422  0.26146  0.15608  1.0000
  H   H1137     1.0  0.50773  0.47563  0.22173  1.0000
  C   C944      1.0  0.50584  0.48451  0.20568  1.0000
  H   H1138     1.0  0.73967  0.25389  0.20630  1.0000
  Fe  Fe125     1.0  0.59036  0.49470  0.19751  1.0000
  C   C945      1.0  0.84414  0.40945  0.00360  1.0000
  C   C946      1.0  0.82568  0.42477  0.00050  1.0000
  H   H1139     1.0  0.82831  0.44266  0.00143  1.0000
  C   C947      1.0  0.84133  0.38605  0.00186  1.0000
  S   S252      1.0  0.55252  0.48865  0.20676  1.0000
  C   C948      1.0  0.90548  0.24961  0.10917  1.0000
  H   H1140     1.0  0.61348  0.24905  0.38533  1.0000
  H   H1141     1.0  0.70178  0.49899  0.27453  1.0000
  S   S253      1.0  0.95323  0.29727  0.96959  1.0000
  C   C949      1.0  0.88483  0.32921  0.50534  1.0000
  C   C950      1.0  0.76968  0.25878  0.73818  1.0000
  S   S254      1.0  0.70107  0.26501  0.72852  1.0000
  H   H1142     1.0  0.55344  0.32466  0.66988  1.0000
  C   C951      1.0  0.00024  0.29416  0.96920  1.0000
  H   H1143     1.0  0.56192  0.29219  0.64512  1.0000
  S   S255      1.0  0.55738  0.48771  0.81791  1.0000
  H   H1144     1.0  0.81917  0.27653  0.85401  1.0000
  S   S256      1.0  0.89425  0.26992  0.98024  1.0000
  H   H1145     1.0  0.74750  0.28038  0.71823  1.0000
  Fe  Fe126     1.0  0.86755  0.29144  0.96376  1.0000
  S   S257      1.0  0.84423  0.28277  0.93451  1.0000
  S   S258      1.0  0.88992  0.32180  0.96265  1.0000
  Fe  Fe127     1.0  0.78147  0.37497  0.51940  1.0000
  S   S259      1.0  0.75215  0.35849  0.53927  1.0000
  S   S260      1.0  0.81426  0.38776  0.53233  1.0000
  Fe  Fe128     1.0  0.69211  0.29194  0.70175  1.0000
  S   S261      1.0  0.65427  0.29797  0.69769  1.0000
  C   C952      1.0  0.51032  0.48639  0.81948  1.0000
  Fe  Fe129     1.0  0.70392  0.32505  0.66286  1.0000
  S   S262      1.0  0.66727  0.33272  0.65582  1.0000
  S   S263      1.0  0.73306  0.34452  0.64593  1.0000
  Fe  Fe130     1.0  0.66263  0.33466  0.69390  1.0000
  S   S264      1.0  0.63865  0.36278  0.70633  1.0000
  Fe  Fe131     1.0  0.66165  0.29557  0.66022  1.0000
  C   C953      1.0  0.82874  0.25489  0.90157  1.0000
  S   S265      1.0  0.69969  0.32895  0.70100  1.0000
  S   S266      1.0  0.69911  0.28755  0.66421  1.0000
  S   S267      1.0  0.76453  0.49756  0.96546  1.0000
  C   C954      1.0  0.60330  0.26263  0.66021  1.0000
  H   H1146     1.0  0.65730  0.41229  0.64572  1.0000
  H   H1147     1.0  0.81669  0.36035  0.99800  1.0000
  H   H1148     1.0  0.51350  0.33466  0.68047  1.0000
  C   C955      1.0  0.75709  0.25488  0.83680  1.0000
  Fe  Fe132     1.0  0.63661  0.47307  0.78499  1.0000
  S   S268      1.0  0.65819  0.44247  0.77406  1.0000
  S   S269      1.0  0.62229  0.47459  0.82079  1.0000
  H   H1149     1.0  0.78986  0.25258  0.85113  1.0000
  H   H1150     1.0  0.61375  0.25164  0.60437  1.0000
  H   H1151     1.0  0.88250  0.29894  0.52589  1.0000
  C   C956      1.0  0.77804  0.27600  0.79924  1.0000
  C   C957      1.0  0.64395  0.38412  0.72616  1.0000
  C   C958      1.0  0.62750  0.40132  0.72958  1.0000
  C   C959      1.0  0.63142  0.41924  0.74431  1.0000
  C   C960      1.0  0.65191  0.42009  0.75579  1.0000
  C   C961      1.0  0.66831  0.40283  0.75247  1.0000
  C   C962      1.0  0.66436  0.38488  0.73781  1.0000
  H   H1152     1.0  0.61167  0.40090  0.72062  1.0000
  H   H1153     1.0  0.61868  0.43242  0.74667  1.0000
  H   H1154     1.0  0.68424  0.40336  0.76122  1.0000
  H   H1155     1.0  0.67713  0.37173  0.73543  1.0000
  H   H1156     1.0  0.73433  0.28782  0.58544  1.0000
  H   H1157     1.0  0.74458  0.27704  0.78503  1.0000
  H   H1158     1.0  0.61031  0.27148  0.67423  1.0000
  C   C963      1.0  0.74632  0.35636  0.56907  1.0000
  C   C964      1.0  0.76038  0.36575  0.58509  1.0000
  C   C965      1.0  0.75592  0.36217  0.60855  1.0000
  C   C966      1.0  0.73717  0.34954  0.61626  1.0000
  C   C967      1.0  0.72255  0.34098  0.60030  1.0000
  C   C968      1.0  0.72720  0.34428  0.57684  1.0000
  H   H1159     1.0  0.77475  0.37565  0.57946  1.0000
  H   H1160     1.0  0.76719  0.36907  0.62078  1.0000
  H   H1161     1.0  0.70800  0.33133  0.60597  1.0000
  H   H1162     1.0  0.71609  0.33712  0.56461  1.0000
  H   H1163     1.0  0.70115  0.38441  0.63335  1.0000
  C   C969      1.0  0.80415  0.41690  0.99529  1.0000
  H   H1164     1.0  0.69157  0.48411  0.70302  1.0000
  C   C970      1.0  0.52616  0.42140  0.79128  1.0000
  H   H1165     1.0  0.53554  0.40828  0.80023  1.0000
  C   C971      1.0  0.82587  0.28364  0.79685  1.0000
  C   C972      1.0  0.52668  0.28395  0.64146  1.0000
  H   H1166     1.0  0.84183  0.28835  0.83763  1.0000
  H   H1167     1.0  0.78503  0.26707  0.73233  1.0000
  H   H1168     1.0  0.81815  0.30073  0.79475  1.0000
  H   H1169     1.0  0.81228  0.26261  0.90529  1.0000
  H   H1170     1.0  0.65549  0.25115  0.72093  1.0000
  C   C973      1.0  0.84767  0.26112  0.91409  1.0000
  C   C974      1.0  0.98045  0.29921  0.98237  1.0000
  C   C975      1.0  0.54437  0.29669  0.64956  1.0000
  S   S270      1.0  0.64153  0.27583  0.63470  1.0000
  H   H1171     1.0  0.72100  0.40337  0.64413  1.0000
  N   N66       1.0  0.69090  0.43908  0.83698  1.0000
  C   C976      1.0  0.68845  0.46068  0.82434  1.0000
  C   C977      1.0  0.71411  0.42989  0.83177  1.0000
  C   C978      1.0  0.67434  0.42296  0.82826  1.0000
  C   C979      1.0  0.68632  0.44290  0.86154  1.0000
  C   C980      1.0  0.70344  0.44066  0.87815  1.0000
  C   C981      1.0  0.66421  0.44957  0.86943  1.0000
  C   C982      1.0  0.69845  0.44457  0.90118  1.0000
  C   C983      1.0  0.65937  0.45323  0.89250  1.0000
  C   C984      1.0  0.67646  0.45077  0.90834  1.0000
  H   H1172     1.0  0.69194  0.45876  0.80574  1.0000
  H   H1173     1.0  0.67096  0.46790  0.82606  1.0000
  H   H1174     1.0  0.70008  0.47356  0.83076  1.0000
  H   H1175     1.0  0.72746  0.44198  0.83618  1.0000
  H   H1176     1.0  0.71666  0.42665  0.81323  1.0000
  H   H1177     1.0  0.71714  0.41365  0.84094  1.0000
  H   H1178     1.0  0.65678  0.43024  0.82757  1.0000
  H   H1179     1.0  0.67862  0.41796  0.81044  1.0000
  Fe  Fe133     1.0  0.91573  0.30082  0.98187  1.0000
  H   H1180     1.0  0.72087  0.43621  0.87380  1.0000
  H   H1181     1.0  0.65058  0.45256  0.85773  1.0000
  H   H1182     1.0  0.71176  0.44327  0.91359  1.0000
  H   H1183     1.0  0.64246  0.45880  0.89802  1.0000
  H   H1184     1.0  0.67283  0.45437  0.92612  1.0000
  H   H1185     1.0  0.77993  0.30600  0.63723  1.0000
  H   H1186     1.0  0.72610  0.25833  0.81824  1.0000
  C   C985      1.0  0.53767  0.44004  0.78266  1.0000
  C   C986      1.0  0.50350  0.28923  0.64696  1.0000
  C   C987      1.0  0.61476  0.26275  0.63905  1.0000
  Fe  Fe134     1.0  0.87394  0.33020  0.99689  1.0000
  C   C988      1.0  0.81952  0.37821  0.99793  1.0000
  C   C989      1.0  0.53961  0.31494  0.66353  1.0000
  C   C990      1.0  0.82317  0.28534  0.83761  1.0000
  C   C991      1.0  0.60507  0.25158  0.62084  1.0000
  H   H1187     1.0  0.51268  0.47393  0.83284  1.0000
  H   H1188     1.0  0.69708  0.41379  0.62776  1.0000
  H   H1189     1.0  0.71384  0.44152  0.64881  1.0000
  H   H1190     1.0  0.85037  0.42322  0.95325  1.0000
  C   C992      1.0  0.79180  0.26914  0.81776  1.0000
  H   H1191     1.0  0.66598  0.41767  0.70107  1.0000
  C   C993      1.0  0.78052  0.25860  0.83662  1.0000
  C   C994      1.0  0.74841  0.26637  0.73013  1.0000
  H   H1192     1.0  0.80372  0.49600  0.53799  1.0000
  N   N67       1.0  0.83042  0.35130  0.93136  1.0000
  C   C995      1.0  0.83048  0.34132  0.95455  1.0000
  C   C996      1.0  0.81323  0.33935  0.91824  1.0000
  C   C997      1.0  0.85298  0.34694  0.92007  1.0000
  C   C998      1.0  0.82582  0.37577  0.93318  1.0000
  C   C999      1.0  0.84219  0.38995  0.94257  1.0000
  C   C1000     1.0  0.80458  0.38595  0.92741  1.0000
  C   C1001     1.0  0.83787  0.41292  0.94534  1.0000
  C   C1002     1.0  0.80031  0.40891  0.93066  1.0000
  C   C1003     1.0  0.81694  0.42237  0.93951  1.0000
  H   H1193     1.0  0.81371  0.34389  0.96342  1.0000
  H   H1194     1.0  0.83394  0.32295  0.95430  1.0000
  H   H1195     1.0  0.84369  0.34873  0.96520  1.0000
  H   H1196     1.0  0.79624  0.33955  0.92708  1.0000
  H   H1197     1.0  0.81789  0.32119  0.91633  1.0000
  H   H1198     1.0  0.81165  0.34673  0.90085  1.0000
  H   H1199     1.0  0.85637  0.32860  0.91771  1.0000
  H   H1200     1.0  0.85413  0.35540  0.90310  1.0000
  H   H1201     1.0  0.86732  0.35276  0.93023  1.0000
  H   H1202     1.0  0.85807  0.38326  0.94897  1.0000
  H   H1203     1.0  0.79075  0.37644  0.92106  1.0000
  Fe  Fe135     1.0  0.59400  0.49656  0.80626  1.0000
  H   H1204     1.0  0.78372  0.41625  0.92715  1.0000
  H   H1205     1.0  0.81319  0.43993  0.94292  1.0000
  N   N68       1.0  0.80680  0.31301  0.56190  1.0000
  C   C1004     1.0  0.82779  0.29930  0.56554  1.0000
  C   C1005     1.0  0.79987  0.30955  0.53810  1.0000
  C   C1006     1.0  0.81235  0.33706  0.56395  1.0000
  C   C1007     1.0  0.78904  0.30690  0.57917  1.0000
  C   C1008     1.0  0.76729  0.29897  0.57338  1.0000
  C   C1009     1.0  0.79324  0.30897  0.60273  1.0000
  C   C1010     1.0  0.75103  0.29325  0.59020  1.0000
  C   C1011     1.0  0.77673  0.30352  0.61937  1.0000
  C   C1012     1.0  0.75570  0.29559  0.61312  1.0000
  H   H1206     1.0  0.82415  0.28102  0.56510  1.0000
  H   H1207     1.0  0.84118  0.30294  0.55222  1.0000
  H   H1208     1.0  0.83555  0.30274  0.58211  1.0000
  H   H1209     1.0  0.79589  0.29167  0.53508  1.0000
  H   H1210     1.0  0.81360  0.31428  0.52560  1.0000
  H   H1211     1.0  0.78473  0.32025  0.53384  1.0000
  H   H1212     1.0  0.81819  0.34132  0.58112  1.0000
  H   H1213     1.0  0.82616  0.34206  0.55167  1.0000
  H   H1214     1.0  0.79722  0.34790  0.56039  1.0000
  H   H1215     1.0  0.76210  0.29759  0.55599  1.0000
  H   H1216     1.0  0.80917  0.31527  0.60848  1.0000
  H   H1217     1.0  0.74271  0.29205  0.62607  1.0000
  H   H1218     1.0  0.81406  0.30190  0.83780  1.0000
  H   H1219     1.0  0.67372  0.40739  0.83896  1.0000
  N   N69       1.0  0.68851  0.40342  0.66228  1.0000
  C   C1013     1.0  0.69671  0.38587  0.67841  1.0000
  C   C1014     1.0  0.66460  0.39871  0.65669  1.0000
  C   C1015     1.0  0.70255  0.40138  0.64096  1.0000
  C   C1016     1.0  0.68962  0.42572  0.67301  1.0000
  C   C1017     1.0  0.67676  0.43024  0.69326  1.0000
  C   C1018     1.0  0.70337  0.44336  0.66406  1.0000
  C   C1019     1.0  0.67756  0.45101  0.70395  1.0000
  C   C1020     1.0  0.70396  0.46417  0.67482  1.0000
  C   C1021     1.0  0.69109  0.46798  0.69470  1.0000
  H   H1220     1.0  0.69721  0.36902  0.67055  1.0000
  H   H1221     1.0  0.71426  0.38930  0.68393  1.0000
  H   H1222     1.0  0.68553  0.38439  0.69387  1.0000
  H   H1223     1.0  0.65333  0.39709  0.67213  1.0000
  H   H1224     1.0  0.66324  0.38254  0.64760  1.0000
  H   H1225     1.0  0.66763  0.45393  0.71953  1.0000
  H   H1226     1.0  0.84467  0.28559  0.79731  1.0000
  H   H1227     1.0  0.63058  0.25236  0.70388  1.0000
  Fe  Fe136     1.0  0.76857  0.47178  0.99399  1.0000
  C   C1022     1.0  0.74417  0.26168  0.81833  1.0000
  Fe  Fe137     1.0  0.81047  0.41600  0.50614  1.0000
  N   N70       1.0  0.81681  0.27208  0.81767  1.0000
  H   H1228     1.0  0.55579  0.44163  0.78518  1.0000
  H   H1229     1.0  0.71448  0.47746  0.66772  1.0000
  C   C1023     1.0  0.72841  0.25589  0.73764  1.0000
  H   H1230     1.0  0.78465  0.38713  0.99048  1.0000
  H   H1231     1.0  0.53484  0.47163  0.76490  1.0000
  H   H1232     1.0  0.78503  0.28344  0.78378  1.0000
  C   C1024     1.0  0.75459  0.27233  0.79968  1.0000
  H   H1233     1.0  0.53139  0.26964  0.63108  1.0000
  S   S271      1.0  0.81239  0.45291  0.51758  1.0000
  H   H1234     1.0  0.95084  0.25011  0.98390  1.0000
  H   H1235     1.0  0.82268  0.27372  0.78132  1.0000
  C   C1025     1.0  0.58275  0.25095  0.66324  1.0000
  S   S272      1.0  0.85024  0.30076  0.99727  1.0000
  S   S273      1.0  0.78083  0.43524  0.98806  1.0000
  Fe  Fe138     1.0  0.83165  0.36748  0.50434  1.0000
  H   H1236     1.0  0.88351  0.25539  0.91874  1.0000
  C   C1026     1.0  0.52578  0.45698  0.77120  1.0000
  C   C1027     1.0  0.89331  0.30881  0.51460  1.0000
  H   H1237     1.0  0.57419  0.25070  0.67976  1.0000
  C   C1028     1.0  0.80124  0.39349  0.99418  1.0000
  C   C1029     1.0  0.50264  0.41980  0.78876  1.0000
  S   S274      1.0  0.85620  0.33788  0.51237  1.0000
  C   C1030     1.0  0.81567  0.48100  0.50662  1.0000
  H   H1238     1.0  0.92195  0.28533  0.51676  1.0000
  C   C1031     1.0  0.91574  0.30102  0.50949  1.0000
  S   S275      1.0  0.60724  0.49265  0.77016  1.0000
  C   C1032     1.0  0.86878  0.25075  0.90935  1.0000
  C   C1033     1.0  0.50221  0.45576  0.76886  1.0000
  H   H1239     1.0  0.99863  0.28966  0.95157  1.0000
  C   C1034     1.0  0.51709  0.32052  0.66945  1.0000
  C   C1035     1.0  0.52960  0.49642  0.80910  1.0000
  H   H1240     1.0  0.84724  0.25095  0.81849  1.0000
  H   H1241     1.0  0.65867  0.24941  0.67109  1.0000
  H   H1242     1.0  0.50308  0.26736  0.60652  1.0000
  C   C1036     1.0  0.82833  0.24977  0.81904  1.0000
  S   S276      1.0  0.95364  0.69548  0.01298  1.0000
  Fe  Fe139     1.0  0.86900  0.70655  0.02108  1.0000
  S   S277      1.0  0.89248  0.67793  0.03044  1.0000
  S   S278      1.0  0.84530  0.72651  0.04521  1.0000
  H   H1243     1.0  0.54272  0.56817  0.20545  1.0000
  Fe  Fe140     1.0  0.63157  0.52027  0.21535  1.0000
  S   S279      1.0  0.64033  0.54202  0.24569  1.0000
  S   S280      1.0  0.60740  0.52699  0.18665  1.0000
  Fe  Fe141     1.0  0.66602  0.68878  0.32389  1.0000
  S   S281      1.0  0.67683  0.65222  0.32138  1.0000
  S   S282      1.0  0.63192  0.69474  0.34279  1.0000
  Fe  Fe142     1.0  0.71024  0.70459  0.29986  1.0000
  S   S283      1.0  0.72344  0.66926  0.29530  1.0000
  C   C1037     1.0  0.50880  0.58266  0.20605  1.0000
  Fe  Fe143     1.0  0.68779  0.66088  0.28556  1.0000
  S   S284      1.0  0.68019  0.64082  0.25383  1.0000
  Fe  Fe144     1.0  0.71145  0.66337  0.33164  1.0000
  S   S285      1.0  0.73502  0.64181  0.35373  1.0000
  S   S286      1.0  0.67523  0.69705  0.28733  1.0000
  S   S287      1.0  0.69992  0.69913  0.33692  1.0000
  H   H1244     1.0  0.92007  0.59713  0.02732  1.0000
  H   H1245     1.0  0.76583  0.51241  0.49393  1.0000
  C   C1038     1.0  0.70782  0.50704  0.10684  1.0000
  C   C1039     1.0  0.70665  0.50588  0.08299  1.0000
  S   S288      1.0  0.64052  0.51030  0.12768  1.0000
  H   H1246     1.0  0.56006  0.73423  0.36283  1.0000
  Fe  Fe145     1.0  0.79882  0.63717  0.47339  1.0000
  S   S289      1.0  0.77470  0.65900  0.45197  1.0000
  S   S290      1.0  0.82910  0.61576  0.46289  1.0000
  C   C1040     1.0  0.78462  0.67297  0.32249  1.0000
  H   H1247     1.0  0.79675  0.57957  0.07221  1.0000
  H   H1248     1.0  0.79869  0.58634  0.04261  1.0000
  C   C1041     1.0  0.74462  0.64630  0.38169  1.0000
  C   C1042     1.0  0.73842  0.66550  0.39400  1.0000
  C   C1043     1.0  0.74769  0.66901  0.41552  1.0000
  C   C1044     1.0  0.76311  0.65334  0.42507  1.0000
  C   C1045     1.0  0.76917  0.63407  0.41284  1.0000
  C   C1046     1.0  0.75998  0.63061  0.39128  1.0000
  H   H1249     1.0  0.72664  0.67773  0.38689  1.0000
  H   H1250     1.0  0.74295  0.68402  0.42480  1.0000
  H   H1251     1.0  0.78105  0.62191  0.41991  1.0000
  H   H1252     1.0  0.76497  0.61575  0.38187  1.0000
  H   H1253     1.0  0.64754  0.72153  0.40659  1.0000
  H   H1254     1.0  0.75617  0.72600  0.21185  1.0000
  C   C1047     1.0  0.84430  0.58153  0.01191  1.0000
  H   H1255     1.0  0.80250  0.66793  0.31806  1.0000
  H   H1256     1.0  0.78571  0.54930  0.03487  1.0000
  C   C1048     1.0  0.93902  0.59840  0.02634  1.0000
  H   H1257     1.0  0.62470  0.63992  0.24991  1.0000
  C   C1049     1.0  0.67005  0.61292  0.25201  1.0000
  C   C1050     1.0  0.66390  0.60019  0.27134  1.0000
  C   C1051     1.0  0.65496  0.57852  0.26903  1.0000
  C   C1052     1.0  0.65216  0.56924  0.24741  1.0000
  C   C1053     1.0  0.65858  0.58184  0.22809  1.0000
  C   C1054     1.0  0.66740  0.60357  0.23041  1.0000
  H   H1258     1.0  0.66596  0.60706  0.28805  1.0000
  H   H1259     1.0  0.65007  0.56894  0.28409  1.0000
  H   H1260     1.0  0.65658  0.57495  0.21136  1.0000
  H   H1261     1.0  0.67210  0.61326  0.21534  1.0000
  Fe  Fe146     1.0  0.98579  0.73808  0.49916  1.0000
  H   H1262     1.0  0.61655  0.60879  0.22579  1.0000
  C   C1055     1.0  0.73213  0.69176  0.49317  1.0000
  C   C1056     1.0  0.61138  0.71681  0.33942  1.0000
  C   C1057     1.0  0.59175  0.71705  0.35369  1.0000
  H   H1263     1.0  0.76926  0.54138  0.46358  1.0000
  H   H1264     1.0  0.74154  0.59314  0.12833  1.0000
  H   H1265     1.0  0.58934  0.70371  0.36617  1.0000
  H   H1266     1.0  0.77314  0.53023  0.42337  1.0000
  H   H1267     1.0  0.67793  0.51797  0.27611  1.0000
  H   H1268     1.0  0.69662  0.55436  0.08914  1.0000
  H   H1269     1.0  0.68919  0.50989  0.13898  1.0000
  H   H1270     1.0  0.83171  0.51142  0.45930  1.0000
  H   H1271     1.0  0.74787  0.60072  0.03711  1.0000
  S   S291      1.0  0.82156  0.55439  0.47914  1.0000
  H   H1272     1.0  0.83594  0.70134  0.40544  1.0000
  H   H1273     1.0  0.76723  0.58505  0.01897  1.0000
  Fe  Fe147     1.0  0.84856  0.63323  0.48987  1.0000
  H   H1274     1.0  0.91283  0.54106  0.48314  1.0000
  H   H1275     1.0  0.74091  0.57312  0.02777  1.0000
  C   C1058     1.0  0.83662  0.73211  0.19982  1.0000
  H   H1276     1.0  0.78081  0.54204  0.06450  1.0000
  H   H1277     1.0  0.85744  0.57499  0.02288  1.0000
  H   H1278     1.0  0.88791  0.74030  0.17212  1.0000
  N   N71       1.0  0.94617  0.62203  0.02281  1.0000
  H   H1279     1.0  0.84584  0.69098  0.16589  1.0000
  H   H1280     1.0  0.51423  0.59873  0.19912  1.0000
  H   H1281     1.0  0.75298  0.68850  0.35189  1.0000
  H   H1282     1.0  0.82169  0.73994  0.13314  1.0000
  S   S292      1.0  0.73452  0.52786  0.00216  1.0000
  C   C1059     1.0  0.75497  0.58360  0.03367  1.0000
  H   H1283     1.0  0.87690  0.71298  0.14508  1.0000
  C   C1060     1.0  0.82561  0.50815  0.47653  1.0000
  C   C1061     1.0  0.78690  0.58674  0.05781  1.0000
  H   H1284     1.0  0.64879  0.50834  0.07933  1.0000
  N   N72       1.0  0.84477  0.72638  0.15806  1.0000
  H   H1285     1.0  0.97397  0.64980  0.04854  1.0000
  S   S293      1.0  0.65697  0.50051  0.19377  1.0000
  H   H1286     1.0  0.57964  0.74600  0.43971  1.0000
  C   C1062     1.0  0.86504  0.74555  0.22503  1.0000
  H   H1287     1.0  0.89107  0.58811  0.47549  1.0000
  H   H1288     1.0  0.83024  0.73943  0.23517  1.0000
  C   C1063     1.0  0.74718  0.74245  0.26668  1.0000
  H   H1289     1.0  0.77770  0.66015  0.33467  1.0000
  C   C1064     1.0  0.91285  0.55382  0.49679  1.0000
  H   H1290     1.0  0.73558  0.71459  0.24753  1.0000
  H   H1291     1.0  0.63963  0.50531  0.27822  1.0000
  C   C1065     1.0  0.82894  0.71519  0.37218  1.0000
  H   H1292     1.0  0.84196  0.72780  0.37297  1.0000
  H   H1293     1.0  0.62829  0.67696  0.29777  1.0000
  H   H1294     1.0  0.53739  0.51022  0.16397  1.0000
  N   N73       1.0  0.78333  0.69605  0.33176  1.0000
  C   C1066     1.0  0.90337  0.66477  0.48792  1.0000
  C   C1067     1.0  0.97132  0.62339  0.02299  1.0000
  H   H1295     1.0  0.87170  0.74233  0.13848  1.0000
  H   H1296     1.0  0.93994  0.63054  0.05800  1.0000
  H   H1297     1.0  0.81797  0.70381  0.16896  1.0000
  C   C1068     1.0  0.76903  0.52374  0.45918  1.0000
  C   C1069     1.0  0.52487  0.56554  0.20965  1.0000
  C   C1070     1.0  0.74952  0.57414  0.07367  1.0000
  C   C1071     1.0  0.75385  0.58507  0.09444  1.0000
  C   C1072     1.0  0.72836  0.56315  0.07233  1.0000
  C   C1073     1.0  0.73790  0.58487  0.11257  1.0000
  C   C1074     1.0  0.71253  0.56317  0.09051  1.0000
  C   C1075     1.0  0.71731  0.57392  0.11061  1.0000
  H   H1298     1.0  0.75858  0.53979  0.04474  1.0000
  H   H1299     1.0  0.76946  0.59375  0.09718  1.0000
  H   H1300     1.0  0.72404  0.55399  0.05735  1.0000
  H   H1301     1.0  0.62907  0.73403  0.31200  1.0000
  C   C1076     1.0  0.66640  0.50881  0.11100  1.0000
  H   H1302     1.0  0.87899  0.56222  0.46726  1.0000
  C   C1077     1.0  0.63797  0.73567  0.39960  1.0000
  C   C1078     1.0  0.82561  0.70033  0.39049  1.0000
  N   N74       1.0  0.60870  0.64678  0.29518  1.0000
  C   C1079     1.0  0.61908  0.63681  0.31584  1.0000
  C   C1080     1.0  0.62480  0.66353  0.28543  1.0000
  C   C1081     1.0  0.58749  0.65913  0.30202  1.0000
  C   C1082     1.0  0.60349  0.62866  0.27924  1.0000
  C   C1083     1.0  0.58889  0.61097  0.28629  1.0000
  C   C1084     1.0  0.77310  0.55030  0.04934  1.0000
  H   H1303     1.0  0.63445  0.62642  0.31124  1.0000
  H   H1304     1.0  0.94589  0.59119  0.04240  1.0000
  H   H1305     1.0  0.60720  0.62593  0.32576  1.0000
  C   C1085     1.0  0.66526  0.50802  0.08712  1.0000
  Fe  Fe148     1.0  0.63185  0.50481  0.16576  1.0000
  H   H1306     1.0  0.61793  0.67219  0.27011  1.0000
  H   H1307     1.0  0.57511  0.64821  0.31128  1.0000
  H   H1308     1.0  0.59105  0.67323  0.31367  1.0000
  H   H1309     1.0  0.57890  0.66648  0.28690  1.0000
  H   H1310     1.0  0.58095  0.61070  0.30307  1.0000
  C   C1086     1.0  0.79546  0.68277  0.37047  1.0000
  C   C1087     1.0  0.80885  0.68418  0.38965  1.0000
  S   S294      1.0  0.88641  0.64086  0.48243  1.0000
  H   H1311     1.0  0.77765  0.71000  0.29814  1.0000
  C   C1088     1.0  0.76709  0.50740  0.47627  1.0000
  H   H1312     1.0  0.93451  0.64820  0.47656  1.0000
  H   H1313     1.0  0.85735  0.72154  0.12346  1.0000
  Fe  Fe149     1.0  0.81756  0.59135  0.49063  1.0000
  C   C1089     1.0  0.98507  0.61011  0.00793  1.0000
  C   C1090     1.0  0.78910  0.71194  0.31280  1.0000
  C   C1091     1.0  0.85234  0.73219  0.18104  1.0000
  H   H1314     1.0  0.64154  0.65555  0.28080  1.0000
  N   N75       1.0  0.76595  0.57383  0.05410  1.0000
  H   H1315     1.0  0.57414  0.57926  0.27802  1.0000
  H   H1316     1.0  0.74509  0.64782  0.49138  1.0000
  H   H1317     1.0  0.80682  0.70914  0.30620  1.0000
  C   C1092     1.0  0.81939  0.52640  0.49054  1.0000
  S   S295      1.0  0.73254  0.73517  0.29256  1.0000
  C   C1093     1.0  0.93176  0.70225  0.49530  1.0000
  C   C1094     1.0  0.68521  0.50658  0.07319  1.0000
  H   H1318     1.0  0.81880  0.72616  0.33951  1.0000
  C   C1095     1.0  0.60855  0.60961  0.24261  1.0000
  C   C1096     1.0  0.68454  0.50137  0.28248  1.0000
  H   H1319     1.0  0.61542  0.73727  0.42817  1.0000
  H   H1320     1.0  0.78286  0.60479  0.06101  1.0000
  C   C1097     1.0  0.98286  0.63824  0.03730  1.0000
  H   H1321     1.0  0.94475  0.58737  0.01217  1.0000
  H   H1322     1.0  0.68396  0.50580  0.05490  1.0000
  H   H1323     1.0  0.62442  0.64998  0.32775  1.0000
  H   H1324     1.0  0.91556  0.63378  0.04047  1.0000
  C   C1098     1.0  0.59476  0.59217  0.25033  1.0000
  H   H1325     1.0  0.82593  0.55023  0.01214  1.0000
  C   C1099     1.0  0.74582  0.72952  0.24714  1.0000
  H   H1326     1.0  0.74215  0.68795  0.47726  1.0000
  C   C1100     1.0  0.81549  0.71400  0.35295  1.0000
  C   C1101     1.0  0.58478  0.59294  0.27206  1.0000
  S   S296      1.0  0.81915  0.65643  0.49840  1.0000
  H   H1327     1.0  0.78265  0.67003  0.37070  1.0000
  H   H1328     1.0  0.81903  0.72777  0.19776  1.0000
  C   C1102     1.0  0.79831  0.69761  0.35152  1.0000
  C   C1103     1.0  0.98216  0.68765  0.00429  1.0000
  Fe  Fe150     1.0  0.87605  0.65806  0.00308  1.0000
  H   H1329     1.0  0.70507  0.57356  0.12476  1.0000
  H   H1330     1.0  0.93757  0.65395  0.03809  1.0000
  C   C1104     1.0  0.83410  0.70397  0.15864  1.0000
  C   C1105     1.0  0.92703  0.66358  0.48321  1.0000
  H   H1331     1.0  0.59219  0.57784  0.23958  1.0000
  S   S297      1.0  0.86899  0.62078  0.01143  1.0000
  C   C1106     1.0  0.61414  0.73402  0.32317  1.0000
  H   H1332     1.0  0.77435  0.67153  0.30695  1.0000
  H   H1333     1.0  0.71395  0.68972  0.48907  1.0000
  C   C1107     1.0  0.75757  0.73603  0.22692  1.0000
  C   C1108     1.0  0.61305  0.62756  0.25678  1.0000
  C   C1109     1.0  0.64399  0.74413  0.37811  1.0000
  Fe  Fe151     1.0  0.91633  0.69110  0.00271  1.0000
  H   H1334     1.0  0.74787  0.70086  0.32469  1.0000
  H   H1335     1.0  0.65801  0.73648  0.36842  1.0000
  C   C1110     1.0  0.61933  0.74487  0.41179  1.0000
  H   H1336     1.0  0.53055  0.53153  0.22116  1.0000
  C   C1111     1.0  0.57524  0.73450  0.35205  1.0000
  H   H1337     1.0  0.86308  0.58094  0.48518  1.0000
  H   H1338     1.0  0.56440  0.74644  0.40128  1.0000
  H   H1339     1.0  0.80607  0.67274  0.40402  1.0000
  H   H1340     1.0  0.78673  0.72977  0.31804  1.0000
  C   C1112     1.0  0.84559  0.60387  0.00364  1.0000
  Fe  Fe152     1.0  0.74072  0.50067  0.02823  1.0000
  C   C1113     1.0  0.93441  0.63566  0.04070  1.0000
  S   S298      1.0  0.73252  0.50392  0.06646  1.0000
  C   C1114     1.0  0.86356  0.72569  0.14062  1.0000
  H   H1341     1.0  0.95923  0.68084  0.48315  1.0000
  C   C1115     1.0  0.94114  0.68211  0.48692  1.0000
  H   H1342     1.0  0.82959  0.69858  0.14129  1.0000
  H   H1343     1.0  0.75781  0.71794  0.34701  1.0000
  C   C1116     1.0  0.88044  0.57392  0.48171  1.0000
  C   C1117     1.0  0.75952  0.70103  0.33924  1.0000
  H   H1344     1.0  0.77344  0.67444  0.49838  1.0000
  H   H1345     1.0  0.68655  0.50260  0.30119  1.0000
  H   H1346     1.0  0.73466  0.70976  0.49712  1.0000
  C   C1118     1.0  0.68789  0.50864  0.12074  1.0000
  C   C1119     1.0  0.82771  0.74339  0.15050  1.0000
  H   H1347     1.0  0.99701  0.70744  0.03026  1.0000
  H   H1348     1.0  0.88858  0.74018  0.06424  1.0000
  C   C1120     1.0  0.82637  0.56741  0.00587  1.0000
  C   C1121     1.0  0.77140  0.51737  0.43654  1.0000
  H   H1349     1.0  0.87361  0.53161  0.49254  1.0000
  C   C1122     1.0  0.85223  0.74451  0.06776  1.0000
  H   H1350     1.0  0.72430  0.50682  0.11461  1.0000
  C   C1123     1.0  0.51798  0.54487  0.21850  1.0000
  H   H1351     1.0  0.92189  0.74732  0.46211  1.0000
  H   H1352     1.0  0.92429  0.56744  0.49066  1.0000
  C   C1124     1.0  0.84289  0.73878  0.22141  1.0000
  C   C1125     1.0  0.87486  0.73909  0.18535  1.0000
  S   S299      1.0  0.78571  0.61197  0.49948  1.0000
  C   C1126     1.0  0.52262  0.50388  0.17318  1.0000
  C   C1127     1.0  0.87472  0.74827  0.07365  1.0000
  C   C1128     1.0  0.89403  0.68485  0.49646  1.0000
  C   C1129     1.0  0.93797  0.63022  0.00052  1.0000
  C   C1130     1.0  0.90811  0.70344  0.50000  1.0000
  S   S300      1.0  0.94838  0.72667  0.49964  1.0000
  H   H1353     1.0  0.81239  0.74416  0.16201  1.0000
  C   C1131     1.0  0.50064  0.50714  0.16430  1.0000
  C   C1132     1.0  0.88100  0.74561  0.20707  1.0000
  C   C1133     1.0  0.82847  0.61194  0.98938  1.0000
  H   H1354     1.0  0.86950  0.55985  0.54657  1.0000
  H   H1355     1.0  0.84019  0.73797  0.96962  1.0000
  C   C1134     1.0  0.89037  0.57847  0.52126  1.0000
  H   H1356     1.0  0.76905  0.69654  0.51813  1.0000
  H   H1357     1.0  0.59035  0.58128  0.72381  1.0000
  Fe  Fe153     1.0  0.87679  0.69888  0.97007  1.0000
  S   S301      1.0  0.90130  0.66962  0.97583  1.0000
  S   S302      1.0  0.86357  0.70716  0.93459  1.0000
  C   C1135     1.0  0.72405  0.56642  0.95529  1.0000
  H   H1358     1.0  0.97338  0.66647  0.97666  1.0000
  C   C1136     1.0  0.69327  0.56312  0.91878  1.0000
  H   H1359     1.0  0.73740  0.56725  0.96834  1.0000
  H   H1360     1.0  0.72082  0.73041  0.74608  1.0000
  Fe  Fe154     1.0  0.70249  0.67412  0.65458  1.0000
  S   S303      1.0  0.67001  0.66459  0.67364  1.0000
  S   S304      1.0  0.70844  0.65764  0.61994  1.0000
  Fe  Fe155     1.0  0.71648  0.70577  0.69227  1.0000
  S   S305      1.0  0.68520  0.69864  0.71359  1.0000
  S   S306      1.0  0.74586  0.72824  0.70205  1.0000
  Fe  Fe156     1.0  0.69123  0.66227  0.70477  1.0000
  S   S307      1.0  0.68967  0.63746  0.73493  1.0000
  Fe  Fe157     1.0  0.66589  0.70153  0.68093  1.0000
  S   S308      1.0  0.62997  0.71711  0.68413  1.0000
  S   S309      1.0  0.72404  0.66914  0.68531  1.0000
  S   S310      1.0  0.69689  0.71138  0.65991  1.0000
  Fe  Fe158     1.0  0.80762  0.63013  0.52396  1.0000
  S   S311      1.0  0.79998  0.64280  0.56000  1.0000
  S   S312      1.0  0.83852  0.60784  0.51704  1.0000
  Fe  Fe159     1.0  0.62735  0.52385  0.77695  1.0000
  S   S313      1.0  0.62898  0.54979  0.74777  1.0000
  S   S314      1.0  0.61279  0.52878  0.81254  1.0000
  C   C1137     1.0  0.79128  0.69972  0.75202  1.0000
  H   H1361     1.0  0.64295  0.51090  0.89172  1.0000
  C   C1138     1.0  0.73474  0.65330  0.50656  1.0000
  C   C1139     1.0  0.98707  0.67292  0.98639  1.0000
  H   H1362     1.0  0.84236  0.71681  0.89221  1.0000
  C   C1140     1.0  0.67314  0.61277  0.73793  1.0000
  C   C1141     1.0  0.67260  0.60110  0.75895  1.0000
  C   C1142     1.0  0.65954  0.58159  0.76218  1.0000
  C   C1143     1.0  0.64684  0.57351  0.74437  1.0000
  C   C1144     1.0  0.64759  0.58506  0.72328  1.0000
  C   C1145     1.0  0.66059  0.60459  0.72006  1.0000
  H   H1363     1.0  0.68227  0.60723  0.77288  1.0000
  H   H1364     1.0  0.65912  0.57292  0.77849  1.0000
  H   H1365     1.0  0.63797  0.57887  0.70934  1.0000
  H   H1366     1.0  0.66103  0.61318  0.70371  1.0000
  C   C1146     1.0  0.73434  0.65275  0.60418  1.0000
  C   C1147     1.0  0.73385  0.64047  0.58390  1.0000
  C   C1148     1.0  0.75376  0.63704  0.57030  1.0000
  C   C1149     1.0  0.77439  0.64607  0.57668  1.0000
  C   C1150     1.0  0.77491  0.65819  0.59704  1.0000
  C   C1151     1.0  0.75505  0.66150  0.61072  1.0000
  H   H1367     1.0  0.71794  0.63361  0.57869  1.0000
  H   H1368     1.0  0.75322  0.62716  0.55509  1.0000
  H   H1369     1.0  0.79080  0.66514  0.60223  1.0000
  H   H1370     1.0  0.75572  0.67103  0.62620  1.0000
  C   C1152     1.0  0.61478  0.73342  0.66369  1.0000
  H   H1371     1.0  0.91909  0.62919  0.99963  1.0000
  C   C1153     1.0  0.75147  0.74099  0.72846  1.0000
  H   H1372     1.0  0.76984  0.71135  0.81374  1.0000
  S   S315      1.0  0.67128  0.51072  0.84942  1.0000
  H   H1373     1.0  0.74197  0.56368  0.88563  1.0000
  H   H1374     1.0  0.81075  0.73904  0.97967  1.0000
  H   H1375     1.0  0.77090  0.66759  0.52800  1.0000
  C   C1154     1.0  0.71710  0.56405  0.91394  1.0000
  H   H1376     1.0  0.73195  0.70186  0.58783  1.0000
  H   H1377     1.0  0.50166  0.53097  0.77186  1.0000
  S   S316      1.0  0.85083  0.68578  0.99564  1.0000
  C   C1155     1.0  0.66058  0.50847  0.89616  1.0000
  H   H1378     1.0  0.54077  0.52040  0.78366  1.0000
  H   H1379     1.0  0.73041  0.74792  0.78258  1.0000
  N   N76       1.0  0.73920  0.67697  0.51236  1.0000
  H   H1380     1.0  0.94527  0.62039  0.98609  1.0000
  H   H1381     1.0  0.71368  0.55145  0.95997  1.0000
  H   H1382     1.0  0.75482  0.69215  0.55450  1.0000
  C   C1156     1.0  0.77250  0.68729  0.76090  1.0000
  H   H1383     1.0  0.65352  0.50899  0.93243  1.0000
  H   H1384     1.0  0.64231  0.73568  0.63895  1.0000
  C   C1157     1.0  0.62481  0.74040  0.64299  1.0000
  H   H1385     1.0  0.59785  0.61749  0.78528  1.0000
  C   C1158     1.0  0.77609  0.70763  0.79666  1.0000
  Fe  Fe160     1.0  0.72788  0.50053  0.97715  1.0000
  H   H1386     1.0  0.91123  0.63053  0.53262  1.0000
  C   C1159     1.0  0.70201  0.68160  0.53418  1.0000
  C   C1160     1.0  0.67764  0.56235  0.90130  1.0000
  H   H1387     1.0  0.80258  0.73200  0.79751  1.0000
  C   C1161     1.0  0.70007  0.69454  0.57300  1.0000
  H   H1388     1.0  0.67094  0.68520  0.55439  1.0000
  C   C1162     1.0  0.80219  0.71531  0.76533  1.0000
  N   N77       1.0  0.88954  0.56244  0.50227  1.0000
  C   C1163     1.0  0.67740  0.50708  0.87889  1.0000
  N   N78       1.0  0.73423  0.56455  0.93197  1.0000
  C   C1164     1.0  0.74946  0.58397  0.92823  1.0000
  C   C1165     1.0  0.74821  0.54359  0.93132  1.0000
  H   H1389     1.0  0.73946  0.60003  0.92730  1.0000
  H   H1390     1.0  0.76181  0.58534  0.94223  1.0000
  H   H1391     1.0  0.76001  0.58255  0.91234  1.0000
  H   H1392     1.0  0.75687  0.54095  0.91453  1.0000
  H   H1393     1.0  0.76178  0.54361  0.94417  1.0000
  H   H1394     1.0  0.73747  0.52871  0.93503  1.0000
  H   H1395     1.0  0.94265  0.64809  0.99746  1.0000
  C   C1166     1.0  0.87917  0.57473  0.54273  1.0000
  S   S317      1.0  0.78636  0.55853  0.98275  1.0000
  C   C1167     1.0  0.87946  0.59082  0.55984  1.0000
  C   C1168     1.0  0.59199  0.73979  0.66863  1.0000
  C   C1169     1.0  0.89097  0.61085  0.55622  1.0000
  H   H1396     1.0  0.71314  0.58181  0.95699  1.0000
  Fe  Fe161     1.0  0.64202  0.50632  0.82445  1.0000
  C   C1170     1.0  0.70631  0.50270  0.90824  1.0000
  H   H1397     1.0  0.89058  0.62356  0.56924  1.0000
  C   C1171     1.0  0.73653  0.67742  0.74495  1.0000
  H   H1398     1.0  0.72714  0.66503  0.73507  1.0000
  H   H1399     1.0  0.72713  0.67908  0.76149  1.0000
  H   H1400     1.0  0.73516  0.69379  0.73572  1.0000
  N   N79       1.0  0.60952  0.65760  0.71711  1.0000
  C   C1172     1.0  0.63241  0.66478  0.72374  1.0000
  C   C1173     1.0  0.61028  0.65471  0.69203  1.0000
  C   C1174     1.0  0.59279  0.67591  0.72234  1.0000
  C   C1175     1.0  0.60329  0.63694  0.73004  1.0000
  C   C1176     1.0  0.60251  0.63688  0.75422  1.0000
  C   C1177     1.0  0.59819  0.61643  0.71934  1.0000
  C   C1178     1.0  0.59760  0.61738  0.76685  1.0000
  C   C1179     1.0  0.59313  0.59708  0.73219  1.0000
  C   C1180     1.0  0.59305  0.59750  0.75585  1.0000
  H   H1401     1.0  0.64540  0.65133  0.72036  1.0000
  H   H1402     1.0  0.63783  0.68007  0.71410  1.0000
  H   H1403     1.0  0.63325  0.66895  0.74201  1.0000
  H   H1404     1.0  0.62315  0.64167  0.68680  1.0000
  H   H1405     1.0  0.61522  0.67051  0.68286  1.0000
  H   H1406     1.0  0.59337  0.65021  0.68558  1.0000
  H   H1407     1.0  0.59281  0.68072  0.74050  1.0000
  H   H1408     1.0  0.59662  0.69149  0.71224  1.0000
  H   H1409     1.0  0.57523  0.67087  0.71831  1.0000
  H   H1410     1.0  0.60620  0.65181  0.76354  1.0000
  H   H1411     1.0  0.59866  0.61462  0.70111  1.0000
  H   H1412     1.0  0.77927  0.64268  0.76244  1.0000
  C   C1181     1.0  0.73655  0.73936  0.74736  1.0000
  C   C1182     1.0  0.80943  0.57543  0.99136  1.0000
  C   C1183     1.0  0.81174  0.52179  0.51286  1.0000
  C   C1184     1.0  0.80990  0.49928  0.52078  1.0000
  H   H1413     1.0  0.69286  0.67581  0.51978  1.0000
  H   H1414     1.0  0.90058  0.71884  0.50654  1.0000
  H   H1415     1.0  0.72391  0.50005  0.91256  1.0000
  H   H1416     1.0  0.75205  0.64849  0.77607  1.0000
  H   H1417     1.0  0.68623  0.56226  0.93591  1.0000
  C   C1185     1.0  0.77073  0.66729  0.72426  1.0000
  H   H1418     1.0  0.80695  0.53552  0.52395  1.0000
  H   H1419     1.0  0.59011  0.58215  0.76561  1.0000
  C   C1186     1.0  0.73659  0.69098  0.55316  1.0000
  H   H1420     1.0  0.65960  0.56096  0.90534  1.0000
  H   H1421     1.0  0.75317  0.63503  0.74933  1.0000
  H   H1422     1.0  0.81613  0.72500  0.75810  1.0000
  H   H1423     1.0  0.71670  0.65058  0.50243  1.0000
  C   C1187     1.0  0.76139  0.64824  0.75939  1.0000
  H   H1424     1.0  0.78891  0.66180  0.72479  1.0000
  N   N80       1.0  0.76067  0.67042  0.74749  1.0000
  H   H1425     1.0  0.76936  0.68305  0.71378  1.0000
  C   C1188     1.0  0.87491  0.54280  0.50745  1.0000
  C   C1189     1.0  0.68926  0.68708  0.55382  1.0000
  C   C1190     1.0  0.72415  0.56373  0.89064  1.0000
  C   C1191     1.0  0.85997  0.73282  0.91906  1.0000
  H   H1426     1.0  0.58405  0.73453  0.68459  1.0000
  C   C1192     1.0  0.90264  0.59869  0.51854  1.0000
  C   C1193     1.0  0.76520  0.69181  0.78363  1.0000
  C   C1194     1.0  0.70836  0.56275  0.87332  1.0000
  C   C1195     1.0  0.66667  0.50747  0.91928  1.0000
  H   H1427     1.0  0.71406  0.56186  0.85566  1.0000
  H   H1428     1.0  0.92064  0.54586  0.51206  1.0000
  C   C1196     1.0  0.68516  0.56214  0.87865  1.0000
  H   H1429     1.0  0.76174  0.65419  0.71481  1.0000
  H   H1430     1.0  0.67300  0.56059  0.86521  1.0000
  H   H1431     1.0  0.75074  0.68342  0.79137  1.0000
  S   S318      1.0  0.65745  0.50389  0.78899  1.0000
  H   H1432     1.0  0.87017  0.58801  0.57579  1.0000
  C   C1197     1.0  0.79461  0.71927  0.78757  1.0000
  C   C1198     1.0  0.90266  0.61471  0.53566  1.0000
  H   H1433     1.0  0.69029  0.69806  0.58850  1.0000
  C   C1199     1.0  0.72611  0.68318  0.53329  1.0000
  S   S319      1.0  0.89344  0.72132  0.99497  1.0000
  C   C1200     1.0  0.72362  0.69671  0.57257  1.0000
  H   H1434     1.0  0.82915  0.62900  0.98280  1.0000
  H   H1435     1.0  0.79756  0.69815  0.73469  1.0000
  C   C1201     1.0  0.52620  0.51251  0.79183  1.0000
  H   H1436     1.0  0.73905  0.64172  0.52090  1.0000
  C   C1202     1.0  0.84853  0.73256  0.89834  1.0000
  H   H1437     1.0  0.71345  0.50312  0.87199  1.0000
  C   C1203     1.0  0.70027  0.50416  0.88515  1.0000
  H   H1438     1.0  0.79770  0.60430  0.97202  1.0000
  C   C1204     1.0  0.68957  0.50476  0.92554  1.0000
  C   C1205     1.0  0.81060  0.59781  0.98328  1.0000
  C   C1206     1.0  0.76420  0.67903  0.51445  1.0000
  Fe  Fe162     1.0  0.77156  0.52379  0.99189  1.0000
  C   C1207     1.0  0.50390  0.51843  0.78513  1.0000
  C   C1208     1.0  0.82849  0.74322  0.98390  1.0000
  S   S320      1.0  0.69613  0.50463  0.95511  1.0000
  H   H1439     1.0  0.88157  0.53227  0.52168  1.0000
  H   H1440     1.0  0.97754  0.59903  0.99600  1.0000
  H   H1441     1.0  0.85714  0.54831  0.51191  1.0000
  H   H1442     1.0  0.87593  0.68612  0.50023  1.0000
  H   H1443     1.0  0.91169  0.60274  0.50281  1.0000
  H   H1444     1.0  0.83289  0.73236  0.99877  1.0000
  H   H1445     1.0  0.95037  0.92844  0.29124  1.0000
  H   H1446     1.0  0.99102  0.79292  0.37551  1.0000
  H   H1447     1.0  0.73712  0.78422  0.20884  1.0000
  S   S321      1.0  0.50639  0.77034  0.38323  1.0000
  S   S322      1.0  0.98577  0.94993  0.31727  1.0000
  C   C1209     1.0  0.87931  0.76252  0.09187  1.0000
  H   H1448     1.0  0.54794  0.94701  0.22357  1.0000
  H   H1449     1.0  0.58873  0.91576  0.23580  1.0000
  H   H1450     1.0  0.81856  0.76099  0.02344  1.0000
  S   S323      1.0  0.50072  0.97585  0.21932  1.0000
  Fe  Fe163     1.0  0.72137  0.98519  0.13358  1.0000
  S   S324      1.0  0.74339  0.96346  0.15736  1.0000
  S   S325      1.0  0.69457  0.97620  0.10874  1.0000
  Fe  Fe164     1.0  0.52876  0.78766  0.35670  1.0000
  S   S326      1.0  0.55872  0.77518  0.33416  1.0000
  S   S327      1.0  0.53593  0.81677  0.37915  1.0000
  H   H1451     1.0  0.57351  0.91829  0.20978  1.0000
  S   S328      1.0  0.96391  0.87049  0.24481  1.0000
  S   S329      1.0  0.97179  0.88674  0.31105  1.0000
  Fe  Fe165     1.0  0.80660  0.79357  0.19084  1.0000
  S   S330      1.0  0.80586  0.80415  0.15393  1.0000
  Fe  Fe166     1.0  0.98472  0.87678  0.27632  1.0000
  Fe  Fe167     1.0  0.84254  0.82876  0.20089  1.0000
  S   S331      1.0  0.84409  0.84190  0.16461  1.0000
  S   S332      1.0  0.86080  0.84106  0.23226  1.0000
  Fe  Fe168     1.0  0.80570  0.83990  0.16623  1.0000
  S   S333      1.0  0.77941  0.86178  0.14756  1.0000
  Fe  Fe169     1.0  0.84379  0.80530  0.15473  1.0000
  S   S334      1.0  0.86829  0.78957  0.12826  1.0000
  S   S335      1.0  0.80388  0.82908  0.20313  1.0000
  S   S336      1.0  0.84485  0.79239  0.19094  1.0000
  H   H1452     1.0  0.85736  0.78808  0.00193  1.0000
  H   H1453     1.0  0.75283  0.82662  0.16481  1.0000
  C   C1210     1.0  0.60603  0.76288  0.40256  1.0000
  H   H1454     1.0  0.55549  0.87336  0.32269  1.0000
  S   S337      1.0  0.78438  0.76326  0.19971  1.0000
  C   C1211     1.0  0.88995  0.84782  0.23541  1.0000
  C   C1212     1.0  0.89795  0.85167  0.25736  1.0000
  C   C1213     1.0  0.92066  0.85803  0.26066  1.0000
  C   C1214     1.0  0.93556  0.86102  0.24193  1.0000
  C   C1215     1.0  0.92757  0.85715  0.22000  1.0000
  C   C1216     1.0  0.90498  0.85044  0.21674  1.0000
  H   H1455     1.0  0.88648  0.84974  0.27193  1.0000
  H   H1456     1.0  0.92651  0.86088  0.27763  1.0000
  H   H1457     1.0  0.93891  0.85945  0.20538  1.0000
  H   H1458     1.0  0.89910  0.84768  0.19974  1.0000
  C   C1217     1.0  0.83445  0.75528  0.08018  1.0000
  H   H1459     1.0  0.53330  0.94402  0.25034  1.0000
  H   H1460     1.0  0.71015  0.79737  0.21703  1.0000
  C   C1218     1.0  0.93480  0.78738  0.47333  1.0000
  C   C1219     1.0  0.92132  0.75993  0.44784  1.0000
  C   C1220     1.0  0.99628  0.97723  0.30995  1.0000
  C   C1221     1.0  0.75373  0.93536  0.15389  1.0000
  C   C1222     1.0  0.74649  0.92175  0.13644  1.0000
  C   C1223     1.0  0.75467  0.89936  0.13474  1.0000
  C   C1224     1.0  0.77038  0.89037  0.15026  1.0000
  C   C1225     1.0  0.77782  0.90405  0.16760  1.0000
  C   C1226     1.0  0.76942  0.92636  0.16946  1.0000
  H   H1461     1.0  0.73444  0.92839  0.12434  1.0000
  H   H1462     1.0  0.74883  0.88896  0.12124  1.0000
  H   H1463     1.0  0.78997  0.89741  0.17958  1.0000
  H   H1464     1.0  0.77516  0.93673  0.18303  1.0000
  H   H1465     1.0  0.55732  0.85092  0.28766  1.0000
  N   N81       1.0  0.58540  0.77214  0.41433  1.0000
  H   H1466     1.0  0.91408  0.77939  0.40969  1.0000
  C   C1227     1.0  0.86153  0.77313  0.10443  1.0000
  H   H1467     1.0  0.55627  0.86935  0.25023  1.0000
  H   H1468     1.0  0.86971  0.75133  0.24163  1.0000
  H   H1469     1.0  0.53010  0.91460  0.21140  1.0000
  H   H1470     1.0  0.74179  0.80717  0.23847  1.0000
  H   H1471     1.0  0.53494  0.88748  0.22391  1.0000
  C   C1228     1.0  0.99750  0.80524  0.38688  1.0000
  H   H1472     1.0  0.56387  0.94755  0.24884  1.0000
  H   H1473     1.0  0.96520  0.75978  0.43206  1.0000
  H   H1474     1.0  0.56760  0.77251  0.44704  1.0000
  S   S338      1.0  0.52674  0.99036  0.26496  1.0000
  H   H1475     1.0  0.60179  0.80312  0.42185  1.0000
  H   H1476     1.0  0.91615  0.80799  0.37986  1.0000
  S   S339      1.0  0.52559  0.79770  0.44141  1.0000
  H   H1477     1.0  0.63960  0.96841  0.08985  1.0000
  C   C1229     1.0  0.76265  0.85948  0.24045  1.0000
  C   C1230     1.0  0.93761  0.79552  0.43255  1.0000
  C   C1231     1.0  0.62501  0.99549  0.17459  1.0000
  H   H1478     1.0  0.73321  0.97611  0.00498  1.0000
  H   H1479     1.0  0.58436  0.80471  0.39712  1.0000
  H   H1480     1.0  0.96242  0.81703  0.44815  1.0000
  H   H1481     1.0  0.59780  0.76852  0.44842  1.0000
  C   C1232     1.0  0.66164  0.97125  0.02456  1.0000
  C   C1233     1.0  0.58637  0.99555  0.19185  1.0000
  H   H1482     1.0  0.50052  0.94449  0.31458  1.0000
  C   C1234     1.0  0.54927  0.93931  0.24090  1.0000
  C   C1235     1.0  0.92471  0.79359  0.41256  1.0000
  C   C1236     1.0  0.58270  0.76437  0.43840  1.0000
  Fe  Fe170     1.0  0.51196  0.80073  0.40504  1.0000
  H   H1483     1.0  0.77990  0.99206  0.14315  1.0000
  H   H1484     1.0  0.56511  0.77174  0.38426  1.0000
  H   H1485     1.0  0.94876  0.79856  0.47812  1.0000
  Fe  Fe171     1.0  0.50540  0.83397  0.36385  1.0000
  H   H1486     1.0  0.81699  0.75257  0.07572  1.0000
  C   C1237     1.0  0.64094  0.98127  0.03277  1.0000
  H   H1487     1.0  0.63432  0.95065  0.06606  1.0000
  S   S340      1.0  0.50543  0.87193  0.35578  1.0000
  H   H1488     1.0  0.60246  0.78354  0.37172  1.0000
  H   H1489     1.0  0.80338  0.98817  0.10870  1.0000
  C   C1238     1.0  0.83905  0.76954  0.09837  1.0000
  N   N82       1.0  0.55236  0.91451  0.24012  1.0000
  H   H1490     1.0  0.77123  0.87020  0.25210  1.0000
  C   C1239     1.0  0.53278  0.90557  0.22788  1.0000
  H   H1491     1.0  0.54620  0.79446  0.48518  1.0000
  Fe  Fe172     1.0  0.53083  0.99702  0.22725  1.0000
  H   H1492     1.0  0.71420  0.78437  0.18986  1.0000
  H   H1493     1.0  0.78254  0.78330  0.24512  1.0000
  H   H1494     1.0  0.76022  0.83183  0.26426  1.0000
  S   S341      1.0  0.99370  0.83449  0.35026  1.0000
  C   C1240     1.0  0.75644  0.83787  0.24726  1.0000
  C   C1241     1.0  0.95129  0.81482  0.43403  1.0000
  C   C1242     1.0  0.58585  0.79711  0.41440  1.0000
  H   H1495     1.0  0.93423  0.77404  0.48689  1.0000
  C   C1243     1.0  0.92570  0.80996  0.39520  1.0000
  H   H1496     1.0  0.74056  0.79967  0.16165  1.0000
  H   H1497     1.0  0.92450  0.75010  0.43210  1.0000
  N   N83       1.0  0.63738  0.98578  0.05733  1.0000
  H   H1498     1.0  0.76294  0.80323  0.18136  1.0000
  H   H1499     1.0  0.57632  0.89147  0.22373  1.0000
  N   N84       1.0  0.93852  0.77766  0.45036  1.0000
  H   H1500     1.0  0.74569  0.85962  0.18603  1.0000
  H   H1501     1.0  0.76355  0.88377  0.21300  1.0000
  C   C1244     1.0  0.77240  0.76830  0.24558  1.0000
  H   H1502     1.0  0.91852  0.79719  0.47439  1.0000
  H   H1503     1.0  0.51671  0.90751  0.23824  1.0000
  C   C1245     1.0  0.57363  0.90972  0.22678  1.0000
  C   C1246     1.0  0.55370  0.90363  0.26292  1.0000
  C   C1247     1.0  0.55564  0.87985  0.26505  1.0000
  C   C1248     1.0  0.55313  0.91598  0.28346  1.0000
  C   C1249     1.0  0.55641  0.86912  0.28637  1.0000
  C   C1250     1.0  0.55415  0.90506  0.30467  1.0000
  C   C1251     1.0  0.55557  0.88171  0.30614  1.0000
  C   C1252     1.0  0.50289  0.91230  0.33224  1.0000
  H   H1504     1.0  0.77887  0.99082  0.18233  1.0000
  H   H1505     1.0  0.55127  0.93407  0.28370  1.0000
  H   H1506     1.0  0.94693  0.96647  0.27951  1.0000
  H   H1507     1.0  0.55300  0.91473  0.32015  1.0000
  H   H1508     1.0  0.96263  0.75254  0.46174  1.0000
  N   N85       1.0  0.94001  0.93874  0.25761  1.0000
  C   C1253     1.0  0.96378  0.93688  0.24859  1.0000
  C   C1254     1.0  0.93566  0.96211  0.26529  1.0000
  C   C1255     1.0  0.93820  0.92375  0.27799  1.0000
  C   C1256     1.0  0.92403  0.93314  0.23957  1.0000
  C   C1257     1.0  0.92363  0.94595  0.21899  1.0000
  C   C1258     1.0  0.90869  0.91494  0.24160  1.0000
  C   C1259     1.0  0.90906  0.94070  0.20148  1.0000
  C   C1260     1.0  0.89419  0.90987  0.22401  1.0000
  C   C1261     1.0  0.89443  0.92263  0.20397  1.0000
  H   H1509     1.0  0.96726  0.94876  0.23423  1.0000
  H   H1510     1.0  0.81752  0.78984  0.01511  1.0000
  H   H1511     1.0  0.96764  0.91958  0.24233  1.0000
  H   H1512     1.0  0.93895  0.97475  0.25156  1.0000
  H   H1513     1.0  0.67523  0.96668  0.03588  1.0000
  H   H1514     1.0  0.91770  0.96445  0.27144  1.0000
  H   H1515     1.0  0.94228  0.90595  0.27358  1.0000
  H   H1516     1.0  0.61112  0.99412  0.08249  1.0000
  H   H1517     1.0  0.92090  0.92466  0.28613  1.0000
  H   H1518     1.0  0.93482  0.95998  0.21618  1.0000
  H   H1519     1.0  0.90779  0.90404  0.25642  1.0000
  H   H1520     1.0  0.90927  0.95052  0.18580  1.0000
  H   H1521     1.0  0.88293  0.89564  0.22579  1.0000
  H   H1522     1.0  0.88335  0.91834  0.19030  1.0000
  N   N86       1.0  0.73050  0.81647  0.19279  1.0000
  C   C1262     1.0  0.71051  0.82818  0.18276  1.0000
  C   C1263     1.0  0.74736  0.81129  0.17433  1.0000
  C   C1264     1.0  0.72261  0.79474  0.20268  1.0000
  C   C1265     1.0  0.74111  0.83108  0.20953  1.0000
  C   C1266     1.0  0.74580  0.82380  0.23213  1.0000
  C   C1267     1.0  0.74785  0.85315  0.20315  1.0000
  C   C1268     1.0  0.75830  0.86712  0.21846  1.0000
  H   H1523     1.0  0.71541  0.84316  0.17231  1.0000
  H   H1524     1.0  0.70135  0.81711  0.17113  1.0000
  H   H1525     1.0  0.69824  0.83392  0.19632  1.0000
  H   H1526     1.0  0.82521  0.77774  0.10771  1.0000
  H   H1527     1.0  0.60913  0.99674  0.02065  1.0000
  H   H1528     1.0  0.57124  0.80442  0.42449  1.0000
  C   C1269     1.0  0.72089  0.98944  0.00169  1.0000
  C   C1270     1.0  0.98378  0.99641  0.31719  1.0000
  H   H1529     1.0  0.96307  0.84541  0.41797  1.0000
  C   C1271     1.0  0.51361  0.79959  0.46967  1.0000
  H   H1530     1.0  0.97627  0.94065  0.26189  1.0000
  C   C1272     1.0  0.61349  0.99221  0.06369  1.0000
  H   H1531     1.0  0.94074  0.84091  0.38343  1.0000
  C   C1273     1.0  0.95197  0.83115  0.41669  1.0000
  C   C1274     1.0  0.52815  0.79721  0.48829  1.0000
  S   S342      1.0  0.56863  0.99161  0.21675  1.0000
  H   H1532     1.0  0.50627  0.91968  0.34848  1.0000
  C   C1275     1.0  0.93941  0.82862  0.39721  1.0000
  C   C1276     1.0  0.76059  0.76183  0.26579  1.0000
  C   C1277     1.0  0.81530  0.77256  0.00874  1.0000
  Fe  Fe173     1.0  0.99825  0.91403  0.30843  1.0000
  C   C1278     1.0  0.61250  0.77085  0.38047  1.0000
  H   H1533     1.0  0.66214  0.96169  0.07059  1.0000
  H   H1534     1.0  0.76176  0.77197  0.28081  1.0000
  H   H1535     1.0  0.90374  0.76722  0.44786  1.0000
  C   C1279     1.0  0.61015  0.99301  0.19375  1.0000
  H   H1536     1.0  0.85956  0.75923  0.00977  1.0000
  H   H1537     1.0  0.54910  0.77110  0.41049  1.0000
  H   H1538     1.0  0.89677  0.76521  0.09638  1.0000
  H   H1539     1.0  0.60139  0.97928  0.05836  1.0000
  C   C1280     1.0  0.56516  0.76507  0.40204  1.0000
  C   C1281     1.0  0.59770  0.75156  0.32167  1.0000
  C   C1282     1.0  0.50167  0.88875  0.33071  1.0000
  H   H1540     1.0  0.97505  0.77857  0.45301  1.0000
  C   C1283     1.0  0.64359  0.96572  0.07141  1.0000
  C   C1284     1.0  0.96133  0.76668  0.44924  1.0000
  H   H1541     1.0  0.60014  0.76497  0.30925  1.0000
  C   C1285     1.0  0.57832  0.75210  0.33629  1.0000
  C   C1286     1.0  0.66591  0.96808  0.00133  1.0000
  H   H1542     1.0  0.79714  0.77088  0.00423  1.0000
  H   H1543     1.0  0.61718  0.98901  0.21017  1.0000
  S   S343      1.0  0.71829  0.99299  0.04850  1.0000
  H   H1544     1.0  0.64320  0.99333  0.17639  1.0000
  H   H1545     1.0  0.63571  0.76789  0.35163  1.0000
  H   H1546     1.0  0.96781  0.99428  0.32648  1.0000
  C   C1287     1.0  0.63140  0.76181  0.36866  1.0000
  C   C1288     1.0  0.62504  0.98839  0.01616  1.0000
  C   C1289     1.0  0.77086  0.75545  0.22599  1.0000
  H   H1547     1.0  0.83507  0.76048  0.15006  1.0000
  H   H1548     1.0  0.99882  0.97781  0.37647  1.0000
  H   H1549     1.0  0.89806  0.75147  0.20982  1.0000
  Fe  Fe174     1.0  0.99957  0.86402  0.32501  1.0000
  H   H1550     1.0  0.99934  0.78185  0.41543  1.0000
  H   H1551     1.0  0.88475  0.77417  0.69131  1.0000
  H   H1552     1.0  0.94636  0.83687  0.63581  1.0000
  H   H1553     1.0  0.79231  0.77297  0.75222  1.0000
  H   H1554     1.0  0.95581  0.86066  0.66620  1.0000
  H   H1555     1.0  0.71244  0.78321  0.73920  1.0000
  H   H1556     1.0  0.75366  0.87446  0.79187  1.0000
  Fe  Fe175     1.0  0.71004  0.96955  0.87343  1.0000
  S   S344      1.0  0.67738  0.97913  0.89230  1.0000
  S   S345      1.0  0.71551  0.93155  0.86910  1.0000
  Fe  Fe176     1.0  0.83076  0.80492  0.84423  1.0000
  S   S346      1.0  0.83367  0.78218  0.81412  1.0000
  S   S347      1.0  0.84673  0.79883  0.87893  1.0000
  Fe  Fe177     1.0  0.80907  0.84353  0.81600  1.0000
  S   S348      1.0  0.81165  0.82366  0.78349  1.0000
  S   S349      1.0  0.79612  0.88002  0.81453  1.0000
  Fe  Fe178     1.0  0.79864  0.79496  0.80520  1.0000
  S   S350      1.0  0.76815  0.77365  0.79660  1.0000
  Fe  Fe179     1.0  0.84657  0.81273  0.79482  1.0000
  S   S351      1.0  0.87872  0.80634  0.77299  1.0000
  S   S352      1.0  0.79446  0.81542  0.83727  1.0000
  S   S353      1.0  0.84517  0.83491  0.82527  1.0000
  Fe  Fe180     1.0  0.98237  0.87806  0.71659  1.0000
  S   S354      1.0  0.94860  0.88047  0.73674  1.0000
  S   S355      1.0  0.98393  0.89737  0.68329  1.0000
  S   S356      1.0  0.98690  0.77525  0.50690  1.0000
  H   H1557     1.0  0.57284  0.94952  0.78882  1.0000
  H   H1558     1.0  0.94123  0.86367  0.79788  1.0000
  H   H1559     1.0  0.65404  0.97385  0.96745  1.0000
  H   H1560     1.0  0.59593  0.81687  0.67390  1.0000
  H   H1561     1.0  0.87313  0.83800  0.72254  1.0000
  Fe  Fe181     1.0  0.53720  0.78869  0.61280  1.0000
  C   C1290     1.0  0.72453  0.81090  0.75853  1.0000
  S   S357      1.0  0.52962  0.81995  0.59178  1.0000
  H   H1562     1.0  0.56867  0.83522  0.69595  1.0000
  H   H1563     1.0  0.81133  0.82370  0.91875  1.0000
  H   H1564     1.0  0.73544  0.81613  0.80414  1.0000
  H   H1565     1.0  0.71279  0.80717  0.77246  1.0000
  H   H1566     1.0  0.97124  0.82355  0.66758  1.0000
  C   C1291     1.0  0.82198  0.82085  0.95348  1.0000
  H   H1567     1.0  0.76935  0.84343  0.74109  1.0000
  C   C1292     1.0  0.55990  0.86866  0.70471  1.0000
  C   C1293     1.0  0.56329  0.89713  0.67528  1.0000
  C   C1294     1.0  0.90149  0.83631  0.69853  1.0000
  C   C1295     1.0  0.89857  0.82707  0.76414  1.0000
  C   C1296     1.0  0.91919  0.82036  0.75325  1.0000
  C   C1297     1.0  0.93485  0.83641  0.74492  1.0000
  C   C1298     1.0  0.92994  0.85937  0.74727  1.0000
  C   C1299     1.0  0.90937  0.86603  0.75823  1.0000
  C   C1300     1.0  0.89381  0.85002  0.76670  1.0000
  H   H1568     1.0  0.92295  0.80265  0.75106  1.0000
  H   H1569     1.0  0.95064  0.83103  0.73665  1.0000
  H   H1570     1.0  0.90543  0.88375  0.76017  1.0000
  H   H1571     1.0  0.87801  0.85545  0.77495  1.0000
  H   H1572     1.0  0.90545  0.85356  0.70199  1.0000
  H   H1573     1.0  0.95404  0.79947  0.67083  1.0000
  C   C1301     1.0  0.87687  0.80521  0.70813  1.0000
  H   H1574     1.0  0.74007  0.78856  0.70739  1.0000
  S   S358      1.0  0.51730  0.80107  0.64342  1.0000
  C   C1302     1.0  0.73991  0.79991  0.72168  1.0000
  H   H1575     1.0  0.72261  0.98508  0.96512  1.0000
  C   C1303     1.0  0.73867  0.91767  0.85458  1.0000
  C   C1304     1.0  0.74136  0.89418  0.85701  1.0000
  C   C1305     1.0  0.75915  0.88244  0.84538  1.0000
  C   C1306     1.0  0.77427  0.89403  0.83084  1.0000
  C   C1307     1.0  0.77142  0.91747  0.82826  1.0000
  C   C1308     1.0  0.75387  0.92926  0.84016  1.0000
  H   H1576     1.0  0.72978  0.88505  0.86820  1.0000
  H   H1577     1.0  0.76119  0.86446  0.84773  1.0000
  H   H1578     1.0  0.78297  0.92662  0.81705  1.0000
  H   H1579     1.0  0.75204  0.94729  0.83805  1.0000
  H   H1580     1.0  0.76414  0.82249  0.79684  1.0000
  C   C1309     1.0  0.85232  0.77299  0.89350  1.0000
  H   H1581     1.0  0.74803  0.84080  0.81535  1.0000
  C   C1310     1.0  0.81467  0.81243  0.93302  1.0000
  C   C1311     1.0  0.50631  0.92203  0.67498  1.0000
  S   S359      1.0  0.99257  0.85635  0.63394  1.0000
  C   C1312     1.0  0.50744  0.88467  0.65749  1.0000
  H   H1582     1.0  0.50712  0.94011  0.67314  1.0000
  H   H1583     1.0  0.92500  0.79963  0.87523  1.0000
  C   C1313     1.0  0.75513  0.86301  0.77706  1.0000
  H   H1584     1.0  0.97837  0.84418  0.58942  1.0000
  H   H1585     1.0  0.88101  0.76954  0.84319  1.0000
  H   H1586     1.0  0.90684  0.86606  0.82298  1.0000
  C   C1314     1.0  0.93158  0.83006  0.64586  1.0000
  C   C1315     1.0  0.93554  0.84892  0.80736  1.0000
  C   C1316     1.0  0.86417  0.77323  0.91400  1.0000
  C   C1317     1.0  0.81724  0.77456  0.94858  1.0000
  C   C1318     1.0  0.88272  0.82757  0.71055  1.0000
  H   H1587     1.0  0.86665  0.76792  0.98106  1.0000
  N   N87       1.0  0.58239  0.84119  0.64983  1.0000
  H   H1588     1.0  0.70426  0.83944  0.78956  1.0000
  C   C1319     1.0  0.56680  0.84067  0.63046  1.0000
  C   C1320     1.0  0.60535  0.84742  0.64105  1.0000
  C   C1321     1.0  0.57387  0.85798  0.66651  1.0000
  H   H1589     1.0  0.56075  0.91443  0.66967  1.0000
  H   H1590     1.0  0.96916  0.96918  0.64466  1.0000
  C   C1322     1.0  0.77679  0.76365  0.75099  1.0000
  S   S360      1.0  0.50802  0.76957  0.59871  1.0000
  H   H1591     1.0  0.92952  0.81255  0.64009  1.0000
  H   H1592     1.0  0.76851  0.81854  0.70888  1.0000
  N   N88       1.0  0.83070  0.76744  0.98900  1.0000
  H   H1593     1.0  0.94420  0.85676  0.69429  1.0000
  H   H1594     1.0  0.57182  0.82725  0.61817  1.0000
  H   H1595     1.0  0.56622  0.85673  0.62057  1.0000
  H   H1596     1.0  0.61746  0.84866  0.65518  1.0000
  H   H1597     1.0  0.61242  0.83474  0.62885  1.0000
  H   H1598     1.0  0.60516  0.86379  0.63168  1.0000
  H   H1599     1.0  0.87706  0.75369  0.94246  1.0000
  H   H1600     1.0  0.70983  0.86154  0.76903  1.0000
  C   C1323     1.0  0.74704  0.83024  0.79995  1.0000
  C   C1324     1.0  0.82501  0.78256  0.96963  1.0000
  C   C1325     1.0  0.72428  0.79695  0.73963  1.0000
  N   N89       1.0  0.91106  0.78991  0.84341  1.0000
  C   C1326     1.0  0.76206  0.76168  0.76997  1.0000
  H   H1601     1.0  0.62017  0.75905  0.61159  1.0000
  C   C1327     1.0  0.90859  0.79436  0.86816  1.0000
  C   C1328     1.0  0.91996  0.81000  0.83116  1.0000
  C   C1329     1.0  0.90848  0.83112  0.83326  1.0000
  C   C1330     1.0  0.93954  0.80920  0.81638  1.0000
  C   C1331     1.0  0.91620  0.85023  0.82151  1.0000
  C   C1332     1.0  0.77157  0.75322  0.73042  1.0000
  H   H1602     1.0  0.61767  0.99153  0.98045  1.0000
  C   C1333     1.0  0.94714  0.82846  0.80475  1.0000
  C   C1334     1.0  0.58938  0.75993  0.63237  1.0000
  C   C1335     1.0  0.71489  0.99448  0.97901  1.0000
  H   H1603     1.0  0.96181  0.82750  0.79318  1.0000
  C   C1336     1.0  0.98633  0.96885  0.63741  1.0000
  H   H1604     1.0  0.87005  0.78902  0.92030  1.0000
  H   H1605     1.0  0.83253  0.81355  0.98714  1.0000
  C   C1337     1.0  0.85456  0.77089  0.99565  1.0000
  C   C1338     1.0  0.99172  0.83237  0.59411  1.0000
  H   H1606     1.0  0.55493  0.86397  0.72200  1.0000
  H   H1607     1.0  0.94322  0.77233  0.84691  1.0000
  C   C1339     1.0  0.61220  0.75366  0.62751  1.0000
  H   H1608     1.0  0.55104  0.90360  0.70939  1.0000
  H   H1609     1.0  0.89312  0.83293  0.84366  1.0000
  H   H1610     1.0  0.90268  0.77927  0.87794  1.0000
  H   H1611     1.0  0.86281  0.79840  0.71822  1.0000
  H   H1612     1.0  0.57473  0.88641  0.64256  1.0000
  S   S361      1.0  0.70383  0.99351  0.84412  1.0000
  H   H1613     1.0  0.98755  0.93340  0.63627  1.0000
  H   H1614     1.0  0.54907  0.83750  0.63655  1.0000
  H   H1615     1.0  0.91614  0.83995  0.64101  1.0000
  S   S362      1.0  0.57469  0.77747  0.61259  1.0000
  H   H1616     1.0  0.95832  0.81690  0.69494  1.0000
  Fe  Fe182     1.0  0.53748  0.99473  0.75713  1.0000
  N   N90       1.0  0.93520  0.83120  0.67068  1.0000
  C   C1340     1.0  0.56780  0.85226  0.68945  1.0000
  H   H1617     1.0  0.59115  0.80592  0.64652  1.0000
  H   H1618     1.0  0.89563  0.80772  0.87203  1.0000
  N   N91       1.0  0.64884  0.93635  0.83753  1.0000
  C   C1341     1.0  0.64562  0.93993  0.86237  1.0000
  C   C1342     1.0  0.65800  0.91314  0.83451  1.0000
  C   C1343     1.0  0.66618  0.95238  0.82899  1.0000
  C   C1344     1.0  0.62769  0.93962  0.82461  1.0000
  C   C1345     1.0  0.60652  0.94627  0.83502  1.0000
  C   C1346     1.0  0.62796  0.93650  0.80069  1.0000
  C   C1347     1.0  0.58695  0.94931  0.82221  1.0000
  C   C1348     1.0  0.60833  0.93988  0.78804  1.0000
  C   C1349     1.0  0.58786  0.94622  0.79879  1.0000
  H   H1619     1.0  0.63304  0.92818  0.87013  1.0000
  H   H1620     1.0  0.66183  0.93709  0.87155  1.0000
  H   H1621     1.0  0.63995  0.95754  0.86599  1.0000
  H   H1622     1.0  0.64517  0.90052  0.84002  1.0000
  H   H1623     1.0  0.67357  0.91006  0.84471  1.0000
  H   H1624     1.0  0.66314  0.90974  0.81657  1.0000
  H   H1625     1.0  0.65998  0.97003  0.83107  1.0000
  H   H1626     1.0  0.68231  0.95037  0.83839  1.0000
  H   H1627     1.0  0.67075  0.95015  0.81073  1.0000
  H   H1628     1.0  0.60472  0.94989  0.85292  1.0000
  H   H1629     1.0  0.64348  0.93192  0.79152  1.0000
  H   H1630     1.0  0.57114  0.95501  0.83036  1.0000
  H   H1631     1.0  0.60903  0.93815  0.76970  1.0000
  C   C1350     1.0  0.90804  0.80019  0.68081  1.0000
  C   C1351     1.0  0.71647  0.85269  0.78438  1.0000
  H   H1632     1.0  0.99044  0.81406  0.56254  1.0000
  C   C1352     1.0  0.91490  0.82275  0.68337  1.0000
  H   H1633     1.0  0.50391  0.85694  0.68110  1.0000
  C   C1353     1.0  0.57120  0.88091  0.65988  1.0000
  C   C1354     1.0  0.99724  0.94830  0.63257  1.0000
  N   N92       1.0  0.73980  0.84352  0.77980  1.0000
  H   H1634     1.0  0.71613  0.86487  0.79861  1.0000
  C   C1355     1.0  0.75594  0.81678  0.72260  1.0000
  C   C1356     1.0  0.75618  0.83103  0.74130  1.0000
  S   S363      1.0  0.52793  0.99149  0.72027  1.0000
  H   H1635     1.0  0.87593  0.79859  0.83764  1.0000
  H   H1636     1.0  0.75117  0.87330  0.76167  1.0000
  C   C1357     1.0  0.95549  0.81714  0.67627  1.0000
  H   H1637     1.0  0.92637  0.86663  0.67142  1.0000
  C   C1358     1.0  0.74012  0.82875  0.75972  1.0000
  H   H1638     1.0  0.56722  0.81145  0.66484  1.0000
  H   H1639     1.0  0.77339  0.85765  0.77613  1.0000
  C   C1359     1.0  0.58419  0.81796  0.65939  1.0000
  H   H1640     1.0  0.91883  0.75492  0.85061  1.0000
  H   H1641     1.0  0.98421  0.96408  0.69656  1.0000
  C   C1360     1.0  0.84470  0.75250  0.88562  1.0000
  C   C1361     1.0  0.88938  0.79158  0.69314  1.0000
  C   C1362     1.0  0.88841  0.78468  0.83465  1.0000
  H   H1642     1.0  0.82396  0.83881  0.95521  1.0000
  C   C1363     1.0  0.65012  0.97542  0.98550  1.0000
  H   H1643     1.0  0.53103  0.79658  0.52502  1.0000
  C   C1364     1.0  0.55775  0.89104  0.69767  1.0000
  H   H1644     1.0  0.91725  0.78895  0.66944  1.0000
  S   S364      1.0  0.51419  0.96733  0.76962  1.0000
  C   C1365     1.0  0.50258  0.91236  0.69659  1.0000
  C   C1366     1.0  0.94050  0.85483  0.67595  1.0000
  C   C1367     1.0  0.51960  0.79843  0.51098  1.0000
  C   C1368     1.0  0.81205  0.78939  0.93069  1.0000
  C   C1369     1.0  0.92579  0.76951  0.84072  1.0000
  H   H1645     1.0  0.92697  0.76416  0.82265  1.0000
  S   S365      1.0  0.73028  0.99394  0.89340  1.0000
  C   C1370     1.0  0.82697  0.80621  0.97160  1.0000
  C   C1371     1.0  0.99770  0.98896  0.63387  1.0000
  H   H1646     1.0  0.88930  0.78184  0.81595  1.0000
  C   C1372     1.0  0.86798  0.75327  0.92673  1.0000
  H   H1647     1.0  0.78318  0.75469  0.71590  1.0000
  H   H1648     1.0  0.80679  0.78294  0.91453  1.0000
  C   C1373     1.0  0.50856  0.90828  0.65561  1.0000
  H   H1649     1.0  0.94911  0.79388  0.81318  1.0000
  C   C1374     1.0  0.62971  0.98549  0.99290  1.0000
  C   C1375     1.0  0.99529  0.97795  0.69244  1.0000
  H   H1650     1.0  0.81558  0.75689  0.94518  1.0000
  H   H1651     1.0  0.56181  0.75762  0.65707  1.0000
  C   C1376     1.0  0.57932  0.75291  0.65306  1.0000
  H   H1652     1.0  0.83553  0.75204  0.86993  1.0000
  H   H1653     1.0  0.99550  0.98878  0.74145  1.0000
  H   H1654     1.0  0.68205  0.96077  0.99550  1.0000
  S   S366      1.0  0.50969  0.86836  0.63219  1.0000
  H   H1655     1.0  0.51106  0.91602  0.63898  1.0000
  S   S367      1.0  0.57582  0.99847  0.76278  1.0000
  Fe  Fe183     1.0  0.50309  0.96534  0.73306  1.0000
  C   C1377     1.0  0.50429  0.87499  0.67917  1.0000
  Fe  Fe184     1.0  0.50784  0.83120  0.62189  1.0000
  H   H1656     1.0  0.62405  0.99769  0.76991  1.0000
  S   S368      1.0  0.99967  0.84729  0.70205  1.0000
  C   C1378     1.0  0.99854  0.81527  0.57877  1.0000
  C   C1379     1.0  0.50157  0.88874  0.69848  1.0000
  C   C1380     1.0  0.74193  0.74950  0.76801  1.0000
