data_image0
_chemical_formula_structural       FeSHFeS2FeSFeS3FeS2FeS2FeSFeS3FeS2FeS2FeSFeS3C3H2C3H2CHCH2C6H5C3HCH4C3HC6H6C2H4C2H2NC9H14NHCH2NH2CH4CH2C2HC2HCHNC4H3C3H8CHCH2NC6HCHC3H2CHCH4CH6C2HCH2C2HSCNCH2CH2C3H2C4HNHC2HCH3SH6CHC2H2CHC2H4C2H3CHCFeS2FeS2FeSFeCS2FeS2FeS2FeSFeS3FeS2FeS2FeSFeS3C2H3C6H4C6H6C3H5C2H2C3H3C2H2C3H2CHC2NHNC5H11CNC9H14NH2C4H3CH2C2HCHC4H2C3H4CNHCHCHCH3C2H3C2NH7C3H2CHCH6C3HCNH2CH4CH2C2HC3H4CH2CH5CH2C3HCHCHCHCHC4FeSHFeS2FeSFeS3FeS2FeS2FeSFeS3FeS2FeS2FeSFeS3C2H2C3H2C5HCHC2HC6H4C3H2C3H2C6H5C3HCH7CNC5H9C4H3CH3NCH2CNC9H14NC2SH2CHCH3C2H2NH3C2HC4HC2NCH3CHC2H2CH6C2H4CH2CH3CH5CFeS2FeSCFeSFeS3FeS2FeS2FeSFeS3FeS2FeS2FeSFeS3C3H2C3H2C6H4C3H2C6H6C5H3CHC2HC2H2C2H4CNH8C2HC2HCNC5H5NC8H15NC5H7CNC3H3SCH12C2H2C2H2CNC3HC2H7C2HC4HC2H2C2HC3H2CHC2H4CH3CH2CH2C2H4CFeS2FeS2FeSFeS3FeS2FeCHFeSFeHS2C4HC2H4C6H4C3H5CSHCHCHC4H3CHCH3C2NH4CHCHCHCHCH3C4HC3HCNHCH2CNC3H4C2H5SH4CHFeS2FeS2FeSFeS3FeSHFeS2FeSFeHS2H2CHCSC3HC7H6C2HC3H2C2H3C3H2CH2CHCH2NC2H4NC2HC7H5CH7C3HCH2CH2NC2HCHCH9SH3FeS2FeS2FeSFeHS2FeSHFeS2FeSFeCS2CHCH3CHNCH2C9H4C2H4C2H3NC7HCH12SCH2C2HC2HC2HCH4NC3H4CNH10CHC3HC2HCHCSH3C3HCH3C2H2SC2HCH2C2FeS2FeS2FeSFeHS2FeS2FeSCFeSFeS3HCH3C2HCNHCH2C7H6C3HCHC4HC3HNC8H17SH4C2HC2NH2C3H3CHCHCH2C2HCHC2SH2CHCH3CH2CH2CFeS2FeS2FeSFeS3FeS2FeS2FeSFeS3FeS2FeS2FeSFeS3C2H4C2H2C2H3C6H4CHC2HC4HCHCHC6H5C3H2C3HC3HCNC4H11C3H2C3HC3H4C2H4C2H7NHC2H2C2H11NC2H4NC9H14NC3H8CNC3H2C3H2C2HC2H2C5FeS2FeS2FeSFeS3FeS2FeS2FeSFeS3FeS2FeS2FeSFeS3H3CHC6H4C2H3C10H5C2H3C2H2C2NHC3H2C3H2C4H2CH3NC4HCH12CH3CNC7H3CHC2H5C2HC5HCHCH11CH2C3HCH2C2H2CHCH2NC9H10CHNH3CHC2HCH2C2H2NH2CHCHCHC2H2CHSCH2CH3C2NCH2CHC2FeS2FeS2FeSFeS3FeS2FeS2FeSFeS3FeS2FeS2FeSFeCS2C3HC4HCHCHCH2C6H4C3H2C2H3CHCSC2HCHC6H4C3H2C2HC2HNC9H14CNC9H14NC7HCH12CHCH9CHCHC2NC3HCHCH4CNCH2CH2C2HCHCH2CHCH2CH5C2H2C2HC2HCH2CHCHCHC3HFeS2FeSCFeSFeS3FeS2FeS2FeSFeS3FeS2FeS2FeSFeS3CH4C6H4CHCH2C6H5C5H5C2H2C3H2C3H2CH2CHNC3H2C2HCH2C2H2CH10CH2C2HCHC3H2C3NSCHCNHCHC2HC2HCNH6NC9H14NH2C2H2CH2C4H2C2HC2H3C2NC9H15CH8C3H
_chemical_formula_sum              "Fe128 S256 H1152 C960 N64"
_cell_length_a       59.9168
_cell_length_b       59.9671
_cell_length_c       47.2912
_cell_angle_alpha    89.4177
_cell_angle_beta     89.4162
_cell_angle_gamma    87.1658

_space_group_name_H-M_alt    "P 1"
_space_group_IT_number       1

loop_
  _space_group_symop_operation_xyz
  'x, y, z'

loop_
  _atom_site_type_symbol
  _atom_site_label
  _atom_site_symmetry_multiplicity
  _atom_site_fract_x
  _atom_site_fract_y
  _atom_site_fract_z
  _atom_site_occupancy
  Fe  Fe1       1.0  0.28056  0.10654  0.33801  1.0000
  S   S1        1.0  0.25792  0.08523  0.31371  1.0000
  H   H1        1.0  0.30441  0.30862  0.19250  1.0000
  Fe  Fe2       1.0  0.25638  0.09603  0.39545  1.0000
  S   S2        1.0  0.23236  0.07422  0.37359  1.0000
  S   S3        1.0  0.24660  0.10490  0.44126  1.0000
  Fe  Fe3       1.0  0.26236  0.05995  0.34947  1.0000
  S   S4        1.0  0.27494  0.02357  0.34085  1.0000
  Fe  Fe4       1.0  0.23033  0.10152  0.34036  1.0000
  S   S5        1.0  0.19759  0.11600  0.32193  1.0000
  S   S6        1.0  0.28670  0.08076  0.37289  1.0000
  S   S7        1.0  0.25270  0.12384  0.36303  1.0000
  Fe  Fe5       1.0  0.07250  0.24620  0.33662  1.0000
  S   S8        1.0  0.07677  0.28205  0.34819  1.0000
  S   S9        1.0  0.03897  0.23277  0.32234  1.0000
  Fe  Fe6       1.0  0.12235  0.23318  0.34643  1.0000
  S   S10       1.0  0.12865  0.26819  0.35990  1.0000
  S   S11       1.0  0.15637  0.21396  0.34792  1.0000
  Fe  Fe7       1.0  0.09675  0.26731  0.38485  1.0000
  S   S12       1.0  0.09239  0.28302  0.42867  1.0000
  Fe  Fe8       1.0  0.10873  0.27973  0.32202  1.0000
  S   S13       1.0  0.12430  0.30852  0.29690  1.0000
  S   S14       1.0  0.09147  0.23152  0.37425  1.0000
  S   S15       1.0  0.10327  0.24479  0.30763  1.0000
  Fe  Fe9       1.0  0.19519  0.36901  0.08641  1.0000
  S   S16       1.0  0.22834  0.38250  0.09561  1.0000
  S   S17       1.0  0.18015  0.37589  0.04263  1.0000
  Fe  Fe10      1.0  0.18933  0.35289  0.14847  1.0000
  S   S18       1.0  0.22251  0.36617  0.16122  1.0000
  S   S19       1.0  0.16729  0.32925  0.17447  1.0000
  Fe  Fe11      1.0  0.21270  0.39711  0.13503  1.0000
  S   S20       1.0  0.22617  0.43208  0.14255  1.0000
  Fe  Fe12      1.0  0.23572  0.35103  0.12062  1.0000
  S   S21       1.0  0.27081  0.33610  0.11198  1.0000
  S   S22       1.0  0.17859  0.38488  0.12497  1.0000
  S   S23       1.0  0.20344  0.33636  0.10864  1.0000
  C   C1        1.0  0.19257  0.36748  0.00984  1.0000
  C   C2        1.0  0.19664  0.46737  0.06087  1.0000
  C   C3        1.0  0.21140  0.35277  0.00857  1.0000
  H   H2        1.0  0.26105  0.39922  0.16343  1.0000
  H   H3        1.0  0.21899  0.34652  0.02793  1.0000
  C   C4        1.0  0.01023  0.23914  0.33158  1.0000
  C   C5        1.0  0.00360  0.25638  0.35009  1.0000
  C   C6        1.0  0.99344  0.22728  0.31855  1.0000
  H   H4        1.0  0.01615  0.26573  0.36036  1.0000
  H   H5        1.0  0.99822  0.21388  0.30424  1.0000
  C   C7        1.0  0.09812  0.27053  0.46232  1.0000
  H   H6        1.0  0.27575  0.25824  0.09190  1.0000
  C   C8        1.0  0.10469  0.24793  0.46535  1.0000
  H   H7        1.0  0.27782  0.40708  0.13429  1.0000
  H   H8        1.0  0.10663  0.23762  0.44676  1.0000
  C   C9        1.0  0.13559  0.31405  0.26241  1.0000
  C   C10       1.0  0.13333  0.29972  0.23950  1.0000
  C   C11       1.0  0.14297  0.30478  0.21287  1.0000
  C   C12       1.0  0.15512  0.32413  0.20861  1.0000
  C   C13       1.0  0.15730  0.33846  0.23151  1.0000
  C   C14       1.0  0.14751  0.33351  0.25807  1.0000
  H   H9        1.0  0.12406  0.28481  0.24222  1.0000
  H   H10       1.0  0.14107  0.29355  0.19539  1.0000
  H   H11       1.0  0.16647  0.35344  0.22873  1.0000
  H   H12       1.0  0.14933  0.34483  0.27548  1.0000
  H   H13       1.0  0.13679  0.18615  0.40074  1.0000
  C   C15       1.0  0.28012  0.27753  0.15585  1.0000
  C   C16       1.0  0.27019  0.29748  0.14472  1.0000
  C   C17       1.0  0.28212  0.31042  0.12566  1.0000
  H   H14       1.0  0.24416  0.12037  0.24289  1.0000
  C   C18       1.0  0.25244  0.14374  0.28882  1.0000
  H   H15       1.0  0.27093  0.26776  0.17091  1.0000
  H   H16       1.0  0.25348  0.30302  0.15123  1.0000
  H   H17       1.0  0.11878  0.18515  0.44803  1.0000
  H   H18       1.0  0.28500  0.30104  0.00267  1.0000
  C   C19       1.0  0.29425  0.18333  0.21222  1.0000
  C   C20       1.0  0.08136  0.32538  0.23855  1.0000
  C   C21       1.0  0.01672  0.23782  0.47619  1.0000
  H   H19       1.0  0.28892  0.08147  0.45787  1.0000
  C   C22       1.0  0.18645  0.14357  0.32809  1.0000
  C   C23       1.0  0.16388  0.14903  0.32205  1.0000
  C   C24       1.0  0.15429  0.17054  0.32766  1.0000
  C   C25       1.0  0.16731  0.18686  0.33913  1.0000
  C   C26       1.0  0.19001  0.18154  0.34449  1.0000
  C   C27       1.0  0.19953  0.16006  0.33902  1.0000
  H   H20       1.0  0.15361  0.13644  0.31340  1.0000
  H   H21       1.0  0.13680  0.17439  0.32337  1.0000
  H   H22       1.0  0.20023  0.19402  0.35344  1.0000
  H   H23       1.0  0.21694  0.15626  0.34360  1.0000
  H   H24       1.0  0.22499  0.42995  0.07295  1.0000
  H   H25       1.0  0.04569  0.28953  0.21129  1.0000
  C   C28       1.0  0.19389  0.46786  0.14173  1.0000
  C   C29       1.0  0.21658  0.46097  0.14195  1.0000
  H   H26       1.0  0.29820  0.10810  0.26161  1.0000
  H   H27       1.0  0.18136  0.45550  0.14213  1.0000
  H   H28       1.0  0.21293  0.41236  0.04770  1.0000
  H   H29       1.0  0.18063  0.42267  0.02303  1.0000
  C   C30       1.0  0.26372  0.99651  0.34547  1.0000
  C   C31       1.0  0.25914  0.09826  0.47451  1.0000
  H   H30       1.0  0.18162  0.31709  0.98911  1.0000
  H   H31       1.0  0.22997  0.00805  0.35513  1.0000
  N   N1        1.0  0.18684  0.26701  0.29974  1.0000
  C   C32       1.0  0.18187  0.28912  0.31288  1.0000
  C   C33       1.0  0.16555  0.25774  0.29082  1.0000
  C   C34       1.0  0.19656  0.25195  0.32205  1.0000
  C   C35       1.0  0.20160  0.26950  0.27468  1.0000
  C   C36       1.0  0.19490  0.28403  0.25211  1.0000
  C   C37       1.0  0.22256  0.25749  0.27150  1.0000
  C   C38       1.0  0.20826  0.28658  0.22801  1.0000
  C   C39       1.0  0.23587  0.26017  0.24727  1.0000
  C   C40       1.0  0.22874  0.27469  0.22560  1.0000
  H   H32       1.0  0.17281  0.30107  0.29847  1.0000
  H   H33       1.0  0.17082  0.28782  0.33187  1.0000
  H   H34       1.0  0.19745  0.29691  0.31940  1.0000
  H   H35       1.0  0.15595  0.26919  0.27632  1.0000
  H   H36       1.0  0.15432  0.25477  0.30920  1.0000
  H   H37       1.0  0.16852  0.24148  0.27995  1.0000
  H   H38       1.0  0.18521  0.25108  0.34085  1.0000
  H   H39       1.0  0.19900  0.23446  0.31451  1.0000
  H   H40       1.0  0.21265  0.25788  0.32986  1.0000
  H   H41       1.0  0.17913  0.29349  0.25283  1.0000
  H   H42       1.0  0.22900  0.24590  0.28737  1.0000
  H   H43       1.0  0.20254  0.29775  0.21102  1.0000
  H   H44       1.0  0.25180  0.25088  0.24515  1.0000
  H   H45       1.0  0.23901  0.27666  0.20680  1.0000
  N   N2        1.0  0.24283  0.15290  0.26211  1.0000
  H   H46       1.0  0.16785  0.11975  0.37376  1.0000
  C   C41       1.0  0.30339  0.22567  0.08200  1.0000
  H   H47       1.0  0.23137  0.18333  0.28307  1.0000
  H   H48       1.0  0.21857  0.17862  0.24954  1.0000
  N   N3        1.0  0.19398  0.44337  0.05534  1.0000
  H   H49       1.0  0.12828  0.15399  0.48126  1.0000
  H   H50       1.0  0.25006  0.47261  0.14256  1.0000
  C   C42       1.0  0.05625  0.31279  0.27518  1.0000
  H   H51       1.0  0.15488  0.10065  0.39734  1.0000
  H   H52       1.0  0.18297  0.09495  0.38450  1.0000
  H   H53       1.0  0.23956  0.13593  0.30226  1.0000
  H   H54       1.0  0.01942  0.25081  0.26737  1.0000
  C   C43       1.0  0.29417  0.25868  0.05139  1.0000
  H   H55       1.0  0.30778  0.41611  0.16917  1.0000
  H   H56       1.0  0.00404  0.27882  0.29890  1.0000
  C   C44       1.0  0.28919  0.36396  0.18069  1.0000
  C   C45       1.0  0.28920  0.19072  0.23946  1.0000
  H   H57       1.0  0.09549  0.33499  0.23222  1.0000
  C   C46       1.0  0.26746  0.29853  0.04230  1.0000
  C   C47       1.0  0.26661  0.34738  0.21840  1.0000
  H   H58       1.0  0.29007  0.40729  0.19723  1.0000
  C   C48       1.0  0.07094  0.31236  0.21891  1.0000
  H   H59       1.0  0.26956  0.18686  0.27669  1.0000
  N   N4        1.0  0.02602  0.28586  0.26378  1.0000
  C   C49       1.0  0.03256  0.26194  0.25951  1.0000
  C   C50       1.0  0.01890  0.28861  0.29378  1.0000
  C   C51       1.0  0.00628  0.29191  0.24606  1.0000
  C   C52       1.0  0.04494  0.29962  0.25556  1.0000
  H   H60       1.0  0.21079  0.16302  0.28042  1.0000
  H   H61       1.0  0.28778  0.21946  0.02837  1.0000
  H   H62       1.0  0.19818  0.09042  0.43141  1.0000
  C   C53       1.0  0.05301  0.29962  0.22719  1.0000
  C   C54       1.0  0.23189  0.13436  0.24795  1.0000
  C   C55       1.0  0.26496  0.28615  0.06709  1.0000
  H   H63       1.0  0.99150  0.28242  0.25260  1.0000
  H   H64       1.0  0.03571  0.25785  0.23694  1.0000
  H   H65       1.0  0.01408  0.30631  0.29871  1.0000
  H   H66       1.0  0.03224  0.28242  0.30859  1.0000
  H   H67       1.0  0.25313  0.34904  0.23383  1.0000
  H   H68       1.0  0.00925  0.28817  0.22335  1.0000
  H   H69       1.0  0.29247  0.04294  0.29066  1.0000
  H   H70       1.0  0.00148  0.31003  0.24780  1.0000
  C   C56       1.0  0.24121  0.99359  0.35213  1.0000
  H   H71       1.0  0.28575  0.22071  0.08266  1.0000
  C   C57       1.0  0.30384  0.30299  0.11739  1.0000
  H   H72       1.0  0.25833  0.14207  0.20693  1.0000
  H   H73       1.0  0.17815  0.41563  0.07502  1.0000
  N   N5        1.0  0.17962  0.12012  0.41689  1.0000
  C   C58       1.0  0.17093  0.10838  0.39214  1.0000
  C   C59       1.0  0.20077  0.13035  0.40860  1.0000
  C   C60       1.0  0.18520  0.10302  0.43902  1.0000
  C   C61       1.0  0.16299  0.13775  0.42608  1.0000
  C   C62       1.0  0.15668  0.15565  0.40746  1.0000
  C   C63       1.0  0.15235  0.13765  0.45311  1.0000
  H   H74       1.0  0.15587  0.12463  0.46859  1.0000
  C   C64       1.0  0.18167  0.44063  0.02859  1.0000
  H   H75       1.0  0.08274  0.33517  0.28199  1.0000
  C   C65       1.0  0.30192  0.27022  0.14783  1.0000
  C   C66       1.0  0.02848  0.25312  0.46031  1.0000
  C   C67       1.0  0.29626  0.27170  0.02633  1.0000
  H   H76       1.0  0.21343  0.11757  0.40098  1.0000
  H   H77       1.0  0.20821  0.13894  0.42676  1.0000
  C   C68       1.0  0.30917  0.12163  0.25831  1.0000
  H   H78       1.0  0.19246  0.11064  0.45803  1.0000
  C   C69       1.0  0.30571  0.22268  0.03156  1.0000
  H   H79       1.0  0.17040  0.09359  0.44536  1.0000
  H   H80       1.0  0.16372  0.15665  0.38642  1.0000
  H   H81       1.0  0.05194  0.31331  0.29741  1.0000
  H   H82       1.0  0.07704  0.31195  0.19724  1.0000
  C   C70       1.0  0.13101  0.17204  0.44206  1.0000
  H   H83       1.0  0.26585  0.13074  0.28443  1.0000
  H   H84       1.0  0.25997  0.15659  0.30198  1.0000
  H   H85       1.0  0.19028  0.43432  0.09914  1.0000
  H   H86       1.0  0.21884  0.12707  0.26179  1.0000
  H   H87       1.0  0.02868  0.25237  0.43738  1.0000
  H   H88       1.0  0.19864  0.14265  0.39117  1.0000
  C   C71       1.0  0.27996  0.08678  0.47680  1.0000
  C   C72       1.0  0.26620  0.15571  0.21687  1.0000
  H   H89       1.0  0.26257  0.38128  0.20505  1.0000
  C   C73       1.0  0.26055  0.16293  0.24474  1.0000
  H   H90       1.0  0.00762  0.22527  0.46542  1.0000
  H   H91       1.0  0.16410  0.44737  0.02991  1.0000
  C   C74       1.0  0.13651  0.15455  0.46078  1.0000
  C   C75       1.0  0.27261  0.18074  0.25554  1.0000
  H   H92       1.0  0.19006  0.44907  0.01062  1.0000
  S   S24       1.0  0.30664  0.12852  0.31695  1.0000
  C   C76       1.0  0.18112  0.43351  0.07886  1.0000
  N   N6        1.0  0.29459  0.38367  0.16317  1.0000
  C   C77       1.0  0.27426  0.39279  0.14857  1.0000
  H   H93       1.0  0.25307  0.29211  0.08310  1.0000
  H   H94       1.0  0.30432  0.04401  0.25611  1.0000
  C   C78       1.0  0.21555  0.43018  0.05275  1.0000
  H   H95       1.0  0.16446  0.44210  0.08204  1.0000
  H   H96       1.0  0.04916  0.28129  0.46141  1.0000
  C   C79       1.0  0.22518  0.17026  0.26907  1.0000
  C   C80       1.0  0.30397  0.05244  0.27691  1.0000
  C   C81       1.0  0.31368  0.28292  0.12832  1.0000
  H   H97       1.0  0.29619  0.06949  0.27386  1.0000
  H   H98       1.0  0.22338  0.14015  0.22820  1.0000
  C   C82       1.0  0.28305  0.29130  0.02192  1.0000
  C   C83       1.0  0.28285  0.16584  0.20101  1.0000
  C   C84       1.0  0.14632  0.32505  0.98839  1.0000
  C   C85       1.0  0.30294  0.40121  0.18163  1.0000
  H   H99       1.0  0.23302  0.46610  0.06711  1.0000
  N   N7        1.0  0.30849  0.23809  0.05555  1.0000
  H   H100      1.0  0.04812  0.25712  0.27128  1.0000
  C   C86       1.0  0.14111  0.17258  0.41544  1.0000
  C   C87       1.0  0.27816  0.26659  0.07183  1.0000
  H   H101      1.0  0.22620  0.43677  0.03550  1.0000
  C   C88       1.0  0.07406  0.32555  0.26659  1.0000
  H   H102      1.0  0.25745  0.31390  0.03909  1.0000
  H   H103      1.0  0.14527  0.32824  0.01093  1.0000
  H   H104      1.0  0.26695  0.37977  0.13546  1.0000
  S   S25       1.0  0.31390  0.24570  0.16381  1.0000
  H   H105      1.0  0.28750  0.15971  0.18014  1.0000
  H   H106      1.0  0.29862  0.20391  0.24830  1.0000
  H   H107      1.0  0.30674  0.23557  0.10119  1.0000
  H   H108      1.0  0.30640  0.36552  0.12639  1.0000
  H   H109      1.0  0.30830  0.26689  0.01005  1.0000
  H   H110      1.0  0.30752  0.19072  0.20004  1.0000
  C   C89       1.0  0.27207  0.36573  0.20166  1.0000
  H   H111      1.0  0.27393  0.31262  0.22794  1.0000
  C   C90       1.0  0.03999  0.26943  0.47390  1.0000
  C   C91       1.0  0.27828  0.32689  0.21515  1.0000
  H   H112      1.0  0.09057  0.30118  0.48467  1.0000
  H   H113      1.0  0.16100  0.47681  0.05894  1.0000
  C   C92       1.0  0.31185  0.37863  0.14105  1.0000
  H   H114      1.0  0.31403  0.20995  0.08392  1.0000
  C   C93       1.0  0.29550  0.32468  0.19524  1.0000
  C   C94       1.0  0.30090  0.34283  0.17812  1.0000
  H   H115      1.0  0.31470  0.20621  0.03518  1.0000
  H   H116      1.0  0.31272  0.05123  0.33179  1.0000
  H   H117      1.0  0.31259  0.22913  0.01133  1.0000
  H   H118      1.0  0.31312  0.31284  0.10251  1.0000
  C   C95       1.0  0.23247  0.47757  0.14220  1.0000
  C   C96       1.0  0.21773  0.47635  0.06616  1.0000
  H   H119      1.0  0.31396  0.33962  0.16259  1.0000
  H   H120      1.0  0.31385  0.11517  0.21367  1.0000
  H   H121      1.0  0.31521  0.07906  0.31863  1.0000
  C   C97       1.0  0.09556  0.28366  0.48679  1.0000
  H   H122      1.0  0.31510  0.39355  0.12771  1.0000
  C   C98       1.0  0.31532  0.13442  0.28134  1.0000
  Fe  Fe13      1.0  0.25588  0.06435  0.65500  1.0000
  S   S26       1.0  0.29170  0.06911  0.64254  1.0000
  S   S27       1.0  0.24024  0.03025  0.66123  1.0000
  Fe  Fe14      1.0  0.24265  0.11441  0.64602  1.0000
  S   S28       1.0  0.27760  0.12112  0.63170  1.0000
  S   S29       1.0  0.22340  0.14829  0.64531  1.0000
  Fe  Fe15      1.0  0.27689  0.08977  0.60651  1.0000
  S   S30       1.0  0.29098  0.08383  0.56187  1.0000
  Fe  Fe16      1.0  0.28906  0.10046  0.66930  1.0000
  C   C99       1.0  0.17241  0.16611  0.56784  1.0000
  S   S31       1.0  0.24127  0.08425  0.61803  1.0000
  S   S32       1.0  0.25400  0.09445  0.68438  1.0000
  Fe  Fe17      1.0  0.21006  0.39017  0.83374  1.0000
  S   S33       1.0  0.18583  0.36812  0.85618  1.0000
  S   S34       1.0  0.19881  0.42723  0.82798  1.0000
  Fe  Fe18      1.0  0.24304  0.35012  0.82316  1.0000
  S   S35       1.0  0.22128  0.32583  0.84490  1.0000
  S   S36       1.0  0.27592  0.34195  0.79997  1.0000
  Fe  Fe19      1.0  0.19275  0.34310  0.82112  1.0000
  S   S37       1.0  0.16393  0.32295  0.80396  1.0000
  Fe  Fe20      1.0  0.21600  0.35261  0.87802  1.0000
  S   S38       1.0  0.22082  0.34198  0.92425  1.0000
  S   S39       1.0  0.21485  0.36618  0.79733  1.0000
  S   S40       1.0  0.23986  0.37591  0.85763  1.0000
  Fe  Fe21      1.0  0.10921  0.21798  0.65056  1.0000
  S   S41       1.0  0.13258  0.24070  0.62922  1.0000
  S   S42       1.0  0.12240  0.18354  0.66533  1.0000
  Fe  Fe22      1.0  0.06877  0.25151  0.64304  1.0000
  S   S43       1.0  0.09090  0.27659  0.62195  1.0000
  S   S44       1.0  0.03150  0.26339  0.64162  1.0000
  Fe  Fe23      1.0  0.10549  0.24739  0.59713  1.0000
  S   S45       1.0  0.11221  0.23912  0.55043  1.0000
  Fe  Fe24      1.0  0.11596  0.26754  0.65655  1.0000
  S   S46       1.0  0.14111  0.28954  0.67862  1.0000
  S   S47       1.0  0.08287  0.22279  0.61715  1.0000
  S   S48       1.0  0.09310  0.24436  0.67905  1.0000
  C   C100      1.0  0.00491  0.25122  0.64532  1.0000
  C   C101      1.0  0.00240  0.23011  0.65751  1.0000
  H   H123      1.0  0.02720  0.29234  0.55263  1.0000
  H   H124      1.0  0.01698  0.22034  0.66458  1.0000
  H   H125      1.0  0.04923  0.28340  0.51288  1.0000
  C   C102      1.0  0.15778  0.31406  0.76881  1.0000
  C   C103      1.0  0.13773  0.30337  0.76393  1.0000
  C   C104      1.0  0.13218  0.29596  0.73662  1.0000
  C   C105      1.0  0.14674  0.29895  0.71366  1.0000
  C   C106      1.0  0.16683  0.30952  0.71858  1.0000
  C   C107      1.0  0.17233  0.31701  0.74584  1.0000
  H   H126      1.0  0.12625  0.30099  0.78137  1.0000
  H   H127      1.0  0.11660  0.28803  0.73334  1.0000
  H   H128      1.0  0.17823  0.31207  0.70109  1.0000
  H   H129      1.0  0.18780  0.32516  0.74903  1.0000
  C   C108      1.0  0.19521  0.15725  0.65160  1.0000
  C   C109      1.0  0.18897  0.17977  0.64627  1.0000
  C   C110      1.0  0.16680  0.18792  0.65041  1.0000
  C   C111      1.0  0.15054  0.17368  0.66008  1.0000
  C   C112      1.0  0.15681  0.15120  0.66586  1.0000
  C   C113      1.0  0.17907  0.14296  0.66159  1.0000
  H   H130      1.0  0.20137  0.19094  0.63860  1.0000
  H   H131      1.0  0.16236  0.20525  0.64623  1.0000
  H   H132      1.0  0.14438  0.14004  0.67350  1.0000
  H   H133      1.0  0.18369  0.12560  0.66593  1.0000
  H   H134      1.0  0.29513  0.40641  0.74281  1.0000
  H   H135      1.0  0.26238  0.20792  0.67929  1.0000
  C   C114      1.0  0.14925  0.18668  0.53376  1.0000
  C   C115      1.0  0.29651  0.31965  0.80398  1.0000
  C   C116      1.0  0.29535  0.30224  0.82409  1.0000
  H   H136      1.0  0.11136  0.33222  0.98143  1.0000
  H   H137      1.0  0.29626  0.11033  0.74963  1.0000
  H   H138      1.0  0.28118  0.30192  0.83841  1.0000
  H   H139      1.0  0.25583  0.37855  0.75340  1.0000
  H   H140      1.0  0.30339  0.03822  0.56144  1.0000
  C   C117      1.0  0.01720  0.23807  0.56623  1.0000
  C   C118      1.0  0.21029  0.35328  0.95668  1.0000
  H   H141      1.0  0.24208  0.19458  0.70104  1.0000
  H   H142      1.0  0.18393  0.37430  0.93855  1.0000
  C   C119      1.0  0.26492  0.15484  0.70474  1.0000
  C   C120      1.0  0.09952  0.27437  0.51396  1.0000
  C   C121      1.0  0.10617  0.25179  0.51695  1.0000
  H   H143      1.0  0.98592  0.25300  0.71107  1.0000
  H   H144      1.0  0.09784  0.28480  0.53245  1.0000
  H   H145      1.0  0.18518  0.31101  0.93884  1.0000
  C   C122      1.0  0.25718  0.10065  0.52631  1.0000
  C   C123      1.0  0.27816  0.08951  0.52858  1.0000
  H   H146      1.0  0.25920  0.14730  0.68484  1.0000
  H   H147      1.0  0.24836  0.10609  0.54525  1.0000
  C   C124      1.0  0.25640  0.19150  0.68622  1.0000
  C   C125      1.0  0.23348  0.45675  0.83262  1.0000
  C   C126      1.0  0.21063  0.45405  0.82883  1.0000
  H   H148      1.0  0.26280  0.04668  0.54698  1.0000
  H   H149      1.0  0.24454  0.44230  0.83624  1.0000
  C   C127      1.0  0.25981  0.40519  0.79906  1.0000
  H   H150      1.0  0.31175  0.01024  0.57187  1.0000
  C   C128      1.0  0.25088  0.00179  0.66013  1.0000
  C   C129      1.0  0.25199  0.39684  0.75049  1.0000
  N   N8        1.0  0.27424  0.17704  0.69955  1.0000
  H   H151      1.0  0.28559  0.00862  0.66428  1.0000
  N   N9        1.0  0.15096  0.31544  0.89799  1.0000
  C   C130      1.0  0.14190  0.33613  0.88383  1.0000
  C   C131      1.0  0.17409  0.31097  0.88715  1.0000
  C   C132      1.0  0.13757  0.29654  0.88945  1.0000
  C   C133      1.0  0.14964  0.31810  0.92911  1.0000
  C   C134      1.0  0.12886  0.32388  0.94251  1.0000
  H   H152      1.0  0.29589  0.44422  0.75920  1.0000
  H   H153      1.0  0.15019  0.35102  0.89179  1.0000
  H   H154      1.0  0.14450  0.33560  0.86043  1.0000
  H   H155      1.0  0.12364  0.33904  0.88724  1.0000
  H   H156      1.0  0.18500  0.32475  0.89259  1.0000
  H   H157      1.0  0.17462  0.30951  0.86366  1.0000
  H   H158      1.0  0.18174  0.29506  0.89572  1.0000
  H   H159      1.0  0.11958  0.29929  0.89497  1.0000
  H   H160      1.0  0.13852  0.29394  0.86611  1.0000
  H   H161      1.0  0.14368  0.28073  0.89998  1.0000
  H   H162      1.0  0.11367  0.32597  0.93044  1.0000
  C   C135      1.0  0.01820  0.27779  0.56077  1.0000
  N   N10       1.0  0.16965  0.22805  0.72547  1.0000
  C   C136      1.0  0.15909  0.20631  0.72231  1.0000
  C   C137      1.0  0.15470  0.24225  0.74376  1.0000
  C   C138      1.0  0.17079  0.23858  0.69700  1.0000
  C   C139      1.0  0.19229  0.22606  0.73784  1.0000
  C   C140      1.0  0.20272  0.20526  0.74642  1.0000
  C   C141      1.0  0.20456  0.24544  0.74192  1.0000
  C   C142      1.0  0.22396  0.20416  0.75856  1.0000
  C   C143      1.0  0.22578  0.24412  0.75404  1.0000
  C   C144      1.0  0.23544  0.22353  0.76240  1.0000
  H   H163      1.0  0.15649  0.19791  0.74308  1.0000
  H   H164      1.0  0.14229  0.20838  0.71237  1.0000
  H   H165      1.0  0.16925  0.19480  0.70844  1.0000
  H   H166      1.0  0.15325  0.23493  0.76538  1.0000
  H   H167      1.0  0.13757  0.24446  0.73482  1.0000
  H   H168      1.0  0.16081  0.25931  0.74615  1.0000
  H   H169      1.0  0.18253  0.22892  0.68283  1.0000
  H   H170      1.0  0.15413  0.23973  0.68670  1.0000
  H   H171      1.0  0.17623  0.25603  0.69769  1.0000
  H   H172      1.0  0.19475  0.18961  0.74420  1.0000
  H   H173      1.0  0.19770  0.26186  0.73603  1.0000
  H   H174      1.0  0.23152  0.18820  0.76532  1.0000
  H   H175      1.0  0.23468  0.25922  0.75728  1.0000
  H   H176      1.0  0.25178  0.22263  0.77212  1.0000
  N   N11       1.0  0.02897  0.25623  0.55161  1.0000
  H   H177      1.0  0.17224  0.20514  0.59400  1.0000
  H   H178      1.0  0.99901  0.23889  0.56148  1.0000
  C   C145      1.0  0.05243  0.25492  0.56149  1.0000
  C   C146      1.0  0.27376  0.99122  0.56066  1.0000
  C   C147      1.0  0.19652  0.47331  0.82481  1.0000
  C   C148      1.0  0.16898  0.14816  0.58705  1.0000
  H   H179      1.0  0.01783  0.27917  0.58429  1.0000
  H   H180      1.0  0.25376  0.44014  0.89988  1.0000
  H   H181      1.0  0.13612  0.20020  0.53030  1.0000
  C   C149      1.0  0.27845  0.44961  0.75984  1.0000
  H   H182      1.0  0.01841  0.23925  0.58966  1.0000
  H   H183      1.0  0.16336  0.19069  0.51949  1.0000
  C   C150      1.0  0.16683  0.31877  0.97606  1.0000
  C   C151      1.0  0.31276  0.28524  0.82570  1.0000
  H   H184      1.0  0.30513  0.01680  0.53562  1.0000
  C   C152      1.0  0.21799  0.44013  0.89897  1.0000
  H   H185      1.0  0.05328  0.25510  0.58499  1.0000
  C   C153      1.0  0.12732  0.32742  0.97169  1.0000
  C   C154      1.0  0.27359  0.47261  0.75714  1.0000
  C   C155      1.0  0.16604  0.20613  0.57191  1.0000
  C   C156      1.0  0.16861  0.31533  0.94690  1.0000
  H   H186      1.0  0.30405  0.12604  0.79684  1.0000
  H   H187      1.0  0.29200  0.38423  0.76810  1.0000
  C   C157      1.0  0.98559  0.26358  0.63636  1.0000
  C   C158      1.0  0.19806  0.45300  0.90072  1.0000
  C   C159      1.0  0.03999  0.27042  0.50343  1.0000
  H   H188      1.0  0.31188  0.27195  0.84126  1.0000
  H   H189      1.0  0.28830  0.16444  0.66020  1.0000
  H   H190      1.0  0.22462  0.14775  0.54430  1.0000
  H   H191      1.0  0.00064  0.27967  0.55327  1.0000
  C   C160      1.0  0.29146  0.20903  0.72400  1.0000
  N   N12       1.0  0.26570  0.41026  0.76929  1.0000
  H   H192      1.0  0.26675  0.02536  0.52144  1.0000
  C   C161      1.0  0.28945  0.40266  0.76475  1.0000
  H   H193      1.0  0.24420  0.02410  0.54677  1.0000
  C   C162      1.0  0.26115  0.43444  0.76397  1.0000
  H   H194      1.0  0.29116  0.17828  0.79646  1.0000
  C   C163      1.0  0.19178  0.36843  0.95792  1.0000
  H   H195      1.0  0.25989  0.48000  0.83369  1.0000
  H   H196      1.0  0.22487  0.43351  0.76933  1.0000
  H   H197      1.0  0.29250  0.21800  0.70415  1.0000
  C   C164      1.0  0.30915  0.12219  0.75176  1.0000
  C   C165      1.0  0.23888  0.44375  0.76490  1.0000
  H   H198      1.0  0.14249  0.17076  0.52663  1.0000
  H   H199      1.0  0.99177  0.32331  0.69908  1.0000
  H   H200      1.0  0.12295  0.19740  0.57737  1.0000
  C   C166      1.0  0.20504  0.13059  0.57501  1.0000
  C   C167      1.0  0.28940  0.08250  0.50368  1.0000
  N   N13       1.0  0.15589  0.18506  0.56388  1.0000
  H   H201      1.0  0.12639  0.16770  0.57585  1.0000
  H   H202      1.0  0.21769  0.42237  0.89494  1.0000
  H   H203      1.0  0.30068  0.41036  0.78007  1.0000
  H   H204      1.0  0.15425  0.14743  0.60033  1.0000
  H   H205      1.0  0.18249  0.11747  0.60573  1.0000
  H   H206      1.0  0.24979  0.18361  0.66696  1.0000
  H   H207      1.0  0.29941  0.18996  0.67136  1.0000
  C   C168      1.0  0.13513  0.18306  0.58103  1.0000
  C   C169      1.0  0.18511  0.13069  0.59039  1.0000
  C   C170      1.0  0.23829  0.45022  0.90161  1.0000
  H   H208      1.0  0.28236  0.01595  0.60899  1.0000
  H   H209      1.0  0.30565  0.07389  0.50516  1.0000
  C   C171      1.0  0.28225  0.18765  0.72549  1.0000
  H   H210      1.0  0.26964  0.41498  0.81393  1.0000
  C   C172      1.0  0.28196  0.17702  0.75251  1.0000
  H   H211      1.0  0.00710  0.22630  0.51669  1.0000
  H   H212      1.0  0.19683  0.17854  0.53765  1.0000
  H   H213      1.0  0.25024  0.15588  0.71930  1.0000
  H   H214      1.0  0.21770  0.11732  0.57832  1.0000
  H   H215      1.0  0.30743  0.16430  0.68902  1.0000
  H   H216      1.0  0.27769  0.14264  0.71342  1.0000
  C   C173      1.0  0.27372  0.99578  0.66186  1.0000
  C   C174      1.0  0.19832  0.47600  0.90520  1.0000
  C   C175      1.0  0.30020  0.21891  0.74791  1.0000
  H   H217      1.0  0.26324  0.38724  0.80425  1.0000
  C   C176      1.0  0.24779  0.10507  0.49945  1.0000
  N   N14       1.0  0.27660  0.01546  0.56397  1.0000
  H   H218      1.0  0.13858  0.18299  0.60406  1.0000
  H   H219      1.0  0.06153  0.23942  0.55396  1.0000
  C   C177      1.0  0.23424  0.46672  0.76191  1.0000
  H   H220      1.0  0.18036  0.21018  0.55800  1.0000
  H   H221      1.0  0.30762  0.23502  0.74624  1.0000
  H   H222      1.0  0.00940  0.28543  0.70530  1.0000
  H   H223      1.0  0.11381  0.22120  0.49441  1.0000
  C   C178      1.0  0.19289  0.16537  0.55236  1.0000
  H   H224      1.0  0.23169  0.11396  0.49798  1.0000
  H   H225      1.0  0.25344  0.02075  0.59896  1.0000
  C   C179      1.0  0.29310  0.17391  0.67916  1.0000
  C   C180      1.0  0.27104  0.02379  0.59281  1.0000
  H   H226      1.0  0.23378  0.39931  0.75484  1.0000
  C   C181      1.0  0.02850  0.25489  0.52035  1.0000
  C   C182      1.0  0.30021  0.02033  0.55789  1.0000
  C   C183      1.0  0.26196  0.02835  0.54388  1.0000
  H   H227      1.0  0.26447  0.98324  0.60453  1.0000
  H   H228      1.0  0.25497  0.40112  0.72786  1.0000
  H   H229      1.0  0.15382  0.22070  0.57053  1.0000
  H   H230      1.0  0.18234  0.44509  0.89801  1.0000
  C   C184      1.0  0.20892  0.14784  0.55596  1.0000
  H   H231      1.0  0.21807  0.98897  0.65621  1.0000
  H   H232      1.0  0.06206  0.26924  0.55408  1.0000
  C   C185      1.0  0.01662  0.23861  0.50578  1.0000
  H   H233      1.0  0.02461  0.22132  0.56050  1.0000
  H   H234      1.0  0.27581  0.16056  0.75578  1.0000
  H   H235      1.0  0.16824  0.38662  0.98510  1.0000
  H   H236      1.0  0.27290  0.04213  0.59437  1.0000
  H   H237      1.0  0.17882  0.47152  0.82184  1.0000
  C   C186      1.0  0.10873  0.23867  0.49247  1.0000
  H   H238      1.0  0.24181  0.40906  0.80371  1.0000
  H   H239      1.0  0.98721  0.27997  0.62704  1.0000
  C   C187      1.0  0.30000  0.20785  0.77394  1.0000
  C   C188      1.0  0.29071  0.18709  0.77626  1.0000
  C   C189      1.0  0.23878  0.47329  0.90557  1.0000
  H   H240      1.0  0.28253  0.99058  0.51572  1.0000
  C   C190      1.0  0.23578  0.98463  0.65743  1.0000
  H   H241      1.0  0.25510  0.48001  0.90687  1.0000
  C   C191      1.0  0.24212  0.47825  0.83144  1.0000
  H   H242      1.0  0.21715  0.47347  0.76372  1.0000
  C   C192      1.0  0.31368  0.13111  0.77860  1.0000
  H   H243      1.0  0.30741  0.21518  0.79230  1.0000
  C   C193      1.0  0.22006  0.34559  0.98215  1.0000
  H   H244      1.0  0.23431  0.33379  0.98145  1.0000
  C   C194      1.0  0.18290  0.37536  0.98438  1.0000
  C   C195      1.0  0.99133  0.28787  0.70540  1.0000
  C   C196      1.0  0.31502  0.31977  0.78569  1.0000
  C   C197      1.0  0.27770  0.98094  0.53401  1.0000
  Fe  Fe25      1.0  0.28281  0.85332  0.32741  1.0000
  S   S49       1.0  0.24624  0.86264  0.32142  1.0000
  H   H245      1.0  0.04692  0.67761  0.40457  1.0000
  Fe  Fe26      1.0  0.27778  0.85752  0.39299  1.0000
  S   S50       1.0  0.24122  0.86668  0.39040  1.0000
  S   S51       1.0  0.29613  0.85137  0.43479  1.0000
  Fe  Fe27      1.0  0.23991  0.83928  0.35817  1.0000
  S   S52       1.0  0.22279  0.80606  0.36240  1.0000
  Fe  Fe28      1.0  0.25111  0.88948  0.35419  1.0000
  S   S53       1.0  0.23569  0.92555  0.35293  1.0000
  S   S54       1.0  0.27638  0.82906  0.36260  1.0000
  S   S55       1.0  0.28794  0.88131  0.35834  1.0000
  Fe  Fe29      1.0  0.24205  0.60814  0.14477  1.0000
  S   S56       1.0  0.21777  0.63519  0.12999  1.0000
  S   S57       1.0  0.27677  0.61718  0.15869  1.0000
  Fe  Fe30      1.0  0.20858  0.57112  0.13776  1.0000
  S   S58       1.0  0.18253  0.59670  0.12178  1.0000
  S   S59       1.0  0.19361  0.53632  0.14211  1.0000
  Fe  Fe31      1.0  0.21005  0.61093  0.09575  1.0000
  S   S60       1.0  0.20752  0.62645  0.05150  1.0000
  Fe  Fe32      1.0  0.19245  0.61862  0.15762  1.0000
  S   S61       1.0  0.16425  0.63840  0.18156  1.0000
  S   S62       1.0  0.23568  0.58435  0.10922  1.0000
  S   S63       1.0  0.21728  0.59268  0.17478  1.0000
  Fe  Fe33      1.0  0.06699  0.71256  0.35114  1.0000
  S   S64       1.0  0.08376  0.67917  0.36240  1.0000
  S   S65       1.0  0.02961  0.72347  0.35105  1.0000
  Fe  Fe34      1.0  0.11137  0.73639  0.35807  1.0000
  S   S66       1.0  0.13039  0.70479  0.37113  1.0000
  S   S67       1.0  0.12421  0.77141  0.35258  1.0000
  Fe  Fe35      1.0  0.11281  0.68917  0.33462  1.0000
  S   S68       1.0  0.13692  0.66553  0.30898  1.0000
  Fe  Fe36      1.0  0.10004  0.69740  0.39760  1.0000
  S   S69       1.0  0.09641  0.68151  0.44152  1.0000
  S   S70       1.0  0.09475  0.72139  0.32070  1.0000
  S   S71       1.0  0.08248  0.73016  0.38732  1.0000
  C   C198      1.0  0.99968  0.69378  0.32921  1.0000
  C   C199      1.0  0.00266  0.71372  0.34349  1.0000
  H   H246      1.0  0.24407  0.65316  0.03411  1.0000
  H   H247      1.0  0.01410  0.68392  0.32171  1.0000
  C   C200      1.0  0.27822  0.63523  0.00465  1.0000
  C   C201      1.0  0.10212  0.69407  0.47435  1.0000
  C   C202      1.0  0.11401  0.71350  0.47594  1.0000
  H   H248      1.0  0.12525  0.61749  0.27770  1.0000
  H   H249      1.0  0.11941  0.72162  0.45669  1.0000
  C   C203      1.0  0.26881  0.61683  0.99114  1.0000
  C   C204      1.0  0.20320  0.50746  0.14197  1.0000
  C   C205      1.0  0.14054  0.54703  0.20182  1.0000
  C   C206      1.0  0.22589  0.50059  0.14212  1.0000
  C   C207      1.0  0.20058  0.51350  0.07185  1.0000
  H   H250      1.0  0.23838  0.51301  0.14238  1.0000
  C   C208      1.0  0.20998  0.61289  0.01831  1.0000
  H   H251      1.0  0.01019  0.72044  0.44180  1.0000
  C   C209      1.0  0.21214  0.58965  0.01620  1.0000
  C   C210      1.0  0.29196  0.67390  0.11540  1.0000
  H   H252      1.0  0.21227  0.57945  0.03520  1.0000
  C   C211      1.0  0.15782  0.64694  0.21703  1.0000
  C   C212      1.0  0.17130  0.64054  0.24003  1.0000
  C   C213      1.0  0.16480  0.64676  0.26782  1.0000
  C   C214      1.0  0.14495  0.65975  0.27312  1.0000
  C   C215      1.0  0.13175  0.66660  0.25006  1.0000
  C   C216      1.0  0.13811  0.66014  0.22231  1.0000
  H   H253      1.0  0.18652  0.63047  0.23648  1.0000
  H   H254      1.0  0.17513  0.64125  0.28542  1.0000
  H   H255      1.0  0.11631  0.67634  0.25364  1.0000
  H   H256      1.0  0.12747  0.66516  0.20477  1.0000
  C   C217      1.0  0.24724  0.95261  0.35051  1.0000
  C   C218      1.0  0.26982  0.95554  0.34419  1.0000
  C   C219      1.0  0.23307  0.97185  0.35445  1.0000
  H   H257      1.0  0.28098  0.94104  0.34097  1.0000
  H   H258      1.0  0.21558  0.96991  0.35925  1.0000
  C   C220      1.0  0.28352  0.85482  0.46894  1.0000
  C   C221      1.0  0.21955  0.49911  0.07137  1.0000
  C   C222      1.0  0.26123  0.86252  0.47233  1.0000
  H   H259      1.0  0.30428  0.66112  0.03992  1.0000
  H   H260      1.0  0.25170  0.86805  0.45405  1.0000
  C   C223      1.0  0.15163  0.78082  0.35640  1.0000
  C   C224      1.0  0.15525  0.80364  0.35227  1.0000
  C   C225      1.0  0.17684  0.81182  0.35432  1.0000
  C   C226      1.0  0.19507  0.79714  0.36021  1.0000
  C   C227      1.0  0.19142  0.77434  0.36457  1.0000
  C   C228      1.0  0.16982  0.76622  0.36288  1.0000
  H   H261      1.0  0.14126  0.81508  0.34734  1.0000
  H   H262      1.0  0.17939  0.82940  0.35099  1.0000
  H   H263      1.0  0.20543  0.76285  0.36916  1.0000
  H   H264      1.0  0.16729  0.74869  0.36644  1.0000
  H   H265      1.0  0.14252  0.54062  0.22388  1.0000
  C   C229      1.0  0.27087  0.61803  0.05160  1.0000
  C   C230      1.0  0.29509  0.73372  0.22530  1.0000
  C   C231      1.0  0.29028  0.64114  0.14604  1.0000
  H   H266      1.0  0.03130  0.66303  0.46008  1.0000
  C   C232      1.0  0.99375  0.67984  0.43164  1.0000
  H   H267      1.0  0.27133  0.62044  0.07495  1.0000
  H   H268      1.0  0.26471  0.65150  0.11655  1.0000
  H   H269      1.0  0.28221  0.60333  0.04657  1.0000
  H   H270      1.0  0.26701  0.79162  0.42369  1.0000
  H   H271      1.0  0.26687  0.72262  0.15398  1.0000
  H   H272      1.0  0.28440  0.68462  0.09925  1.0000
  H   H273      1.0  0.00824  0.71593  0.40462  1.0000
  C   C233      1.0  0.20122  0.78680  0.44063  1.0000
  N   N15       1.0  0.14406  0.57132  0.20024  1.0000
  C   C234      1.0  0.14044  0.57912  0.17069  1.0000
  C   C235      1.0  0.16786  0.57447  0.20692  1.0000
  C   C236      1.0  0.12813  0.58348  0.21948  1.0000
  C   C237      1.0  0.13510  0.59620  0.24275  1.0000
  C   C238      1.0  0.10474  0.58270  0.21530  1.0000
  H   H274      1.0  0.14262  0.59744  0.16869  1.0000
  H   H275      1.0  0.12352  0.57590  0.16289  1.0000
  H   H276      1.0  0.15246  0.57051  0.15579  1.0000
  H   H277      1.0  0.17223  0.56807  0.22842  1.0000
  H   H278      1.0  0.17935  0.56526  0.19190  1.0000
  H   H279      1.0  0.17182  0.59242  0.20534  1.0000
  H   H280      1.0  0.15246  0.59792  0.24770  1.0000
  H   H281      1.0  0.09817  0.57324  0.19822  1.0000
  H   H282      1.0  0.25391  0.76799  0.43952  1.0000
  C   C239      1.0  0.23482  0.82223  0.43853  1.0000
  C   C240      1.0  0.27791  0.97728  0.34153  1.0000
  C   C241      1.0  0.31108  0.64627  0.15721  1.0000
  C   C242      1.0  0.17764  0.48250  0.06178  1.0000
  H   H283      1.0  0.26652  0.65640  0.21744  1.0000
  H   H284      1.0  0.02700  0.65618  0.40699  1.0000
  H   H285      1.0  0.25061  0.82977  0.43157  1.0000
  C   C243      1.0  0.31275  0.67906  0.12654  1.0000
  H   H286      1.0  0.20365  0.79099  0.41858  1.0000
  H   H287      1.0  0.12366  0.54294  0.19458  1.0000
  H   H288      1.0  0.08489  0.61603  0.26872  1.0000
  N   N16       1.0  0.29927  0.72395  0.19693  1.0000
  C   C244      1.0  0.01767  0.71074  0.42389  1.0000
  H   H289      1.0  0.26047  0.60403  0.00276  1.0000
  H   H290      1.0  0.02223  0.68025  0.38440  1.0000
  C   C245      1.0  0.25133  0.67387  0.18228  1.0000
  N   N17       1.0  0.15733  0.73779  0.27951  1.0000
  C   C246      1.0  0.13518  0.74913  0.27381  1.0000
  C   C247      1.0  0.16304  0.72309  0.25513  1.0000
  C   C248      1.0  0.15488  0.72367  0.30512  1.0000
  C   C249      1.0  0.17530  0.75345  0.28400  1.0000
  C   C250      1.0  0.17129  0.77703  0.28481  1.0000
  C   C251      1.0  0.19763  0.74518  0.28846  1.0000
  C   C252      1.0  0.18868  0.79127  0.28926  1.0000
  C   C253      1.0  0.21484  0.75958  0.29319  1.0000
  C   C254      1.0  0.28077  0.65510  0.12509  1.0000
  H   H291      1.0  0.13578  0.76017  0.25479  1.0000
  H   H292      1.0  0.12215  0.73693  0.26990  1.0000
  H   H293      1.0  0.12902  0.75923  0.29224  1.0000
  H   H294      1.0  0.16634  0.73311  0.23572  1.0000
  H   H295      1.0  0.14929  0.71187  0.25038  1.0000
  H   H296      1.0  0.17796  0.71178  0.25908  1.0000
  H   H297      1.0  0.15061  0.73409  0.32393  1.0000
  H   H298      1.0  0.14140  0.71180  0.30263  1.0000
  H   H299      1.0  0.17027  0.71332  0.31003  1.0000
  H   H300      1.0  0.15478  0.78494  0.28282  1.0000
  H   H301      1.0  0.20183  0.72745  0.28886  1.0000
  H   H302      1.0  0.24016  0.69415  0.14710  1.0000
  H   H303      1.0  0.16972  0.49585  0.14175  1.0000
  H   H304      1.0  0.23167  0.75294  0.29719  1.0000
  N   N18       1.0  0.01727  0.68636  0.42927  1.0000
  C   C255      1.0  0.03066  0.68122  0.45503  1.0000
  C   C256      1.0  0.02873  0.67454  0.40533  1.0000
  S   S72       1.0  0.30551  0.84837  0.28793  1.0000
  H   H305      1.0  0.16866  0.77477  0.43227  1.0000
  H   H306      1.0  0.25989  0.78664  0.48587  1.0000
  C   C257      1.0  0.11956  0.60763  0.26029  1.0000
  H   H307      1.0  0.03505  0.71615  0.42037  1.0000
  C   C258      1.0  0.98357  0.72631  0.35294  1.0000
  H   H308      1.0  0.04834  0.68595  0.45220  1.0000
  H   H309      1.0  0.29421  0.66650  0.99531  1.0000
  H   H310      1.0  0.30024  0.64397  0.06992  1.0000
  C   C259      1.0  0.29865  0.74263  0.17602  1.0000
  C   C260      1.0  0.17687  0.77184  0.47643  1.0000
  H   H311      1.0  0.22439  0.82152  0.41930  1.0000
  H   H312      1.0  0.23978  0.66091  0.17835  1.0000
  N   N19       1.0  0.27742  0.63827  0.03574  1.0000
  H   H313      1.0  0.20828  0.64391  0.99477  1.0000
  H   H314      1.0  0.23567  0.50556  0.07611  1.0000
  H   H315      1.0  0.29311  0.68499  0.22658  1.0000
  C   C261      1.0  0.26642  0.67138  0.20438  1.0000
  C   C262      1.0  0.28177  0.68773  0.20915  1.0000
  H   H316      1.0  0.16811  0.63784  0.47187  1.0000
  C   C263      1.0  0.25515  0.80283  0.47534  1.0000
  C   C264      1.0  0.18731  0.49087  0.14179  1.0000
  C   C265      1.0  0.18106  0.77755  0.44832  1.0000
  C   C266      1.0  0.21792  0.79060  0.46086  1.0000
  H   H317      1.0  0.02412  0.69074  0.47365  1.0000
  C   C267      1.0  0.09678  0.60683  0.25526  1.0000
  C   C268      1.0  0.25163  0.69261  0.16468  1.0000
  N   N20       1.0  0.23930  0.79999  0.45182  1.0000
  C   C269      1.0  0.08936  0.59430  0.23288  1.0000
  H   H318      1.0  0.25893  0.65912  0.06564  1.0000
  H   H319      1.0  0.29749  0.72113  0.24253  1.0000
  H   H320      1.0  0.18520  0.80916  0.29048  1.0000
  C   C270      1.0  0.26087  0.65668  0.04243  1.0000
  H   H321      1.0  0.31210  0.79989  0.29892  1.0000
  C   C271      1.0  0.28275  0.70695  0.19145  1.0000
  C   C272      1.0  0.21038  0.78259  0.29352  1.0000
  H   H322      1.0  0.27102  0.80987  0.46765  1.0000
  H   H323      1.0  0.15281  0.53735  0.18818  1.0000
  C   C273      1.0  0.26716  0.70890  0.16894  1.0000
  H   H324      1.0  0.25340  0.61387  0.04712  1.0000
  H   H325      1.0  0.24080  0.78361  0.41116  1.0000
  H   H326      1.0  0.20202  0.53099  0.07689  1.0000
  H   H327      1.0  0.28222  0.75210  0.17621  1.0000
  H   H328      1.0  0.22600  0.83397  0.45345  1.0000
  H   H329      1.0  0.22360  0.79374  0.29797  1.0000
  C   C274      1.0  0.25072  0.78511  0.43072  1.0000
  C   C275      1.0  0.29966  0.64407  0.04637  1.0000
  H   H330      1.0  0.07159  0.59374  0.22904  1.0000
  H   H331      1.0  0.27777  0.74119  0.22708  1.0000
  H   H332      1.0  0.98561  0.74182  0.36389  1.0000
  H   H333      1.0  0.98550  0.68771  0.38776  1.0000
  C   C276      1.0  0.20990  0.62591  0.99336  1.0000
  H   H334      1.0  0.30234  0.73647  0.15419  1.0000
  H   H335      1.0  0.16493  0.51641  0.06843  1.0000
  C   C277      1.0  0.17967  0.50520  0.06717  1.0000
  H   H336      1.0  0.26562  0.67286  0.03301  1.0000
  H   H337      1.0  0.14829  0.67292  0.48697  1.0000
  H   H338      1.0  0.99358  0.66998  0.47654  1.0000
  C   C278      1.0  0.98416  0.67194  0.45729  1.0000
  H   H339      1.0  0.30679  0.74717  0.22968  1.0000
  H   H340      1.0  0.31144  0.75495  0.18066  1.0000
  H   H341      1.0  0.16128  0.76447  0.48223  1.0000
  H   H342      1.0  0.29533  0.97917  0.33634  1.0000
  H   H343      1.0  0.31304  0.63196  0.03880  1.0000
  C   C279      1.0  0.21369  0.57957  0.98940  1.0000
  Fe  Fe37      1.0  0.25823  0.85736  0.60289  1.0000
  S   S73       1.0  0.23492  0.88319  0.62348  1.0000
  S   S74       1.0  0.24839  0.85340  0.55630  1.0000
  Fe  Fe38      1.0  0.27806  0.84274  0.66184  1.0000
  S   S75       1.0  0.25567  0.86783  0.68481  1.0000
  C   C280      1.0  0.14009  0.79657  0.59172  1.0000
  Fe  Fe39      1.0  0.22875  0.85644  0.65601  1.0000
  S   S76       1.0  0.19349  0.84973  0.67121  1.0000
  Fe  Fe40      1.0  0.26405  0.89223  0.64981  1.0000
  S   S77       1.0  0.27689  0.92748  0.65643  1.0000
  S   S78       1.0  0.25040  0.83039  0.63464  1.0000
  S   S79       1.0  0.28811  0.86744  0.62778  1.0000
  Fe  Fe41      1.0  0.20528  0.60740  0.82577  1.0000
  S   S80       1.0  0.23576  0.59102  0.80502  1.0000
  S   S81       1.0  0.18046  0.63249  0.80355  1.0000
  Fe  Fe42      1.0  0.21965  0.58996  0.88535  1.0000
  S   S82       1.0  0.25125  0.57385  0.86746  1.0000
  S   S83       1.0  0.21464  0.57869  0.93135  1.0000
  Fe  Fe43      1.0  0.25436  0.60500  0.84149  1.0000
  S   S84       1.0  0.28773  0.61990  0.83105  1.0000
  Fe  Fe44      1.0  0.22993  0.56087  0.83308  1.0000
  S   S85       1.0  0.24024  0.52401  0.82372  1.0000
  S   S86       1.0  0.22433  0.62234  0.86170  1.0000
  S   S87       1.0  0.19791  0.57622  0.85143  1.0000
  Fe  Fe45      1.0  0.11170  0.71414  0.60594  1.0000
  S   S88       1.0  0.08695  0.73749  0.62835  1.0000
  S   S89       1.0  0.12227  0.72187  0.56041  1.0000
  Fe  Fe46      1.0  0.12564  0.68983  0.66196  1.0000
  S   S90       1.0  0.10193  0.71202  0.68745  1.0000
  S   S91       1.0  0.14900  0.66065  0.67768  1.0000
  Fe  Fe47      1.0  0.07647  0.70720  0.65309  1.0000
  S   S92       1.0  0.04230  0.69289  0.66491  1.0000
  Fe  Fe48      1.0  0.11445  0.74015  0.66032  1.0000
  S   S93       1.0  0.12243  0.77373  0.67886  1.0000
  S   S94       1.0  0.09989  0.68357  0.62861  1.0000
  S   S95       1.0  0.13948  0.71830  0.63700  1.0000
  C   C281      1.0  0.00532  0.71950  0.64574  1.0000
  C   C282      1.0  0.01312  0.69961  0.65888  1.0000
  C   C283      1.0  0.99722  0.68444  0.66803  1.0000
  H   H344      1.0  0.01715  0.73148  0.63871  1.0000
  H   H345      1.0  0.00288  0.66899  0.67824  1.0000
  C   C284      1.0  0.22805  0.49748  0.82709  1.0000
  C   C285      1.0  0.17784  0.68615  0.58350  1.0000
  C   C286      1.0  0.20510  0.49485  0.82405  1.0000
  H   H346      1.0  0.16661  0.69901  0.57305  1.0000
  H   H347      1.0  0.19404  0.50936  0.82030  1.0000
  C   C287      1.0  0.17242  0.64010  0.76818  1.0000
  C   C288      1.0  0.15848  0.65944  0.76382  1.0000
  C   C289      1.0  0.15118  0.66599  0.73646  1.0000
  C   C290      1.0  0.15782  0.65331  0.71286  1.0000
  C   C291      1.0  0.17196  0.63409  0.71716  1.0000
  C   C292      1.0  0.17923  0.62753  0.74454  1.0000
  H   H348      1.0  0.15309  0.66938  0.78183  1.0000
  H   H349      1.0  0.14043  0.68086  0.73371  1.0000
  H   H350      1.0  0.17724  0.62408  0.69917  1.0000
  H   H351      1.0  0.18990  0.61260  0.74738  1.0000
  C   C293      1.0  0.26614  0.95589  0.65807  1.0000
  C   C294      1.0  0.24331  0.96190  0.65625  1.0000
  C   C295      1.0  0.09533  0.68367  0.49962  1.0000
  H   H352      1.0  0.23143  0.94904  0.65411  1.0000
  H   H353      1.0  0.26880  0.92670  0.55084  1.0000
  C   C296      1.0  0.17533  0.82709  0.67196  1.0000
  C   C297      1.0  0.15368  0.83177  0.68226  1.0000
  C   C298      1.0  0.13811  0.81514  0.68392  1.0000
  C   C299      1.0  0.14360  0.79339  0.67495  1.0000
  C   C300      1.0  0.16538  0.78834  0.66457  1.0000
  C   C301      1.0  0.18136  0.80514  0.66338  1.0000
  H   H354      1.0  0.14880  0.84848  0.68919  1.0000
  H   H355      1.0  0.12151  0.81927  0.69218  1.0000
  H   H356      1.0  0.16993  0.77152  0.65786  1.0000
  H   H357      1.0  0.19814  0.80114  0.65575  1.0000
  H   H358      1.0  0.14948  0.68473  0.53602  1.0000
  H   H359      1.0  0.20714  0.52086  0.87143  1.0000
  C   C302      1.0  0.28723  0.65752  0.86498  1.0000
  C   C303      1.0  0.29855  0.64469  0.84434  1.0000
  C   C304      1.0  0.16024  0.81693  0.54523  1.0000
  C   C305      1.0  0.27927  0.63078  0.94483  1.0000
  C   C306      1.0  0.26945  0.61472  0.96168  1.0000
  H   H360      1.0  0.27173  0.65201  0.87393  1.0000
  H   H361      1.0  0.21131  0.53319  0.94798  1.0000
  H   H362      1.0  0.21181  0.84695  0.59708  1.0000
  C   C307      1.0  0.26285  0.77526  0.80326  1.0000
  H   H363      1.0  0.25427  0.81159  0.70847  1.0000
  C   C308      1.0  0.09051  0.65618  0.70135  1.0000
  C   C309      1.0  0.29576  0.84842  0.49322  1.0000
  H   H364      1.0  0.30816  0.83322  0.88159  1.0000
  C   C310      1.0  0.11271  0.71168  0.52776  1.0000
  C   C311      1.0  0.26605  0.95409  0.57985  1.0000
  H   H365      1.0  0.10007  0.61262  0.72375  1.0000
  H   H366      1.0  0.09537  0.68414  0.54543  1.0000
  C   C312      1.0  0.21164  0.61583  0.96653  1.0000
  C   C313      1.0  0.21333  0.59257  0.96442  1.0000
  H   H367      1.0  0.17882  0.69144  0.60597  1.0000
  H   H368      1.0  0.21135  0.62605  0.94755  1.0000
  H   H369      1.0  0.30442  0.71357  0.80715  1.0000
  H   H370      1.0  0.09115  0.66771  0.78272  1.0000
  C   C314      1.0  0.26313  0.85588  0.52358  1.0000
  N   N21       1.0  0.22755  0.81491  0.73953  1.0000
  H   H371      1.0  0.22452  0.78745  0.50642  1.0000
  H   H372      1.0  0.08433  0.68757  0.74078  1.0000
  H   H373      1.0  0.19453  0.82416  0.72412  1.0000
  H   H374      1.0  0.19843  0.79553  0.73377  1.0000
  H   H375      1.0  0.27230  0.81332  0.75188  1.0000
  H   H376      1.0  0.16752  0.82394  0.52636  1.0000
  H   H377      1.0  0.27894  0.95045  0.51001  1.0000
  H   H378      1.0  0.05965  0.67614  0.75681  1.0000
  C   C315      1.0  0.05832  0.64072  0.72359  1.0000
  C   C316      1.0  0.15773  0.66273  0.50226  1.0000
  H   H379      1.0  0.19540  0.81699  0.76063  1.0000
  C   C317      1.0  0.23154  0.83886  0.74406  1.0000
  C   C318      1.0  0.24003  0.77295  0.79967  1.0000
  H   H380      1.0  0.22644  0.84410  0.76578  1.0000
  C   C319      1.0  0.16883  0.64295  0.49377  1.0000
  N   N22       1.0  0.07822  0.65384  0.72852  1.0000
  C   C320      1.0  0.27004  0.94455  0.55344  1.0000
  C   C321      1.0  0.19980  0.83386  0.59286  1.0000
  C   C322      1.0  0.31417  0.83054  0.73653  1.0000
  C   C323      1.0  0.15390  0.81437  0.59577  1.0000
  C   C324      1.0  0.10044  0.69249  0.52620  1.0000
  H   H381      1.0  0.09516  0.63992  0.69137  1.0000
  H   H382      1.0  0.26192  0.60070  0.95179  1.0000
  H   H383      1.0  0.23410  0.79055  0.70696  1.0000
  H   H384      1.0  0.23134  0.76136  0.81310  1.0000
  H   H385      1.0  0.21502  0.56158  0.98806  1.0000
  N   N23       1.0  0.24634  0.66959  0.77974  1.0000
  C   C325      1.0  0.26132  0.65026  0.77150  1.0000
  C   C326      1.0  0.23848  0.66606  0.80927  1.0000
  C   C327      1.0  0.22639  0.66975  0.76130  1.0000
  C   C328      1.0  0.25888  0.69026  0.77769  1.0000
  C   C329      1.0  0.25381  0.70756  0.75759  1.0000
  C   C330      1.0  0.27740  0.69316  0.79552  1.0000
  C   C331      1.0  0.26683  0.72630  0.75542  1.0000
  C   C332      1.0  0.29024  0.71195  0.79327  1.0000
  H   H386      1.0  0.18926  0.61433  0.50673  1.0000
  H   H387      1.0  0.27642  0.64853  0.78497  1.0000
  H   H388      1.0  0.25284  0.63419  0.77364  1.0000
  H   H389      1.0  0.26731  0.65193  0.74927  1.0000
  H   H390      1.0  0.22723  0.65185  0.81095  1.0000
  H   H391      1.0  0.22903  0.68113  0.81741  1.0000
  H   H392      1.0  0.25243  0.66186  0.82399  1.0000
  H   H393      1.0  0.23099  0.67085  0.73851  1.0000
  H   H394      1.0  0.21728  0.65406  0.76381  1.0000
  H   H395      1.0  0.21417  0.68369  0.76671  1.0000
  H   H396      1.0  0.24004  0.70692  0.74314  1.0000
  H   H397      1.0  0.28237  0.68070  0.81111  1.0000
  H   H398      1.0  0.26291  0.73924  0.73980  1.0000
  H   H399      1.0  0.22198  0.84988  0.72879  1.0000
  H   H400      1.0  0.12555  0.77510  0.56155  1.0000
  N   N24       1.0  0.16959  0.66330  0.58117  1.0000
  C   C333      1.0  0.18336  0.64841  0.60015  1.0000
  C   C334      1.0  0.14627  0.66351  0.59190  1.0000
  C   C335      1.0  0.17010  0.65625  0.55122  1.0000
  C   C336      1.0  0.18135  0.63616  0.54186  1.0000
  C   C337      1.0  0.15844  0.66934  0.53047  1.0000
  H   H401      1.0  0.20127  0.64769  0.59357  1.0000
  H   H402      1.0  0.18261  0.65434  0.62248  1.0000
  H   H403      1.0  0.17719  0.63120  0.60086  1.0000
  H   H404      1.0  0.13902  0.64691  0.58952  1.0000
  H   H405      1.0  0.14529  0.66785  0.61474  1.0000
  H   H406      1.0  0.13514  0.67595  0.58053  1.0000
  H   H407      1.0  0.19064  0.62504  0.55601  1.0000
  C   C338      1.0  0.25103  0.86268  0.49936  1.0000
  N   N25       1.0  0.21865  0.51126  0.91293  1.0000
  C   C339      1.0  0.24092  0.52077  0.90885  1.0000
  C   C340      1.0  0.20292  0.52402  0.89398  1.0000
  C   C341      1.0  0.21141  0.51513  0.94259  1.0000
  H   H408      1.0  0.19548  0.82649  0.61368  1.0000
  H   H409      1.0  0.15630  0.81957  0.61724  1.0000
  H   H410      1.0  0.13435  0.61139  0.80248  1.0000
  S   S96       1.0  0.29822  0.81455  0.68533  1.0000
  C   C342      1.0  0.20296  0.81264  0.73970  1.0000
  H   H411      1.0  0.18934  0.77125  0.51887  1.0000
  H   H412      1.0  0.13230  0.78863  0.60983  1.0000
  H   H413      1.0  0.18236  0.48504  0.90693  1.0000
  H   H414      1.0  0.22742  0.81836  0.69407  1.0000
  H   H415      1.0  0.24937  0.84271  0.74095  1.0000
  H   H416      1.0  0.08626  0.66854  0.49862  1.0000
  H   H417      1.0  0.18520  0.52030  0.89766  1.0000
  H   H418      1.0  0.22277  0.50595  0.95763  1.0000
  H   H419      1.0  0.11662  0.64797  0.81489  1.0000
  H   H420      1.0  0.19419  0.50965  0.94657  1.0000
  H   H421      1.0  0.30741  0.84684  0.73003  1.0000
  H   H422      1.0  0.05951  0.68508  0.72081  1.0000
  C   C343      1.0  0.11250  0.64034  0.79504  1.0000
  C   C344      1.0  0.11777  0.60988  0.76242  1.0000
  H   H423      1.0  0.24755  0.51761  0.88704  1.0000
  H   H424      1.0  0.19475  0.68716  0.57376  1.0000
  C   C345      1.0  0.27417  0.78988  0.78588  1.0000
  C   C346      1.0  0.28510  0.72839  0.77305  1.0000
  H   H425      1.0  0.04882  0.63816  0.74362  1.0000
  H   H426      1.0  0.20357  0.54233  0.89717  1.0000
  C   C347      1.0  0.07016  0.67660  0.73730  1.0000
  N   N26       1.0  0.17984  0.84324  0.57787  1.0000
  C   C348      1.0  0.18773  0.85431  0.55159  1.0000
  C   C349      1.0  0.16872  0.86082  0.59579  1.0000
  C   C350      1.0  0.16448  0.82510  0.57272  1.0000
  H   H427      1.0  0.20889  0.82069  0.58021  1.0000
  C   C351      1.0  0.28123  0.97304  0.66089  1.0000
  C   C352      1.0  0.29591  0.67768  0.87390  1.0000
  H   H428      1.0  0.24013  0.53922  0.91170  1.0000
  H   H429      1.0  0.19880  0.86821  0.55634  1.0000
  H   H430      1.0  0.17351  0.86160  0.53902  1.0000
  H   H431      1.0  0.19816  0.84262  0.53820  1.0000
  H   H432      1.0  0.17948  0.87527  0.59860  1.0000
  H   H433      1.0  0.15265  0.86718  0.58641  1.0000
  H   H434      1.0  0.16518  0.85485  0.61765  1.0000
  C   C353      1.0  0.14619  0.79922  0.54137  1.0000
  C   C354      1.0  0.18069  0.62974  0.51348  1.0000
  H   H435      1.0  0.10626  0.66484  0.70455  1.0000
  C   C355      1.0  0.26270  0.80243  0.76507  1.0000
  C   C356      1.0  0.22834  0.78553  0.77901  1.0000
  C   C357      1.0  0.25156  0.48115  0.75834  1.0000
  C   C358      1.0  0.13627  0.78896  0.56457  1.0000
  H   H436      1.0  0.12587  0.59390  0.75700  1.0000
  C   C359      1.0  0.19274  0.77564  0.49698  1.0000
  C   C360      1.0  0.09794  0.65157  0.77614  1.0000
  H   H437      1.0  0.06283  0.62400  0.71469  1.0000
  H   H438      1.0  0.29521  0.84360  0.53874  1.0000
  C   C361      1.0  0.10310  0.62084  0.74347  1.0000
  C   C362      1.0  0.28569  0.84907  0.52040  1.0000
  H   H439      1.0  0.04670  0.64937  0.70821  1.0000
  C   C363      1.0  0.23620  0.80854  0.71109  1.0000
  C   C364      1.0  0.09295  0.64219  0.74954  1.0000
  C   C365      1.0  0.23935  0.80097  0.76129  1.0000
  H   H440      1.0  0.08037  0.66589  0.68543  1.0000
  H   H441      1.0  0.21070  0.78290  0.77740  1.0000
  C   C366      1.0  0.28825  0.64923  0.95732  1.0000
  H   H442      1.0  0.27185  0.76555  0.81936  1.0000
  C   C367      1.0  0.11944  0.72211  0.50250  1.0000
  C   C368      1.0  0.12249  0.61964  0.78812  1.0000
  H   H443      1.0  0.28699  0.68756  0.88979  1.0000
  H   H444      1.0  0.25327  0.51415  0.92457  1.0000
  H   H445      1.0  0.12909  0.73684  0.50346  1.0000
  H   H446      1.0  0.29893  0.96869  0.66238  1.0000
  C   C369      1.0  0.31219  0.81229  0.71865  1.0000
  H   H447      1.0  0.24791  0.49904  0.75728  1.0000
  H   H448      1.0  0.26183  0.94356  0.59776  1.0000
  H   H449      1.0  0.23360  0.86806  0.50148  1.0000
  C   C370      1.0  0.21872  0.48699  0.90723  1.0000
  H   H450      1.0  0.29560  0.66186  0.94405  1.0000
  H   H451      1.0  0.14289  0.79340  0.52027  1.0000
  C   C371      1.0  0.21299  0.78493  0.48947  1.0000
  H   H452      1.0  0.29199  0.79152  0.78851  1.0000
  H   H453      1.0  0.27969  0.62906  0.92201  1.0000
  C   C372      1.0  0.26776  0.97706  0.58350  1.0000
  C   C373      1.0  0.27578  0.95796  0.53053  1.0000
  H   H454      1.0  0.28700  0.48401  0.75472  1.0000
  H   H455      1.0  0.31304  0.84254  0.49097  1.0000
  H   H456      1.0  0.24814  0.81474  0.49144  1.0000
  H   H457      1.0  0.29537  0.74274  0.77101  1.0000
  C   C374      1.0  0.28757  0.65158  0.98675  1.0000
  Fe  Fe49      1.0  0.35896  0.17566  0.16641  1.0000
  S   S97       1.0  0.36895  0.20914  0.18196  1.0000
  S   S98       1.0  0.34526  0.14591  0.19169  1.0000
  Fe  Fe50      1.0  0.36131  0.19166  0.10317  1.0000
  S   S99       1.0  0.37023  0.22616  0.11535  1.0000
  S   S100      1.0  0.35212  0.18052  0.05863  1.0000
  Fe  Fe51      1.0  0.39445  0.20836  0.14585  1.0000
  S   S101      1.0  0.42949  0.22319  0.14553  1.0000
  Fe  Fe52      1.0  0.34443  0.22393  0.15011  1.0000
  S   S102      1.0  0.63790  0.15605  0.17296  1.0000
  S   S103      1.0  0.38606  0.17370  0.13222  1.0000
  S   S104      1.0  0.33390  0.19059  0.13590  1.0000
  Fe  Fe53      1.0  0.56853  0.20714  0.15286  1.0000
  S   S105      1.0  0.58703  0.18154  0.12565  1.0000
  S   S106      1.0  0.53353  0.19551  0.16574  1.0000
  Fe  Fe54      1.0  0.61081  0.23594  0.15385  1.0000
  C   C375      1.0  0.31808  0.12573  0.23103  1.0000
  H   H458      1.0  0.33816  0.25135  0.03654  1.0000
  Fe  Fe55      1.0  0.59925  0.21071  0.10052  1.0000
  S   S107      1.0  0.59393  0.22065  0.05405  1.0000
  Fe  Fe56      1.0  0.61646  0.18547  0.15458  1.0000
  H   H459      1.0  0.39063  0.22916  0.99050  1.0000
  S   S108      1.0  0.57986  0.23628  0.12697  1.0000
  S   S109      1.0  0.59754  0.20939  0.18300  1.0000
  C   C376      1.0  0.59653  0.20766  0.02049  1.0000
  C   C377      1.0  0.35145  0.18031  0.00034  1.0000
  C   C378      1.0  0.60292  0.18507  0.01735  1.0000
  C   C379      1.0  0.35723  0.07489  0.22460  1.0000
  H   H460      1.0  0.60635  0.17478  0.03588  1.0000
  C   C380      1.0  0.33221  0.24396  0.05672  1.0000
  C   C381      1.0  0.34472  0.06153  0.24256  1.0000
  H   H461      1.0  0.54422  0.21587  0.01293  1.0000
  H   H462      1.0  0.64824  0.20171  0.03406  1.0000
  H   H463      1.0  0.51582  0.16706  0.06981  1.0000
  H   H464      1.0  0.59332  0.15539  0.19222  1.0000
  C   C382      1.0  0.45837  0.21473  0.15036  1.0000
  C   C383      1.0  0.47476  0.23054  0.14592  1.0000
  C   C384      1.0  0.49776  0.22495  0.14993  1.0000
  C   C385      1.0  0.50481  0.20339  0.15870  1.0000
  C   C386      1.0  0.48846  0.18754  0.16303  1.0000
  C   C387      1.0  0.46548  0.19307  0.15873  1.0000
  H   H465      1.0  0.46955  0.24741  0.13971  1.0000
  H   H466      1.0  0.50991  0.23755  0.14704  1.0000
  H   H467      1.0  0.49355  0.17083  0.16998  1.0000
  H   H468      1.0  0.45321  0.18068  0.16236  1.0000
  C   C388      1.0  0.52350  0.17200  0.05008  1.0000
  C   C389      1.0  0.36023  0.19022  0.02444  1.0000
  C   C390      1.0  0.37446  0.20784  0.02064  1.0000
  H   H469      1.0  0.54414  0.14749  0.99002  1.0000
  H   H470      1.0  0.38143  0.21560  0.03888  1.0000
  H   H471      1.0  0.33052  0.27756  0.12218  1.0000
  H   H472      1.0  0.55960  0.18700  0.21656  1.0000
  H   H473      1.0  0.34342  0.22896  0.06095  1.0000
  C   C391      1.0  0.33280  0.14303  0.22607  1.0000
  S   S110      1.0  0.62792  0.26564  0.17254  1.0000
  H   H474      1.0  0.58571  0.12732  0.31527  1.0000
  C   C392      1.0  0.35060  0.08680  0.28113  1.0000
  H   H475      1.0  0.53305  0.19003  0.10197  1.0000
  C   C393      1.0  0.33654  0.03033  0.29174  1.0000
  H   H476      1.0  0.62539  0.09923  0.24753  1.0000
  C   C394      1.0  0.59204  0.22072  0.99611  1.0000
  C   C395      1.0  0.58088  0.13757  0.24386  1.0000
  C   C396      1.0  0.63708  0.16319  0.23147  1.0000
  C   C397      1.0  0.34073  0.06724  0.27132  1.0000
  H   H477      1.0  0.52526  0.13810  0.03513  1.0000
  H   H478      1.0  0.33764  0.02183  0.27098  1.0000
  H   H479      1.0  0.31781  0.39480  0.19372  1.0000
  C   C398      1.0  0.54440  0.18253  0.99900  1.0000
  H   H480      1.0  0.35953  0.07063  0.20250  1.0000
  C   C399      1.0  0.52853  0.19458  0.04484  1.0000
  H   H481      1.0  0.58575  0.18071  0.23398  1.0000
  H   H482      1.0  0.60393  0.12098  0.21315  1.0000
  H   H483      1.0  0.33783  0.04690  0.23360  1.0000
  C   C400      1.0  0.36324  0.09991  0.26303  1.0000
  C   C401      1.0  0.53916  0.19937  0.01857  1.0000
  N   N27       1.0  0.56758  0.15186  0.22385  1.0000
  H   H484      1.0  0.53606  0.14768  0.24550  1.0000
  H   H485      1.0  0.54283  0.12753  0.21853  1.0000
  H   H486      1.0  0.57486  0.13304  0.18579  1.0000
  H   H487      1.0  0.33467  0.16199  0.29382  1.0000
  C   C402      1.0  0.64303  0.15754  0.25961  1.0000
  H   H488      1.0  0.61735  0.10268  0.29858  1.0000
  C   C403      1.0  0.64515  0.15001  0.20895  1.0000
  H   H489      1.0  0.53363  0.15567  0.20913  1.0000
  C   C404      1.0  0.60685  0.11186  0.28346  1.0000
  H   H490      1.0  0.34962  0.16963  0.24560  1.0000
  C   C405      1.0  0.54402  0.14537  0.22434  1.0000
  H   H491      1.0  0.58705  0.23821  0.99832  1.0000
  C   C406      1.0  0.37970  0.21545  0.99312  1.0000
  H   H492      1.0  0.55971  0.17908  0.25277  1.0000
  H   H493      1.0  0.63665  0.16789  0.27676  1.0000
  H   H494      1.0  0.36987  0.11524  0.27063  1.0000
  C   C407      1.0  0.33824  0.15637  0.24889  1.0000
  C   C408      1.0  0.56821  0.17562  0.23222  1.0000
  C   C409      1.0  0.36637  0.09411  0.23479  1.0000
  C   C410      1.0  0.58914  0.12590  0.29279  1.0000
  H   H495      1.0  0.37536  0.10490  0.22059  1.0000
  C   C411      1.0  0.61140  0.10999  0.25465  1.0000
  C   C412      1.0  0.52889  0.15528  0.03039  1.0000
  C   C413      1.0  0.32347  0.06201  0.31867  1.0000
  H   H496      1.0  0.33482  0.25612  0.07388  1.0000
  C   C414      1.0  0.57617  0.13842  0.27334  1.0000
  N   N28       1.0  0.32649  0.05338  0.28949  1.0000
  H   H497      1.0  0.56570  0.16131  0.17966  1.0000
  C   C415      1.0  0.59879  0.12268  0.23502  1.0000
  H   H498      1.0  0.56262  0.14906  0.28161  1.0000
  H   H499      1.0  0.33966  0.06252  0.32990  1.0000
  C   C416      1.0  0.57579  0.15023  0.19416  1.0000
  N   N29       1.0  0.52364  0.21172  0.06667  1.0000
  C   C417      1.0  0.49962  0.21210  0.07488  1.0000
  C   C418      1.0  0.53728  0.20616  0.09194  1.0000
  C   C419      1.0  0.52883  0.23467  0.05742  1.0000
  H   H500      1.0  0.34043  0.16666  0.00299  1.0000
  H   H501      1.0  0.35371  0.03033  0.30052  1.0000
  H   H502      1.0  0.54702  0.23598  0.05289  1.0000
  H   H503      1.0  0.62642  0.17786  0.22720  1.0000
  C   C420      1.0  0.32972  0.15195  0.27629  1.0000
  C   C421      1.0  0.60505  0.17578  0.99008  1.0000
  H   H504      1.0  0.49503  0.19670  0.08641  1.0000
  H   H505      1.0  0.49502  0.22607  0.08951  1.0000
  H   H506      1.0  0.48872  0.21413  0.05602  1.0000
  H   H507      1.0  0.53489  0.21904  0.10861  1.0000
  H   H508      1.0  0.55537  0.20490  0.08628  1.0000
  S   S111      1.0  0.63073  0.21205  0.12632  1.0000
  H   H509      1.0  0.51919  0.23998  0.03833  1.0000
  H   H510      1.0  0.52470  0.24717  0.07421  1.0000
  H   H511      1.0  0.34821  0.09289  0.30243  1.0000
  H   H512      1.0  0.32637  0.01967  0.30590  1.0000
  C   C422      1.0  0.53943  0.16053  0.00496  1.0000
  H   H513      1.0  0.32813  0.37293  0.15045  1.0000
  Fe  Fe57      1.0  0.35812  0.18384  0.83372  1.0000
  S   S112      1.0  0.37876  0.20541  0.80584  1.0000
  S   S113      1.0  0.33513  0.15739  0.81666  1.0000
  Fe  Fe58      1.0  0.37219  0.20798  0.88829  1.0000
  S   S114      1.0  0.39269  0.23162  0.86263  1.0000
  S   S115      1.0  0.37840  0.21597  0.93496  1.0000
  Fe  Fe59      1.0  0.36398  0.23382  0.83215  1.0000
  S   S116      1.0  0.35427  0.26557  0.80717  1.0000
  Fe  Fe60      1.0  0.40575  0.20158  0.83889  1.0000
  S   S117      1.0  0.44296  0.19176  0.83065  1.0000
  S   S118      1.0  0.34238  0.21259  0.85917  1.0000
  S   S119      1.0  0.38619  0.17761  0.86522  1.0000
  Fe  Fe61      1.0  0.62451  0.23104  0.85254  1.0000
  S   S120      1.0  0.63543  0.19513  0.86179  1.0000
  H   H514      1.0  0.51575  0.11290  0.74047  1.0000
  Fe  Fe62      1.0  0.57546  0.21835  0.84353  1.0000
  S   S121      1.0  0.58395  0.18218  0.85241  1.0000
  S   S122      1.0  0.53981  0.23256  0.83426  1.0000
  Fe  Fe63      1.0  0.60420  0.19417  0.88863  1.0000
  S   S123      1.0  0.60401  0.17655  0.93182  1.0000
  Fe  Fe64      1.0  0.61451  0.18648  0.82449  1.0000
  H   H515      1.0  0.41899  0.18241  0.91243  1.0000
  S   S124      1.0  0.59420  0.23022  0.88138  1.0000
  S   S125      1.0  0.60497  0.22252  0.81368  1.0000
  H   H516      1.0  0.51423  0.15530  0.94540  1.0000
  H   H517      1.0  0.34626  0.30366  0.77289  1.0000
  C   C423      1.0  0.47342  0.19389  0.92367  1.0000
  H   H518      1.0  0.39983  0.25706  0.81067  1.0000
  C   C424      1.0  0.50682  0.17025  0.93552  1.0000
  S   S126      1.0  0.62214  0.15800  0.79266  1.0000
  C   C425      1.0  0.59404  0.21141  0.96890  1.0000
  C   C426      1.0  0.60081  0.18893  0.96571  1.0000
  C   C427      1.0  0.41756  0.25417  0.80404  1.0000
  H   H519      1.0  0.59027  0.22157  0.95039  1.0000
  C   C428      1.0  0.48070  0.27162  0.75339  1.0000
  C   C429      1.0  0.46960  0.20342  0.83501  1.0000
  C   C430      1.0  0.47215  0.22642  0.83714  1.0000
  C   C431      1.0  0.49373  0.23495  0.83727  1.0000
  C   C432      1.0  0.51309  0.22065  0.83618  1.0000
  C   C433      1.0  0.51054  0.19759  0.83537  1.0000
  C   C434      1.0  0.48897  0.18910  0.83452  1.0000
  H   H520      1.0  0.45759  0.23774  0.83772  1.0000
  H   H521      1.0  0.49545  0.25281  0.83793  1.0000
  H   H522      1.0  0.52518  0.18628  0.83478  1.0000
  H   H523      1.0  0.48729  0.17126  0.83322  1.0000
  H   H524      1.0  0.48175  0.22341  0.89836  1.0000
  H   H525      1.0  0.58411  0.14414  0.75400  1.0000
  C   C435      1.0  0.40806  0.24215  0.75737  1.0000
  C   C436      1.0  0.43752  0.17941  0.91217  1.0000
  H   H526      1.0  0.53841  0.18141  0.92013  1.0000
  C   C437      1.0  0.33861  0.14344  0.73151  1.0000
  C   C438      1.0  0.34289  0.15264  0.75827  1.0000
  C   C439      1.0  0.52047  0.18491  0.92131  1.0000
  H   H527      1.0  0.34854  0.14817  0.71340  1.0000
  H   H528      1.0  0.35591  0.16433  0.76047  1.0000
  C   C440      1.0  0.37095  0.20551  0.96902  1.0000
  C   C441      1.0  0.64071  0.13203  0.74953  1.0000
  H   H529      1.0  0.44094  0.16325  0.92332  1.0000
  H   H530      1.0  0.34994  0.17998  0.95455  1.0000
  H   H531      1.0  0.41789  0.29413  0.78005  1.0000
  C   C442      1.0  0.44086  0.21900  0.91072  1.0000
  C   C443      1.0  0.48786  0.20850  0.90931  1.0000
  C   C444      1.0  0.48366  0.17462  0.93676  1.0000
  H   H532      1.0  0.38971  0.24416  0.76170  1.0000
  H   H533      1.0  0.47377  0.16269  0.94789  1.0000
  C   C445      1.0  0.33055  0.14642  0.78214  1.0000
  H   H534      1.0  0.61015  0.15832  0.98784  1.0000
  H   H535      1.0  0.48264  0.13358  0.76058  1.0000
  C   C446      1.0  0.51101  0.20399  0.90830  1.0000
  H   H536      1.0  0.42321  0.20372  0.95728  1.0000
  C   C447      1.0  0.64090  0.15275  0.76337  1.0000
  H   H537      1.0  0.42239  0.22180  0.91275  1.0000
  H   H538      1.0  0.44291  0.17719  0.88971  1.0000
  N   N30       1.0  0.44885  0.19810  0.92533  1.0000
  C   C448      1.0  0.58021  0.15946  0.74103  1.0000
  C   C449      1.0  0.47973  0.23276  0.76658  1.0000
  H   H539      1.0  0.50983  0.24922  0.75602  1.0000
  H   H540      1.0  0.45020  0.21319  0.96633  1.0000
  H   H541      1.0  0.41287  0.22456  0.76315  1.0000
  H   H542      1.0  0.42244  0.23663  0.81003  1.0000
  N   N31       1.0  0.56153  0.17343  0.75362  1.0000
  C   C450      1.0  0.55885  0.19413  0.73628  1.0000
  C   C451      1.0  0.56827  0.17949  0.78248  1.0000
  H   H543      1.0  0.44460  0.21834  0.88763  1.0000
  C   C452      1.0  0.54008  0.16218  0.75515  1.0000
  C   C453      1.0  0.52071  0.17347  0.76663  1.0000
  C   C454      1.0  0.53773  0.13997  0.74574  1.0000
  C   C455      1.0  0.50025  0.16325  0.76842  1.0000
  C   C456      1.0  0.51717  0.12990  0.74765  1.0000
  C   C457      1.0  0.49849  0.14151  0.75896  1.0000
  C   C458      1.0  0.35680  0.18784  0.97280  1.0000
  H   H544      1.0  0.54692  0.20667  0.74601  1.0000
  H   H545      1.0  0.57499  0.20249  0.73380  1.0000
  H   H546      1.0  0.55617  0.19147  0.79295  1.0000
  H   H547      1.0  0.58459  0.18755  0.78214  1.0000
  H   H548      1.0  0.57028  0.16437  0.79629  1.0000
  C   C459      1.0  0.63230  0.25781  0.94078  1.0000
  H   H549      1.0  0.55277  0.19041  0.71474  1.0000
  H   H550      1.0  0.57666  0.15460  0.71896  1.0000
  H   H551      1.0  0.52136  0.19022  0.77470  1.0000
  H   H552      1.0  0.55154  0.12992  0.73702  1.0000
  H   H553      1.0  0.59608  0.16845  0.74019  1.0000
  H   H554      1.0  0.48569  0.17211  0.77751  1.0000
  H   H555      1.0  0.52169  0.21524  0.89695  1.0000
  C   C460      1.0  0.44479  0.25601  0.76644  1.0000
  C   C461      1.0  0.49180  0.25100  0.75826  1.0000
  C   C462      1.0  0.45753  0.27423  0.75738  1.0000
  H   H556      1.0  0.44825  0.23393  0.91988  1.0000
  C   C463      1.0  0.41045  0.28107  0.76706  1.0000
  H   H557      1.0  0.42764  0.26533  0.81692  1.0000
  H   H558      1.0  0.44817  0.22063  0.77805  1.0000
  C   C464      1.0  0.44156  0.19979  0.95536  1.0000
  H   H559      1.0  0.49020  0.28579  0.74701  1.0000
  H   H560      1.0  0.39218  0.28210  0.77216  1.0000
  N   N32       1.0  0.42065  0.25849  0.77340  1.0000
  C   C465      1.0  0.33216  0.30306  0.78729  1.0000
  C   C466      1.0  0.33132  0.28569  0.80721  1.0000
  H   H561      1.0  0.41077  0.24414  0.73419  1.0000
  C   C467      1.0  0.45660  0.23514  0.77054  1.0000
  H   H562      1.0  0.61649  0.25111  0.94897  1.0000
  C   C468      1.0  0.32169  0.12819  0.72795  1.0000
  H   H563      1.0  0.41216  0.28543  0.74424  1.0000
  H   H564      1.0  0.44479  0.18395  0.96733  1.0000
  H   H565      1.0  0.45009  0.29075  0.75372  1.0000
  H   H566      1.0  0.48839  0.21685  0.77105  1.0000
  H   H567      1.0  0.62960  0.11957  0.75714  1.0000
  H   H568      1.0  0.63315  0.27514  0.94862  1.0000
  H   H569      1.0  0.63091  0.25920  0.91735  1.0000
  H   H570      1.0  0.63505  0.21345  0.93881  1.0000
  H   H571      1.0  0.55300  0.18647  0.97941  1.0000
  S   S127      1.0  0.31706  0.11734  0.69335  1.0000
  H   H572      1.0  0.64814  0.27634  0.80596  1.0000
  H   H573      1.0  0.31619  0.33299  0.77010  1.0000
  H   H574      1.0  0.64887  0.20420  0.98294  1.0000
  Fe  Fe65      1.0  0.37549  0.76650  0.10623  1.0000
  S   S128      1.0  0.38501  0.73053  0.09969  1.0000
  S   S129      1.0  0.37991  0.79108  0.06961  1.0000
  Fe  Fe66      1.0  0.36526  0.75944  0.17037  1.0000
  S   S130      1.0  0.37552  0.72260  0.16681  1.0000
  S   S131      1.0  0.35090  0.76791  0.21495  1.0000
  Fe  Fe67      1.0  0.40465  0.73343  0.13992  1.0000
  S   S132      1.0  0.44045  0.71785  0.13644  1.0000
  Fe  Fe68      1.0  0.35510  0.72336  0.12710  1.0000
  H   H575      1.0  0.63367  0.84088  0.23703  1.0000
  S   S133      1.0  0.39589  0.76995  0.14598  1.0000
  S   S134      1.0  0.34422  0.75970  0.13114  1.0000
  Fe  Fe69      1.0  0.61309  0.71730  0.12034  1.0000
  S   S135      1.0  0.63121  0.74840  0.11087  1.0000
  H   H576      1.0  0.38351  0.77982  0.30863  1.0000
  Fe  Fe70      1.0  0.57221  0.74384  0.14573  1.0000
  S   S136      1.0  0.58851  0.77645  0.13792  1.0000
  S   S137      1.0  0.53807  0.74916  0.16784  1.0000
  Fe  Fe71      1.0  0.59792  0.76221  0.09506  1.0000
  S   S138      1.0  0.58696  0.77900  0.05353  1.0000
  Fe  Fe72      1.0  0.62023  0.75947  0.15479  1.0000
  C   C469      1.0  0.37994  0.80647  0.27821  1.0000
  S   S139      1.0  0.58027  0.73056  0.10241  1.0000
  S   S140      1.0  0.60352  0.72731  0.16472  1.0000
  C   C470      1.0  0.59831  0.77241  0.01961  1.0000
  H   H577      1.0  0.50977  0.80424  0.02391  1.0000
  C   C471      1.0  0.62042  0.76429  0.01619  1.0000
  H   H578      1.0  0.52504  0.76750  0.10005  1.0000
  H   H579      1.0  0.57221  0.70710  0.00611  1.0000
  H   H580      1.0  0.63102  0.76208  0.03449  1.0000
  C   C472      1.0  0.37069  0.81040  0.32790  1.0000
  H   H581      1.0  0.62549  0.81284  0.20069  1.0000
  N   N33       1.0  0.60504  0.69619  0.02030  1.0000
  C   C473      1.0  0.58492  0.77571  0.99546  1.0000
  H   H582      1.0  0.38698  0.85413  0.36263  1.0000
  H   H583      1.0  0.32620  0.70641  0.17495  1.0000
  C   C474      1.0  0.58731  0.71399  0.01554  1.0000
  C   C475      1.0  0.61056  0.66168  0.98933  1.0000
  C   C476      1.0  0.37868  0.79730  0.30531  1.0000
  C   C477      1.0  0.46736  0.72709  0.14539  1.0000
  C   C478      1.0  0.47019  0.74573  0.16235  1.0000
  C   C479      1.0  0.49190  0.75230  0.16877  1.0000
  C   C480      1.0  0.51109  0.74072  0.15785  1.0000
  C   C481      1.0  0.50825  0.72235  0.14045  1.0000
  C   C482      1.0  0.48656  0.71545  0.13458  1.0000
  H   H584      1.0  0.45567  0.75483  0.17095  1.0000
  H   H585      1.0  0.49382  0.76645  0.18238  1.0000
  H   H586      1.0  0.52276  0.71307  0.13213  1.0000
  H   H587      1.0  0.48465  0.70095  0.12157  1.0000
  C   C483      1.0  0.38709  0.80672  0.01626  1.0000
  C   C484      1.0  0.38057  0.78825  0.03206  1.0000
  H   H588      1.0  0.59175  0.68976  0.06210  1.0000
  H   H589      1.0  0.39096  0.82189  0.02701  1.0000
  H   H590      1.0  0.37068  0.75421  0.02952  1.0000
  H   H591      1.0  0.33843  0.66860  0.15601  1.0000
  C   C485      1.0  0.33683  0.79032  0.23389  1.0000
  C   C486      1.0  0.33440  0.81209  0.22300  1.0000
  H   H592      1.0  0.34100  0.87942  0.35909  1.0000
  H   H593      1.0  0.34075  0.81572  0.20205  1.0000
  H   H594      1.0  0.56787  0.78226  0.99786  1.0000
  N   N34       1.0  0.57462  0.77980  0.23391  1.0000
  C   C487      1.0  0.55191  0.77605  0.24528  1.0000
  C   C488      1.0  0.57250  0.79416  0.20827  1.0000
  C   C489      1.0  0.58459  0.75779  0.22495  1.0000
  C   C490      1.0  0.58797  0.79089  0.25538  1.0000
  C   C491      1.0  0.60866  0.78153  0.26570  1.0000
  C   C492      1.0  0.58053  0.81198  0.26632  1.0000
  C   C493      1.0  0.62096  0.79272  0.28562  1.0000
  H   H595      1.0  0.32186  0.83398  0.34260  1.0000
  C   C494      1.0  0.37335  0.82879  0.27363  1.0000
  H   H596      1.0  0.54226  0.79192  0.24980  1.0000
  H   H597      1.0  0.54177  0.76690  0.22992  1.0000
  H   H598      1.0  0.55279  0.76603  0.26522  1.0000
  H   H599      1.0  0.56395  0.81063  0.21262  1.0000
  H   H600      1.0  0.56254  0.78627  0.19164  1.0000
  H   H601      1.0  0.58922  0.79731  0.19901  1.0000
  H   H602      1.0  0.57402  0.74981  0.20905  1.0000
  H   H603      1.0  0.60131  0.75950  0.21483  1.0000
  H   H604      1.0  0.58627  0.74587  0.24307  1.0000
  H   H605      1.0  0.61609  0.76591  0.25818  1.0000
  H   H606      1.0  0.56509  0.82023  0.25934  1.0000
  H   H607      1.0  0.53705  0.79124  0.06015  1.0000
  S   S141      1.0  0.32613  0.70270  0.11267  1.0000
  C   C495      1.0  0.47501  0.77296  0.06495  1.0000
  H   H608      1.0  0.33418  0.87077  0.32451  1.0000
  H   H609      1.0  0.32479  0.69979  0.21194  1.0000
  C   C496      1.0  0.37131  0.84702  0.37075  1.0000
  C   C497      1.0  0.34774  0.86991  0.34049  1.0000
  H   H610      1.0  0.33034  0.76946  0.27019  1.0000
  C   C498      1.0  0.64849  0.66749  0.12037  1.0000
  C   C499      1.0  0.59310  0.82310  0.28602  1.0000
  H   H611      1.0  0.33492  0.72577  0.20076  1.0000
  C   C500      1.0  0.61330  0.81350  0.29559  1.0000
  C   C501      1.0  0.32844  0.78613  0.26133  1.0000
  H   H612      1.0  0.62341  0.82246  0.31017  1.0000
  C   C502      1.0  0.63901  0.80946  0.21528  1.0000
  H   H613      1.0  0.36509  0.85738  0.38891  1.0000
  H   H614      1.0  0.63703  0.78569  0.29259  1.0000
  H   H615      1.0  0.32606  0.84598  0.37681  1.0000
  H   H616      1.0  0.58217  0.72255  0.03557  1.0000
  N   N35       1.0  0.45193  0.76524  0.06716  1.0000
  C   C503      1.0  0.44139  0.77321  0.09395  1.0000
  C   C504      1.0  0.43718  0.77328  0.04375  1.0000
  C   C505      1.0  0.45244  0.74047  0.06707  1.0000
  H   H617      1.0  0.58743  0.83944  0.29359  1.0000
  H   H618      1.0  0.63333  0.67390  0.16112  1.0000
  H   H619      1.0  0.59285  0.72738  0.00114  1.0000
  H   H620      1.0  0.38543  0.79611  0.26052  1.0000
  C   C506      1.0  0.51312  0.77284  0.08386  1.0000
  N   N36       1.0  0.35441  0.84641  0.34810  1.0000
  H   H621      1.0  0.44158  0.79170  0.09562  1.0000
  H   H622      1.0  0.42362  0.76866  0.09551  1.0000
  H   H623      1.0  0.44975  0.76576  0.11292  1.0000
  H   H624      1.0  0.43446  0.79180  0.04384  1.0000
  H   H625      1.0  0.42027  0.76647  0.04588  1.0000
  H   H626      1.0  0.44380  0.76786  0.02280  1.0000
  H   H627      1.0  0.46207  0.73294  0.08501  1.0000
  H   H628      1.0  0.43535  0.73405  0.06938  1.0000
  H   H629      1.0  0.46014  0.73367  0.04729  1.0000
  H   H630      1.0  0.60948  0.66778  0.04860  1.0000
  C   C507      1.0  0.32428  0.82941  0.23957  1.0000
  H   H631      1.0  0.48660  0.75621  0.10362  1.0000
  C   C508      1.0  0.50446  0.79345  0.04100  1.0000
  C   C509      1.0  0.37573  0.76865  0.01760  1.0000
  C   C510      1.0  0.33431  0.83589  0.35960  1.0000
  H   H632      1.0  0.36969  0.80243  0.34842  1.0000
  C   C511      1.0  0.59650  0.68077  0.04224  1.0000
  C   C512      1.0  0.36355  0.83316  0.32395  1.0000
  H   H633      1.0  0.37370  0.83564  0.25233  1.0000
  C   C513      1.0  0.49105  0.76638  0.08569  1.0000
  H   H634      1.0  0.50771  0.76076  0.99415  1.0000
  C   C514      1.0  0.48231  0.78700  0.04260  1.0000
  S   S142      1.0  0.63052  0.68635  0.10135  1.0000
  H   H635      1.0  0.58136  0.67252  0.03502  1.0000
  H   H636      1.0  0.33815  0.81903  0.36874  1.0000
  H   H637      1.0  0.47121  0.79339  0.02626  1.0000
  C   C515      1.0  0.32220  0.71345  0.19617  1.0000
  C   C516      1.0  0.36515  0.84200  0.29601  1.0000
  C   C517      1.0  0.32228  0.66512  0.14755  1.0000
  H   H638      1.0  0.35935  0.85882  0.29056  1.0000
  C   C518      1.0  0.51987  0.78626  0.06146  1.0000
  H   H639      1.0  0.62077  0.71595  0.05160  1.0000
  H   H640      1.0  0.37573  0.83018  0.37965  1.0000
  H   H641      1.0  0.36213  0.87902  0.33203  1.0000
  C   C519      1.0  0.31803  0.80340  0.27775  1.0000
  C   C520      1.0  0.62496  0.70641  0.03197  1.0000
  H   H642      1.0  0.63246  0.71827  0.01691  1.0000
  H   H643      1.0  0.31864  0.63551  0.17333  1.0000
  S   S143      1.0  0.64615  0.76789  0.18865  1.0000
  C   C521      1.0  0.62904  0.75955  0.98894  1.0000
  C   C522      1.0  0.64385  0.82550  0.23585  1.0000
  H   H644      1.0  0.32300  0.84624  0.23107  1.0000
  C   C523      1.0  0.64631  0.66453  0.14961  1.0000
  H   H645      1.0  0.63817  0.69347  0.03757  1.0000
  H   H646      1.0  0.60581  0.65047  0.00611  1.0000
  C   C524      1.0  0.61111  0.68515  0.99320  1.0000
  C   C525      1.0  0.31609  0.82528  0.26710  1.0000
  Fe  Fe73      1.0  0.36446  0.77557  0.83151  1.0000
  S   S144      1.0  0.37292  0.73940  0.82120  1.0000
  S   S145      1.0  0.34798  0.80453  0.80522  1.0000
  Fe  Fe74      1.0  0.37898  0.76835  0.89463  1.0000
  S   S146      1.0  0.38744  0.73206  0.88810  1.0000
  S   S147      1.0  0.38663  0.78784  0.93444  1.0000
  Fe  Fe75      1.0  0.40426  0.74318  0.84762  1.0000
  S   S148      1.0  0.44023  0.72837  0.84105  1.0000
  Fe  Fe76      1.0  0.35573  0.73158  0.86272  1.0000
  H   H647      1.0  0.43319  0.76420  0.96503  1.0000
  S   S149      1.0  0.39675  0.77964  0.85508  1.0000
  S   S150      1.0  0.34635  0.76765  0.87196  1.0000
  Fe  Fe77      1.0  0.61290  0.75427  0.88681  1.0000
  S   S151      1.0  0.58962  0.72813  0.87316  1.0000
  S   S152      1.0  0.62729  0.75453  0.93146  1.0000
  Fe  Fe78      1.0  0.62096  0.77061  0.82437  1.0000
  S   S153      1.0  0.59786  0.74559  0.80754  1.0000
  C   C526      1.0  0.63980  0.79353  0.73918  1.0000
  Fe  Fe79      1.0  0.57462  0.75495  0.84404  1.0000
  S   S154      1.0  0.53813  0.76838  0.83850  1.0000
  Fe  Fe80      1.0  0.61499  0.72127  0.83819  1.0000
  S   S155      1.0  0.62888  0.68719  0.82329  1.0000
  S   S156      1.0  0.59708  0.78157  0.85950  1.0000
  S   S157      1.0  0.63887  0.74582  0.85326  1.0000
  H   H648      1.0  0.37882  0.84004  0.88014  1.0000
  C   C527      1.0  0.43448  0.74778  0.95420  1.0000
  H   H649      1.0  0.52420  0.76168  0.90569  1.0000
  H   H650      1.0  0.35328  0.86982  0.85710  1.0000
  H   H651      1.0  0.46104  0.72519  0.89673  1.0000
  C   C528      1.0  0.50258  0.75943  0.97233  1.0000
  C   C529      1.0  0.61811  0.69797  0.96959  1.0000
  H   H652      1.0  0.43349  0.72161  0.90945  1.0000
  C   C530      1.0  0.45048  0.72593  0.91619  1.0000
  N   N37       1.0  0.34284  0.84098  0.88049  1.0000
  H   H653      1.0  0.63817  0.79347  0.69350  1.0000
  C   C531      1.0  0.61560  0.76239  0.96483  1.0000
  H   H654      1.0  0.36713  0.81418  0.89024  1.0000
  H   H655      1.0  0.58293  0.77285  0.94984  1.0000
  C   C532      1.0  0.36483  0.82899  0.87613  1.0000
  C   C533      1.0  0.46729  0.73990  0.83946  1.0000
  C   C534      1.0  0.47022  0.76284  0.83648  1.0000
  C   C535      1.0  0.49194  0.77112  0.83614  1.0000
  C   C536      1.0  0.51114  0.75670  0.83882  1.0000
  C   C537      1.0  0.50823  0.73376  0.84183  1.0000
  C   C538      1.0  0.48650  0.72547  0.84198  1.0000
  H   H656      1.0  0.45574  0.77422  0.83426  1.0000
  H   H657      1.0  0.49387  0.78888  0.83372  1.0000
  H   H658      1.0  0.52270  0.72236  0.84383  1.0000
  H   H659      1.0  0.48456  0.70769  0.84416  1.0000
  H   H660      1.0  0.46916  0.75324  0.98365  1.0000
  H   H661      1.0  0.34275  0.67797  0.83273  1.0000
  C   C539      1.0  0.32732  0.67237  0.84178  1.0000
  C   C540      1.0  0.33228  0.78852  0.75386  1.0000
  C   C541      1.0  0.33734  0.88284  0.94112  1.0000
  H   H662      1.0  0.33926  0.77227  0.76020  1.0000
  C   C542      1.0  0.38366  0.78672  0.97199  1.0000
  H   H663      1.0  0.63548  0.86181  0.74214  1.0000
  C   C543      1.0  0.62237  0.66520  0.94031  1.0000
  C   C544      1.0  0.34495  0.83703  0.93342  1.0000
  C   C545      1.0  0.48042  0.75510  0.96597  1.0000
  C   C546      1.0  0.59342  0.77047  0.96821  1.0000
  H   H664      1.0  0.45707  0.71251  0.93069  1.0000
  C   C547      1.0  0.37713  0.76794  0.98754  1.0000
  C   C548      1.0  0.38879  0.80591  0.98671  1.0000
  C   C549      1.0  0.51197  0.75990  0.92263  1.0000
  H   H665      1.0  0.45023  0.76491  0.88892  1.0000
  N   N38       1.0  0.57645  0.82191  0.78064  1.0000
  C   C550      1.0  0.58437  0.82807  0.80908  1.0000
  C   C551      1.0  0.55258  0.82963  0.77873  1.0000
  C   C552      1.0  0.57804  0.79722  0.77892  1.0000
  C   C553      1.0  0.58944  0.83153  0.75704  1.0000
  C   C554      1.0  0.58344  0.82774  0.72855  1.0000
  C   C555      1.0  0.60855  0.84422  0.76133  1.0000
  C   C556      1.0  0.59574  0.83615  0.70587  1.0000
  C   C557      1.0  0.62063  0.85265  0.73847  1.0000
  H   H666      1.0  0.39394  0.82048  0.97513  1.0000
  H   H667      1.0  0.58355  0.84648  0.81194  1.0000
  H   H668      1.0  0.57404  0.82086  0.82631  1.0000
  H   H669      1.0  0.60185  0.82153  0.81277  1.0000
  H   H670      1.0  0.55073  0.84820  0.77876  1.0000
  H   H671      1.0  0.54255  0.82319  0.79680  1.0000
  H   H672      1.0  0.54454  0.82372  0.75931  1.0000
  H   H673      1.0  0.59582  0.79090  0.77943  1.0000
  H   H674      1.0  0.56904  0.78929  0.79685  1.0000
  H   H675      1.0  0.57064  0.79099  0.75925  1.0000
  H   H676      1.0  0.56939  0.81792  0.72358  1.0000
  H   H677      1.0  0.61495  0.84738  0.78209  1.0000
  H   H678      1.0  0.59114  0.83273  0.68428  1.0000
  H   H679      1.0  0.41717  0.74453  0.94731  1.0000
  H   H680      1.0  0.32754  0.64236  0.81691  1.0000
  H   H681      1.0  0.62422  0.85452  0.69321  1.0000
  H   H682      1.0  0.37311  0.75296  0.97650  1.0000
  S   S158      1.0  0.32561  0.71108  0.87403  1.0000
  H   H683      1.0  0.42351  0.76256  0.90430  1.0000
  H   H684      1.0  0.48602  0.75369  0.89403  1.0000
  H   H685      1.0  0.33551  0.88603  0.89660  1.0000
  H   H686      1.0  0.34800  0.81917  0.93160  1.0000
  C   C558      1.0  0.33802  0.87416  0.91373  1.0000
  C   C559      1.0  0.51829  0.76192  0.95071  1.0000
  H   H687      1.0  0.32499  0.81717  0.85663  1.0000
  C   C560      1.0  0.61431  0.84856  0.71083  1.0000
  C   C561      1.0  0.48995  0.75546  0.91610  1.0000
  N   N39       1.0  0.45028  0.74813  0.92977  1.0000
  H   H688      1.0  0.31988  0.77700  0.71406  1.0000
  H   H689      1.0  0.43921  0.73430  0.96963  1.0000
  C   C562      1.0  0.32521  0.82780  0.76275  1.0000
  C   C563      1.0  0.47341  0.75310  0.93749  1.0000
  C   C564      1.0  0.44121  0.76525  0.90950  1.0000
  H   H690      1.0  0.62678  0.78185  0.74186  1.0000
  H   H691      1.0  0.36690  0.82264  0.85417  1.0000
  H   H692      1.0  0.44180  0.78237  0.91826  1.0000
  C   C565      1.0  0.33446  0.80683  0.77161  1.0000
  H   H693      1.0  0.53543  0.76530  0.95567  1.0000
  C   C566      1.0  0.32124  0.79127  0.72763  1.0000
  H   H694      1.0  0.32676  0.84214  0.77614  1.0000
  C   C567      1.0  0.34048  0.86874  0.96451  1.0000
  H   H695      1.0  0.63676  0.72662  0.74230  1.0000
  H   H696      1.0  0.61523  0.63409  0.96055  1.0000
  C   C568      1.0  0.34428  0.84588  0.96065  1.0000
  C   C569      1.0  0.61608  0.65197  0.96318  1.0000
  H   H697      1.0  0.34082  0.84938  0.83599  1.0000
  C   C570      1.0  0.31866  0.65217  0.83290  1.0000
  H   H698      1.0  0.33439  0.90064  0.94426  1.0000
  C   C571      1.0  0.64624  0.80027  0.71163  1.0000
  C   C572      1.0  0.33990  0.85759  0.85711  1.0000
  S   S159      1.0  0.64252  0.79465  0.79855  1.0000
  H   H699      1.0  0.63496  0.71993  0.77901  1.0000
  H   H700      1.0  0.63796  0.74841  0.76788  1.0000
  C   C573      1.0  0.62350  0.68816  0.94359  1.0000
  H   H701      1.0  0.62629  0.65773  0.91994  1.0000
  C   C574      1.0  0.34190  0.85088  0.90907  1.0000
  H   H702      1.0  0.61940  0.71582  0.97093  1.0000
  H   H703      1.0  0.32328  0.86669  0.85826  1.0000
  H   H704      1.0  0.62837  0.69857  0.92582  1.0000
  C   C575      1.0  0.64338  0.73077  0.76335  1.0000
  H   H705      1.0  0.32684  0.81087  0.89343  1.0000
  H   H706      1.0  0.34679  0.83487  0.97885  1.0000
  C   C576      1.0  0.32494  0.82490  0.87797  1.0000
  H   H707      1.0  0.64628  0.75354  0.98653  1.0000
  H   H708      1.0  0.33999  0.87552  0.98569  1.0000
  C   C577      1.0  0.31596  0.68525  0.86234  1.0000
  Fe  Fe81      1.0  0.77733  0.35039  0.14891  1.0000
  S   S160      1.0  0.74228  0.35992  0.16389  1.0000
  S   S161      1.0  0.80535  0.33078  0.17319  1.0000
  Fe  Fe82      1.0  0.76729  0.36798  0.08746  1.0000
  S   S162      1.0  0.73177  0.37747  0.09912  1.0000
  S   S163      1.0  0.78082  0.37850  0.04392  1.0000
  Fe  Fe83      1.0  0.74615  0.39209  0.13846  1.0000
  S   S164      1.0  0.73261  0.42775  0.14925  1.0000
  Fe  Fe84      1.0  0.73135  0.34472  0.12303  1.0000
  S   S165      1.0  0.70746  0.31706  0.11315  1.0000
  S   S166      1.0  0.78181  0.38341  0.12619  1.0000
  S   S167      1.0  0.76633  0.33441  0.10874  1.0000
  Fe  Fe85      1.0  0.85151  0.26085  0.31853  1.0000
  S   S168      1.0  0.87774  0.23313  0.30926  1.0000
  S   S169      1.0  0.82449  0.28013  0.29185  1.0000
  Fe  Fe86      1.0  0.85761  0.25480  0.38380  1.0000
  S   S170      1.0  0.88381  0.22724  0.37855  1.0000
  S   S171      1.0  0.84016  0.26504  0.42526  1.0000
  Fe  Fe87      1.0  0.89842  0.24832  0.34378  1.0000
  S   S172      1.0  0.93502  0.25882  0.34769  1.0000
  Fe  Fe88      1.0  0.86135  0.21420  0.34508  1.0000
  S   S173      1.0  0.85189  0.17809  0.35209  1.0000
  S   S174      1.0  0.87281  0.27699  0.35099  1.0000
  S   S175      1.0  0.83459  0.24069  0.35230  1.0000
  Fe  Fe89      1.0  0.71720  0.06288  0.32434  1.0000
  S   S176      1.0  0.68963  0.07979  0.35040  1.0000
  S   S177      1.0  0.71134  0.02717  0.30883  1.0000
  Fe  Fe90      1.0  0.74353  0.10676  0.32216  1.0000
  S   S178      1.0  0.71764  0.12519  0.34871  1.0000
  S   S179      1.0  0.76942  0.12865  0.30123  1.0000
  Fe  Fe91      1.0  0.71741  0.09391  0.37557  1.0000
  S   S180      1.0  0.72451  0.08865  0.42290  1.0000
  Fe  Fe92      1.0  0.69255  0.10947  0.32061  1.0000
  S   S181      1.0  0.66424  0.13239  0.30181  1.0000
  S   S182      1.0  0.74500  0.07603  0.35022  1.0000
  S   S183      1.0  0.71839  0.09191  0.29333  1.0000
  C   C578      1.0  0.71368  0.09707  0.45649  1.0000
  C   C579      1.0  0.69482  0.11156  0.45967  1.0000
  H   H709      1.0  0.73923  0.07755  0.47861  1.0000
  H   H710      1.0  0.68625  0.11817  0.44114  1.0000
  H   H711      1.0  0.81545  0.36683  0.38697  1.0000
  H   H712      1.0  0.78440  0.98965  0.27448  1.0000
  C   C580      1.0  0.66518  0.12545  0.24321  1.0000
  C   C581      1.0  0.65727  0.13874  0.26574  1.0000
  H   H713      1.0  0.76764  0.43516  0.10079  1.0000
  H   H714      1.0  0.67577  0.11068  0.24744  1.0000
  C   C582      1.0  0.85273  0.26155  0.45896  1.0000
  C   C583      1.0  0.87586  0.25845  0.46176  1.0000
  H   H715      1.0  0.72996  0.01895  0.39643  1.0000
  H   H716      1.0  0.88650  0.25797  0.44312  1.0000
  H   H717      1.0  0.72911  0.31156  0.16682  1.0000
  C   C584      1.0  0.82746  0.16590  0.33939  1.0000
  C   C585      1.0  0.81597  0.17452  0.31579  1.0000
  C   C586      1.0  0.79794  0.16318  0.30477  1.0000
  C   C587      1.0  0.79063  0.14356  0.31776  1.0000
  C   C588      1.0  0.80157  0.13544  0.34204  1.0000
  C   C589      1.0  0.82011  0.14634  0.35247  1.0000
  H   H718      1.0  0.82158  0.18937  0.30530  1.0000
  H   H719      1.0  0.78995  0.16947  0.28574  1.0000
  H   H720      1.0  0.79643  0.12017  0.35197  1.0000
  H   H721      1.0  0.82909  0.13924  0.37039  1.0000
  C   C590      1.0  0.77312  0.36777  0.01068  1.0000
  H   H722      1.0  0.81571  0.17403  0.43692  1.0000
  C   C591      1.0  0.75787  0.35099  0.00848  1.0000
  C   C592      1.0  0.80813  0.33726  0.32664  1.0000
  H   H723      1.0  0.75036  0.34422  0.02742  1.0000
  C   C593      1.0  0.68527  0.30333  0.13035  1.0000
  C   C594      1.0  0.67759  0.30886  0.15757  1.0000
  C   C595      1.0  0.80371  0.35530  0.30824  1.0000
  C   C596      1.0  0.73910  0.30292  0.18376  1.0000
  H   H724      1.0  0.71756  0.45314  0.05900  1.0000
  C   C597      1.0  0.67547  0.28578  0.11621  1.0000
  H   H725      1.0  0.68485  0.32234  0.16871  1.0000
  C   C598      1.0  0.65920  0.13110  0.21510  1.0000
  H   H726      1.0  0.68130  0.28129  0.09520  1.0000
  C   C599      1.0  0.81044  0.31760  0.20687  1.0000
  C   C600      1.0  0.79434  0.31744  0.22856  1.0000
  C   C601      1.0  0.79908  0.30613  0.25438  1.0000
  C   C602      1.0  0.82002  0.29497  0.25915  1.0000
  C   C603      1.0  0.83623  0.29545  0.23766  1.0000
  C   C604      1.0  0.83141  0.30658  0.21174  1.0000
  H   H727      1.0  0.77823  0.32595  0.22544  1.0000
  H   H728      1.0  0.78632  0.30584  0.27069  1.0000
  H   H729      1.0  0.85238  0.28699  0.24083  1.0000
  H   H730      1.0  0.84406  0.30660  0.19525  1.0000
  H   H731      1.0  0.78481  0.42723  0.07094  1.0000
  C   C605      1.0  0.96380  0.25014  0.34172  1.0000
  C   C606      1.0  0.77600  0.47896  0.14891  1.0000
  C   C607      1.0  0.76281  0.25478  0.24630  1.0000
  H   H732      1.0  0.95788  0.22330  0.31339  1.0000
  H   H733      1.0  0.82825  0.21420  0.43965  1.0000
  C   C608      1.0  0.71600  0.99879  0.32047  1.0000
  C   C609      1.0  0.73114  0.99255  0.34181  1.0000
  C   C610      1.0  0.79672  0.25630  0.21867  1.0000
  H   H734      1.0  0.74104  0.00503  0.35119  1.0000
  C   C611      1.0  0.76753  0.45736  0.14942  1.0000
  C   C612      1.0  0.74444  0.45467  0.14912  1.0000
  C   C613      1.0  0.72458  0.08868  0.48087  1.0000
  H   H735      1.0  0.77889  0.44278  0.15032  1.0000
  C   C614      1.0  0.73006  0.47401  0.14855  1.0000
  N   N40       1.0  0.81750  0.32186  0.37583  1.0000
  C   C615      1.0  0.80248  0.32324  0.40098  1.0000
  C   C616      1.0  0.81513  0.29955  0.36320  1.0000
  C   C617      1.0  0.84093  0.32308  0.38529  1.0000
  C   C618      1.0  0.81218  0.34054  0.35589  1.0000
  H   H736      1.0  0.78463  0.32347  0.39460  1.0000
  H   H737      1.0  0.80715  0.39792  0.35434  1.0000
  H   H738      1.0  0.80491  0.33828  0.41386  1.0000
  H   H739      1.0  0.82127  0.26461  0.48151  1.0000
  H   H740      1.0  0.80561  0.30869  0.41558  1.0000
  H   H741      1.0  0.79808  0.29767  0.35470  1.0000
  H   H742      1.0  0.81822  0.28579  0.37883  1.0000
  H   H743      1.0  0.82748  0.29641  0.34588  1.0000
  H   H744      1.0  0.84363  0.33853  0.39729  1.0000
  H   H745      1.0  0.84601  0.30874  0.39941  1.0000
  H   H746      1.0  0.85271  0.32276  0.36689  1.0000
  C   C619      1.0  0.70428  0.98190  0.30745  1.0000
  C   C620      1.0  0.65806  0.27405  0.12886  1.0000
  C   C621      1.0  0.76093  0.46630  0.06091  1.0000
  H   H747      1.0  0.82560  0.15908  0.48130  1.0000
  H   H748      1.0  0.73283  0.26741  0.22689  1.0000
  C   C622      1.0  0.85005  0.18453  0.47261  1.0000
  C   C623      1.0  0.78584  0.25086  0.24377  1.0000
  C   C624      1.0  0.72879  0.26684  0.16758  1.0000
  H   H749      1.0  0.65795  0.21916  0.25357  1.0000
  C   C625      1.0  0.78471  0.26589  0.19604  1.0000
  C   C626      1.0  0.80730  0.38092  0.34670  1.0000
  C   C627      1.0  0.71538  0.03104  0.39426  1.0000
  H   H750      1.0  0.75301  0.31375  0.18910  1.0000
  H   H751      1.0  0.72788  0.44666  0.09407  1.0000
  H   H752      1.0  0.79547  0.24424  0.26157  1.0000
  H   H753      1.0  0.65058  0.26078  0.11754  1.0000
  C   C628      1.0  0.65015  0.27973  0.15591  1.0000
  C   C629      1.0  0.70527  0.02895  0.44335  1.0000
  H   H754      1.0  0.71595  0.26665  0.18469  1.0000
  H   H755      1.0  0.75039  0.29104  0.13084  1.0000
  H   H756      1.0  0.81477  0.25391  0.21719  1.0000
  H   H757      1.0  0.71972  0.27344  0.14856  1.0000
  C   C630      1.0  0.97046  0.23258  0.32370  1.0000
  C   C631      1.0  0.76114  0.26997  0.19782  1.0000
  H   H758      1.0  0.97580  0.27557  0.36880  1.0000
  H   H759      1.0  0.75451  0.25098  0.26612  1.0000
  H   H760      1.0  0.71217  0.47226  0.14860  1.0000
  H   H761      1.0  0.77458  0.29555  0.15115  1.0000
  H   H762      1.0  0.73455  0.24930  0.16309  1.0000
  H   H763      1.0  0.79444  0.27058  0.17777  1.0000
  H   H764      1.0  0.68170  0.18916  0.17658  1.0000
  N   N41       1.0  0.69717  0.02550  0.41418  1.0000
  H   H765      1.0  0.72347  0.42479  0.07039  1.0000
  C   C632      1.0  0.69375  0.98477  0.42903  1.0000
  C   C633      1.0  0.80320  0.37707  0.31825  1.0000
  H   H766      1.0  0.65559  0.21538  0.20174  1.0000
  H   H767      1.0  0.79983  0.39098  0.30383  1.0000
  C   C634      1.0  0.75058  0.26418  0.22372  1.0000
  C   C635      1.0  0.66011  0.29714  0.17021  1.0000
  H   H768      1.0  0.67977  0.00907  0.36544  1.0000
  H   H769      1.0  0.66342  0.03733  0.42338  1.0000
  H   H770      1.0  0.69271  0.98639  0.29066  1.0000
  H   H771      1.0  0.70028  0.98734  0.44985  1.0000
  H   H772      1.0  0.74418  0.44571  0.01667  1.0000
  H   H773      1.0  0.74598  0.41759  0.03088  1.0000
  H   H774      1.0  0.67202  0.04172  0.38733  1.0000
  H   H775      1.0  0.69226  0.02523  0.45946  1.0000
  H   H776      1.0  0.66543  0.12063  0.19797  1.0000
  H   H777      1.0  0.68211  0.05898  0.41426  1.0000
  H   H778      1.0  0.72796  0.30205  0.20261  1.0000
  N   N42       1.0  0.74790  0.28060  0.17461  1.0000
  C   C636      1.0  0.81186  0.36298  0.36527  1.0000
  C   C637      1.0  0.76103  0.28372  0.14815  1.0000
  H   H779      1.0  0.72143  0.04793  0.39801  1.0000
  H   H780      1.0  0.76125  0.41164  0.08021  1.0000
  H   H781      1.0  0.76852  0.26758  0.14030  1.0000
  H   H782      1.0  0.80851  0.32091  0.31726  1.0000
  N   N43       1.0  0.72004  0.16801  0.25908  1.0000
  C   C638      1.0  0.74198  0.17511  0.24846  1.0000
  C   C639      1.0  0.71940  0.17125  0.29022  1.0000
  C   C640      1.0  0.71879  0.14372  0.25413  1.0000
  C   C641      1.0  0.70185  0.18067  0.24394  1.0000
  C   C642      1.0  0.68617  0.19557  0.25782  1.0000
  C   C643      1.0  0.69991  0.17897  0.21412  1.0000
  C   C644      1.0  0.66989  0.20807  0.24261  1.0000
  C   C645      1.0  0.68337  0.19131  0.19921  1.0000
  C   C646      1.0  0.66851  0.20597  0.21338  1.0000
  H   H783      1.0  0.75605  0.16631  0.25996  1.0000
  H   H784      1.0  0.74466  0.17120  0.22572  1.0000
  H   H785      1.0  0.74355  0.19337  0.25115  1.0000
  H   H786      1.0  0.73302  0.16119  0.30096  1.0000
  H   H787      1.0  0.70344  0.16570  0.29967  1.0000
  H   H788      1.0  0.72163  0.18894  0.29590  1.0000
  H   H789      1.0  0.70366  0.13724  0.26429  1.0000
  H   H790      1.0  0.71854  0.13934  0.23143  1.0000
  H   H791      1.0  0.73330  0.13404  0.26343  1.0000
  H   H792      1.0  0.68591  0.19767  0.28045  1.0000
  H   H793      1.0  0.71104  0.16791  0.20205  1.0000
  H   H794      1.0  0.70959  0.04660  0.44669  1.0000
  H   H795      1.0  0.72077  0.01855  0.44774  1.0000
  H   H796      1.0  0.77079  0.43121  0.02357  1.0000
  N   N44       1.0  0.84957  0.18414  0.44129  1.0000
  C   C647      1.0  0.84394  0.20689  0.43002  1.0000
  C   C648      1.0  0.87192  0.17661  0.43022  1.0000
  C   C649      1.0  0.83299  0.16906  0.42983  1.0000
  H   H797      1.0  0.84176  0.20693  0.40662  1.0000
  H   H798      1.0  0.70999  0.03097  0.37184  1.0000
  H   H799      1.0  0.85731  0.21861  0.43399  1.0000
  H   H800      1.0  0.88506  0.18826  0.43568  1.0000
  H   H801      1.0  0.87209  0.17558  0.40668  1.0000
  H   H802      1.0  0.87715  0.15981  0.43871  1.0000
  H   H803      1.0  0.83278  0.16959  0.40628  1.0000
  H   H804      1.0  0.83700  0.15132  0.43575  1.0000
  C   C650      1.0  0.68198  0.99674  0.38218  1.0000
  N   N45       1.0  0.75272  0.44340  0.06071  1.0000
  C   C651      1.0  0.75343  0.43427  0.03161  1.0000
  C   C652      1.0  0.76728  0.42881  0.07888  1.0000
  C   C653      1.0  0.72938  0.44210  0.07137  1.0000
  H   H805      1.0  0.80088  0.35230  0.28597  1.0000
  H   H806      1.0  0.79236  0.45761  0.03900  1.0000
  C   C654      1.0  0.69071  0.00240  0.40883  1.0000
  C   C655      1.0  0.78198  0.47076  0.04856  1.0000
  C   C656      1.0  0.67782  0.04150  0.40958  1.0000
  H   H807      1.0  0.65407  0.30175  0.19108  1.0000
  H   H808      1.0  0.64998  0.23540  0.06331  1.0000
  C   C657      1.0  0.65263  0.25766  0.02759  1.0000
  C   C658      1.0  0.65041  0.21955  0.99436  1.0000
  H   H809      1.0  0.87493  0.20988  0.47498  1.0000
  C   C659      1.0  0.98062  0.26196  0.35481  1.0000
  C   C660      1.0  0.83919  0.26222  0.48348  1.0000
  H   H810      1.0  0.65412  0.27616  0.98912  1.0000
  H   H811      1.0  0.65318  0.27241  0.04062  1.0000
  C   C661      1.0  0.65311  0.25960  0.99809  1.0000
  C   C662      1.0  0.65008  0.21782  0.02389  1.0000
  C   C663      1.0  0.65100  0.23681  0.04045  1.0000
  C   C664      1.0  0.86437  0.19888  0.48670  1.0000
  C   C665      1.0  0.68708  0.11761  0.48698  1.0000
  Fe  Fe93      1.0  0.73304  0.35049  0.82366  1.0000
  S   S184      1.0  0.75647  0.32574  0.84449  1.0000
  S   S185      1.0  0.70228  0.33583  0.80434  1.0000
  Fe  Fe94      1.0  0.76370  0.38923  0.83493  1.0000
  S   S186      1.0  0.78926  0.36565  0.85631  1.0000
  S   S187      1.0  0.77476  0.42549  0.83785  1.0000
  Fe  Fe95      1.0  0.78385  0.34205  0.82029  1.0000
  S   S188      1.0  0.81082  0.31725  0.80219  1.0000
  Fe  Fe96      1.0  0.75979  0.35138  0.87836  1.0000
  S   S189      1.0  0.75566  0.33904  0.92392  1.0000
  S   S190      1.0  0.76022  0.36620  0.79748  1.0000
  S   S191      1.0  0.73443  0.37555  0.85888  1.0000
  Fe  Fe97      1.0  0.89969  0.23541  0.64473  1.0000
  S   S192      1.0  0.89291  0.26921  0.62527  1.0000
  S   S193      1.0  0.93459  0.22393  0.66073  1.0000
  Fe  Fe98      1.0  0.85008  0.22335  0.63767  1.0000
  S   S194      1.0  0.84131  0.25648  0.61668  1.0000
  S   S195      1.0  0.81893  0.20471  0.64955  1.0000
  Fe  Fe99      1.0  0.87372  0.25109  0.59255  1.0000
  S   S196      1.0  0.88527  0.25561  0.54676  1.0000
  Fe  Fe100     1.0  0.86122  0.27092  0.65171  1.0000
  S   S197      1.0  0.84784  0.30211  0.67550  1.0000
  S   S198      1.0  0.88135  0.21692  0.61138  1.0000
  S   S199      1.0  0.86907  0.23817  0.67333  1.0000
  Fe  Fe101     1.0  0.71218  0.06512  0.62709  1.0000
  S   S200      1.0  0.68233  0.08980  0.62285  1.0000
  S   S201      1.0  0.70830  0.02715  0.62116  1.0000
  Fe  Fe102     1.0  0.74523  0.10326  0.62190  1.0000
  S   S202      1.0  0.71764  0.12931  0.61706  1.0000
  S   S203      1.0  0.78159  0.11135  0.61366  1.0000
  Fe  Fe103     1.0  0.70040  0.11171  0.65310  1.0000
  S   S204      1.0  0.68818  0.13778  0.68640  1.0000
  Fe  Fe104     1.0  0.70213  0.10547  0.58766  1.0000
  S   S205      1.0  0.68847  0.11844  0.54524  1.0000
  S   S206      1.0  0.72935  0.08617  0.65931  1.0000
  S   S207      1.0  0.73068  0.08036  0.59048  1.0000
  H   H812      1.0  0.79071  0.46711  0.85673  1.0000
  H   H813      1.0  0.81867  0.03257  0.60803  1.0000
  H   H814      1.0  0.73117  0.30222  0.77620  1.0000
  C   C666      1.0  0.77166  0.41867  0.91370  1.0000
  H   H815      1.0  0.73685  0.24634  0.72117  1.0000
  C   C667      1.0  0.80911  0.17869  0.63881  1.0000
  C   C668      1.0  0.82163  0.16401  0.62132  1.0000
  C   C669      1.0  0.81300  0.14345  0.61368  1.0000
  C   C670      1.0  0.79176  0.13749  0.62323  1.0000
  C   C671      1.0  0.77912  0.15236  0.64027  1.0000
  C   C672      1.0  0.78780  0.17277  0.64808  1.0000
  H   H816      1.0  0.83805  0.16834  0.61405  1.0000
  H   H817      1.0  0.82291  0.13204  0.60050  1.0000
  H   H818      1.0  0.76280  0.14796  0.64788  1.0000
  H   H819      1.0  0.77796  0.18394  0.66163  1.0000
  C   C673      1.0  0.68853  0.31319  0.82044  1.0000
  C   C674      1.0  0.69325  0.30619  0.84813  1.0000
  H   H820      1.0  0.74995  0.01399  0.59337  1.0000
  H   H821      1.0  0.71537  0.26909  0.75494  1.0000
  H   H822      1.0  0.76946  0.31249  0.76355  1.0000
  C   C675      1.0  0.67222  0.30222  0.80534  1.0000
  C   C676      1.0  0.77989  0.27657  0.87326  1.0000
  C   C677      1.0  0.98083  0.22189  0.66150  1.0000
  C   C678      1.0  0.79033  0.28297  0.92311  1.0000
  C   C679      1.0  0.82064  0.31326  0.76670  1.0000
  C   C680      1.0  0.83352  0.29367  0.75999  1.0000
  C   C681      1.0  0.84165  0.28976  0.73219  1.0000
  C   C682      1.0  0.83731  0.30562  0.71074  1.0000
  C   C683      1.0  0.82459  0.32525  0.71751  1.0000
  C   C684      1.0  0.81613  0.32898  0.74517  1.0000
  H   H823      1.0  0.83717  0.28138  0.77641  1.0000
  H   H824      1.0  0.85146  0.27461  0.72749  1.0000
  H   H825      1.0  0.82116  0.33770  0.70119  1.0000
  H   H826      1.0  0.80634  0.34416  0.74988  1.0000
  H   H827      1.0  0.71060  0.16038  0.56273  1.0000
  C   C685      1.0  0.69797  0.10915  0.51137  1.0000
  C   C686      1.0  0.71681  0.09464  0.50814  1.0000
  H   H828      1.0  0.80372  0.44774  0.79153  1.0000
  H   H829      1.0  0.72545  0.08811  0.52663  1.0000
  H   H830      1.0  0.73124  0.17148  0.58456  1.0000
  C   C687      1.0  0.87195  0.25754  0.51340  1.0000
  C   C688      1.0  0.84873  0.26003  0.51061  1.0000
  H   H831      1.0  0.68770  0.24397  0.94724  1.0000
  H   H832      1.0  0.83821  0.26076  0.52933  1.0000
  C   C689      1.0  0.77733  0.36802  0.95898  1.0000
  C   C690      1.0  0.76221  0.35108  0.95684  1.0000
  N   N46       1.0  0.75103  0.43093  0.92364  1.0000
  H   H833      1.0  0.78541  0.37415  0.94012  1.0000
  C   C691      1.0  0.77331  0.18219  0.56698  1.0000
  C   C692      1.0  0.77580  0.03884  0.59276  1.0000
  C   C693      1.0  0.96148  0.23436  0.65285  1.0000
  H   H834      1.0  0.71858  0.44027  0.90653  1.0000
  H   H835      1.0  0.67364  0.25502  0.91638  1.0000
  C   C694      1.0  0.74215  0.41904  0.94878  1.0000
  C   C695      1.0  0.74405  0.45902  0.81884  1.0000
  C   C696      1.0  0.76365  0.45356  0.83375  1.0000
  H   H836      1.0  0.74412  0.15181  0.49888  1.0000
  H   H837      1.0  0.73472  0.44587  0.80985  1.0000
  C   C697      1.0  0.76021  0.04661  0.53680  1.0000
  C   C698      1.0  0.79714  0.20746  0.54212  1.0000
  C   C699      1.0  0.71304  0.99882  0.63322  1.0000
  C   C700      1.0  0.78849  0.47596  0.76942  1.0000
  H   H838      1.0  0.72682  0.00651  0.67360  1.0000
  H   H839      1.0  0.76816  0.40179  0.90568  1.0000
  C   C701      1.0  0.65547  0.16858  0.75317  1.0000
  H   H840      1.0  0.68507  0.28391  0.88229  1.0000
  H   H841      1.0  0.75221  0.02995  0.64098  1.0000
  H   H842      1.0  0.68089  0.17604  0.72215  1.0000
  N   N47       1.0  0.91953  0.29724  0.69968  1.0000
  C   C702      1.0  0.91447  0.30823  0.67204  1.0000
  C   C703      1.0  0.90749  0.27618  0.70082  1.0000
  C   C704      1.0  0.91031  0.31176  0.72262  1.0000
  C   C705      1.0  0.94405  0.29376  0.70278  1.0000
  H   H843      1.0  0.95110  0.32893  0.69738  1.0000
  C   C706      1.0  0.95478  0.27234  0.70731  1.0000
  H   H844      1.0  0.66836  0.30755  0.78394  1.0000
  H   H845      1.0  0.78427  0.41640  0.93070  1.0000
  H   H846      1.0  0.77973  0.42787  0.89609  1.0000
  H   H847      1.0  0.92273  0.29871  0.65439  1.0000
  H   H848      1.0  0.89616  0.30949  0.66784  1.0000
  H   H849      1.0  0.92015  0.32555  0.67078  1.0000
  H   H850      1.0  0.90966  0.26739  0.72151  1.0000
  H   H851      1.0  0.91333  0.26461  0.68372  1.0000
  H   H852      1.0  0.88916  0.27932  0.69799  1.0000
  H   H853      1.0  0.91722  0.32861  0.72201  1.0000
  H   H854      1.0  0.89176  0.31435  0.72103  1.0000
  H   H855      1.0  0.91406  0.30424  0.74377  1.0000
  C   C707      1.0  0.95805  0.31214  0.70057  1.0000
  H   H856      1.0  0.94572  0.25723  0.70891  1.0000
  H   H857      1.0  0.90337  0.25473  0.49078  1.0000
  H   H858      1.0  0.76490  0.13294  0.53878  1.0000
  C   C708      1.0  0.88539  0.25665  0.48884  1.0000
  N   N48       1.0  0.74297  0.16237  0.54250  1.0000
  C   C709      1.0  0.72535  0.17106  0.56237  1.0000
  C   C710      1.0  0.65495  0.12709  0.72609  1.0000
  C   C711      1.0  0.75103  0.13986  0.55239  1.0000
  C   C712      1.0  0.75837  0.02652  0.58135  1.0000
  C   C713      1.0  0.76828  0.26849  0.82483  1.0000
  C   C714      1.0  0.77778  0.05850  0.54696  1.0000
  C   C715      1.0  0.77556  0.47984  0.96144  1.0000
  H   H859      1.0  0.74049  0.43573  0.88028  1.0000
  H   H860      1.0  0.75385  0.04993  0.51573  1.0000
  H   H861      1.0  0.70561  0.31452  0.86011  1.0000
  C   C716      1.0  0.78682  0.05662  0.63637  1.0000
  H   H862      1.0  0.81058  0.21896  0.54232  1.0000
  C   C717      1.0  0.75036  0.47276  0.91326  1.0000
  C   C718      1.0  0.77551  0.47104  0.84516  1.0000
  H   H863      1.0  0.77647  0.29567  0.92704  1.0000
  H   H864      1.0  0.73744  0.12780  0.55232  1.0000
  H   H865      1.0  0.83025  0.27035  0.90633  1.0000
  H   H866      1.0  0.66521  0.21015  0.93897  1.0000
  H   H867      1.0  0.80115  0.27684  0.83541  1.0000
  C   C719      1.0  0.68153  0.28875  0.86068  1.0000
  C   C720      1.0  0.66968  0.16365  0.72969  1.0000
  H   H868      1.0  0.71931  0.18829  0.55635  1.0000
  C   C721      1.0  0.81729  0.26704  0.89040  1.0000
  C   C722      1.0  0.79064  0.19699  0.56707  1.0000
  C   C723      1.0  0.82165  0.47754  0.79758  1.0000
  C   C724      1.0  0.66964  0.14286  0.71597  1.0000
  C   C725      1.0  0.74115  0.26793  0.86276  1.0000
  H   H869      1.0  0.69987  0.98513  0.59522  1.0000
  C   C726      1.0  0.76177  0.17755  0.54178  1.0000
  H   H870      1.0  0.79064  0.05440  0.65923  1.0000
  C   C727      1.0  0.80637  0.02291  0.62025  1.0000
  H   H871      1.0  0.78515  0.07104  0.53365  1.0000
  H   H872      1.0  0.78477  0.26632  0.93000  1.0000
  H   H873      1.0  0.72886  0.41269  0.89757  1.0000
  H   H874      1.0  0.87657  0.21043  0.52646  1.0000
  H   H875      1.0  0.67257  0.12894  0.48924  1.0000
  H   H876      1.0  0.81237  0.24950  0.89345  1.0000
  H   H877      1.0  0.94945  0.26503  0.63309  1.0000
  H   H878      1.0  0.75726  0.13999  0.57443  1.0000
  H   H879      1.0  0.81074  0.30699  0.86349  1.0000
  H   H880      1.0  0.79904  0.20045  0.58667  1.0000
  H   H881      1.0  0.73361  0.26181  0.81927  1.0000
  C   C728      1.0  0.83812  0.17123  0.51953  1.0000
  H   H882      1.0  0.76798  0.00443  0.63216  1.0000
  H   H883      1.0  0.82573  0.26821  0.86943  1.0000
  C   C729      1.0  0.96407  0.25516  0.63982  1.0000
  C   C730      1.0  0.86545  0.19932  0.51621  1.0000
  C   C731      1.0  0.72262  0.99333  0.65946  1.0000
  H   H884      1.0  0.74121  0.47125  0.89386  1.0000
  C   C732      1.0  0.83690  0.17062  0.48998  1.0000
  H   H885      1.0  0.80510  0.00657  0.60955  1.0000
  H   H886      1.0  0.76153  0.18564  0.49630  1.0000
  C   C733      1.0  0.66069  0.28453  0.81779  1.0000
  C   C734      1.0  0.76930  0.02177  0.63992  1.0000
  H   H887      1.0  0.80401  0.28747  0.93743  1.0000
  H   H888      1.0  0.80058  0.06633  0.62743  1.0000
  C   C735      1.0  0.80469  0.46535  0.78640  1.0000
  H   H889      1.0  0.82793  0.16058  0.53246  1.0000
  C   C736      1.0  0.75652  0.45403  0.93076  1.0000
  H   H890      1.0  0.77528  0.02009  0.66207  1.0000
  H   H891      1.0  0.75479  0.41605  0.96557  1.0000
  N   N49       1.0  0.78068  0.25310  0.70086  1.0000
  C   C737      1.0  0.80019  0.24243  0.71566  1.0000
  C   C738      1.0  0.76854  0.23515  0.68713  1.0000
  C   C739      1.0  0.78901  0.26782  0.67800  1.0000
  C   C740      1.0  0.76672  0.26631  0.72136  1.0000
  C   C741      1.0  0.77525  0.28527  0.73441  1.0000
  C   C742      1.0  0.74476  0.26061  0.72957  1.0000
  C   C743      1.0  0.76256  0.29801  0.75393  1.0000
  C   C744      1.0  0.73218  0.27351  0.74912  1.0000
  C   C745      1.0  0.74102  0.29220  0.76117  1.0000
  H   H892      1.0  0.79478  0.23133  0.73318  1.0000
  H   H893      1.0  0.81099  0.23207  0.70099  1.0000
  H   H894      1.0  0.81101  0.25495  0.72489  1.0000
  H   H895      1.0  0.76349  0.22222  0.70266  1.0000
  H   H896      1.0  0.77919  0.22609  0.67111  1.0000
  H   H897      1.0  0.75349  0.24205  0.67582  1.0000
  H   H898      1.0  0.80087  0.28002  0.68575  1.0000
  H   H899      1.0  0.79847  0.25808  0.66141  1.0000
  H   H900      1.0  0.77497  0.27743  0.66755  1.0000
  H   H901      1.0  0.79186  0.29039  0.72959  1.0000
  C   C746      1.0  0.76908  0.18826  0.51655  1.0000
  H   H902      1.0  0.81344  0.01964  0.64167  1.0000
  N   N50       1.0  0.78428  0.03504  0.62186  1.0000
  H   H903      1.0  0.72409  0.26593  0.86981  1.0000
  H   H904      1.0  0.77119  0.06735  0.63488  1.0000
  H   H905      1.0  0.76894  0.17445  0.58690  1.0000
  C   C747      1.0  0.73398  0.43001  0.90110  1.0000
  H   H906      1.0  0.72541  0.17598  0.50605  1.0000
  C   C748      1.0  0.74650  0.26554  0.83420  1.0000
  C   C749      1.0  0.85234  0.18557  0.53260  1.0000
  H   H907      1.0  0.83394  0.46921  0.81124  1.0000
  C   C750      1.0  0.78474  0.27393  0.84397  1.0000
  H   H908      1.0  0.77234  0.26713  0.80251  1.0000
  H   H909      1.0  0.75189  0.27581  0.90370  1.0000
  C   C751      1.0  0.78649  0.20300  0.51690  1.0000
  C   C752      1.0  0.75745  0.27350  0.88211  1.0000
  H   H910      1.0  0.72743  0.42848  0.95806  1.0000
  H   H911      1.0  0.85325  0.18606  0.55549  1.0000
  N   N51       1.0  0.79756  0.28291  0.89294  1.0000
  H   H912      1.0  0.73683  0.40204  0.94331  1.0000
  H   H913      1.0  0.67358  0.27114  0.94771  1.0000
  C   C753      1.0  0.76975  0.45820  0.95474  1.0000
  H   H914      1.0  0.77495  0.46651  0.76148  1.0000
  C   C754      1.0  0.66521  0.27777  0.84566  1.0000
  H   H915      1.0  0.81805  0.31101  0.89967  1.0000
  C   C755      1.0  0.97807  0.26959  0.70863  1.0000
  H   H916      1.0  0.79029  0.31813  0.88801  1.0000
  C   C756      1.0  0.80453  0.30566  0.88567  1.0000
  C   C757      1.0  0.67260  0.25382  0.93988  1.0000
  H   H917      1.0  0.74094  0.32944  0.98036  1.0000
  H   H918      1.0  0.79921  0.06439  0.58129  1.0000
  C   C758      1.0  0.78562  0.05463  0.57444  1.0000
  H   H919      1.0  0.79175  0.21114  0.49752  1.0000
  S   S208      1.0  0.65107  0.25599  0.86318  1.0000
  C   C759      1.0  0.75060  0.03060  0.55392  1.0000
  H   H920      1.0  0.71791  0.14876  0.51610  1.0000
  H   H921      1.0  0.65588  0.18461  0.76339  1.0000
  C   C760      1.0  0.73232  0.15974  0.51456  1.0000
  H   H922      1.0  0.77619  0.44469  0.96807  1.0000
  H   H923      1.0  0.97912  0.20580  0.67164  1.0000
  H   H924      1.0  0.73665  0.02159  0.54625  1.0000
  C   C761      1.0  0.75257  0.34263  0.98173  1.0000
  C   C762      1.0  0.65189  0.24061  0.98053  1.0000
  N   N52       1.0  0.65188  0.24327  0.94934  1.0000
  C   C763      1.0  0.65078  0.22186  0.93396  1.0000
  H   H925      1.0  0.65103  0.22446  0.91060  1.0000
  H   H926      1.0  0.79479  0.38908  0.98728  1.0000
  C   C764      1.0  0.78273  0.37633  0.98577  1.0000
  H   H927      1.0  0.65464  0.11103  0.71593  1.0000
  C   C765      1.0  0.70735  0.98123  0.61552  1.0000
  C   C766      1.0  0.98134  0.30915  0.70165  1.0000
  Fe  Fe105     1.0  0.75984  0.60038  0.09927  1.0000
  S   S209      1.0  0.73330  0.57745  0.11414  1.0000
  S   S210      1.0  0.76370  0.61380  0.05397  1.0000
  Fe  Fe106     1.0  0.77719  0.60735  0.16080  1.0000
  S   S211      1.0  0.75189  0.58474  0.17902  1.0000
  S   S212      1.0  0.80462  0.62447  0.18541  1.0000
  Fe  Fe107     1.0  0.76004  0.56159  0.14248  1.0000
  S   S213      1.0  0.77356  0.52511  0.14790  1.0000
  Fe  Fe108     1.0  0.72759  0.60257  0.14922  1.0000
  S   S214      1.0  0.69521  0.61741  0.16815  1.0000
  S   S215      1.0  0.78689  0.58350  0.12554  1.0000
  S   S216      1.0  0.75248  0.62631  0.13291  1.0000
  Fe  Fe109     1.0  0.89657  0.69576  0.34441  1.0000
  S   S217      1.0  0.88202  0.66316  0.35742  1.0000
  S   S218      1.0  0.93181  0.69010  0.32529  1.0000
  Fe  Fe110     1.0  0.85378  0.72228  0.36304  1.0000
  S   S219      1.0  0.83755  0.69107  0.37730  1.0000
  S   S220      1.0  0.83140  0.75250  0.37592  1.0000
  Fe  Fe111     1.0  0.87059  0.68132  0.39697  1.0000
  S   S221      1.0  0.87766  0.66541  0.44046  1.0000
  Fe  Fe112     1.0  0.85028  0.67604  0.33619  1.0000
  S   S222      1.0  0.82426  0.65627  0.31205  1.0000
  S   S223      1.0  0.88648  0.71317  0.38493  1.0000
  S   S224      1.0  0.86512  0.70788  0.32096  1.0000
  Fe  Fe113     1.0  0.74302  0.84399  0.32782  1.0000
  S   S225      1.0  0.71396  0.82320  0.33872  1.0000
  S   S226      1.0  0.77719  0.83112  0.31173  1.0000
  Fe  Fe114     1.0  0.71705  0.88869  0.34139  1.0000
  S   S227      1.0  0.68597  0.87060  0.35331  1.0000
  S   S228      1.0  0.72597  0.92500  0.35056  1.0000
  Fe  Fe115     1.0  0.70906  0.84596  0.37653  1.0000
  S   S229      1.0  0.70579  0.82952  0.42033  1.0000
  Fe  Fe116     1.0  0.69326  0.84912  0.31437  1.0000
  C   C767      1.0  0.78134  0.81801  0.47435  1.0000
  S   S230      1.0  0.73956  0.86484  0.36673  1.0000
  S   S231      1.0  0.72287  0.86896  0.30134  1.0000
  C   C768      1.0  0.72183  0.95316  0.33802  1.0000
  C   C769      1.0  0.70719  0.95926  0.31605  1.0000
  C   C770      1.0  0.71233  0.63426  0.99785  1.0000
  H   H928      1.0  0.69788  0.94662  0.30592  1.0000
  C   C771      1.0  0.79039  0.49212  0.04924  1.0000
  C   C772      1.0  0.70385  0.84244  0.45412  1.0000
  C   C773      1.0  0.70195  0.86563  0.45710  1.0000
  C   C774      1.0  0.93824  0.71962  0.46242  1.0000
  H   H929      1.0  0.89369  0.57328  0.23513  1.0000
  C   C775      1.0  0.70441  0.64680  0.02092  1.0000
  H   H930      1.0  0.84341  0.52513  0.20301  1.0000
  C   C776      1.0  0.87020  0.67715  0.47385  1.0000
  H   H931      1.0  0.97174  0.72987  0.46722  1.0000
  C   C777      1.0  0.94832  0.66816  0.43477  1.0000
  H   H932      1.0  0.95468  0.66017  0.47831  1.0000
  H   H933      1.0  0.85360  0.70699  0.45719  1.0000
  C   C778      1.0  0.81545  0.77210  0.35527  1.0000
  C   C779      1.0  0.79401  0.77920  0.36489  1.0000
  C   C780      1.0  0.78187  0.79687  0.35131  1.0000
  C   C781      1.0  0.79122  0.80781  0.32813  1.0000
  C   C782      1.0  0.81253  0.80052  0.31823  1.0000
  C   C783      1.0  0.82464  0.78279  0.33178  1.0000
  H   H934      1.0  0.78698  0.77136  0.38343  1.0000
  H   H935      1.0  0.76554  0.80238  0.35921  1.0000
  H   H936      1.0  0.81994  0.80898  0.30041  1.0000
  H   H937      1.0  0.84139  0.77790  0.32468  1.0000
  C   C784      1.0  0.76163  0.49829  0.14816  1.0000
  C   C785      1.0  0.96182  0.71905  0.34838  1.0000
  C   C786      1.0  0.73854  0.49564  0.14793  1.0000
  H   H938      1.0  0.79489  0.82874  0.48120  1.0000
  H   H939      1.0  0.72719  0.51024  0.14757  1.0000
  C   C787      1.0  0.76645  0.57596  0.01995  1.0000
  C   C788      1.0  0.76833  0.59907  0.02182  1.0000
  H   H940      1.0  0.94670  0.67755  0.39078  1.0000
  H   H941      1.0  0.76268  0.56639  0.03877  1.0000
  H   H942      1.0  0.69147  0.94955  0.43800  1.0000
  C   C789      1.0  0.67738  0.63646  0.14918  1.0000
  H   H943      1.0  0.76768  0.54740  0.99238  1.0000
  C   C790      1.0  0.75778  0.50564  0.07527  1.0000
  S   S232      1.0  0.66583  0.84225  0.28178  1.0000
  C   C791      1.0  0.82978  0.58104  0.24799  1.0000
  C   C792      1.0  0.67980  0.63972  0.12001  1.0000
  H   H944      1.0  0.67992  0.67137  0.03595  1.0000
  C   C793      1.0  0.77320  0.61123  0.99709  1.0000
  H   H945      1.0  0.69270  0.63022  0.10850  1.0000
  C   C794      1.0  0.80942  0.63346  0.22075  1.0000
  C   C795      1.0  0.79441  0.62998  0.24308  1.0000
  C   C796      1.0  0.79935  0.63694  0.27074  1.0000
  C   C797      1.0  0.81917  0.64773  0.27656  1.0000
  C   C798      1.0  0.83402  0.65146  0.25416  1.0000
  C   C799      1.0  0.82919  0.64429  0.22656  1.0000
  H   H946      1.0  0.77912  0.62172  0.23911  1.0000
  H   H947      1.0  0.78771  0.63389  0.28783  1.0000
  H   H948      1.0  0.84937  0.65962  0.25812  1.0000
  H   H949      1.0  0.84099  0.64706  0.20956  1.0000
  C   C800      1.0  0.95882  0.69935  0.33358  1.0000
  C   C801      1.0  0.68583  0.66151  0.01805  1.0000
  C   C802      1.0  0.83754  0.56692  0.22557  1.0000
  H   H950      1.0  0.76734  0.78999  0.43436  1.0000
  H   H951      1.0  0.94737  0.72901  0.35561  1.0000
  C   C803      1.0  0.68038  0.95791  0.39606  1.0000
  C   C804      1.0  0.76150  0.84584  0.44641  1.0000
  H   H952      1.0  0.83842  0.60286  0.28178  1.0000
  C   C805      1.0  0.66158  0.82183  0.25503  1.0000
  C   C806      1.0  0.66515  0.65490  0.10562  1.0000
  H   H953      1.0  0.81450  0.52157  0.19655  1.0000
  N   N53       1.0  0.69570  0.71242  0.16837  1.0000
  C   C807      1.0  0.69132  0.70380  0.13975  1.0000
  C   C808      1.0  0.67603  0.70866  0.18682  1.0000
  C   C809      1.0  0.69770  0.73695  0.16559  1.0000
  C   C810      1.0  0.71584  0.70044  0.18013  1.0000
  C   C811      1.0  0.73552  0.71138  0.18732  1.0000
  C   C812      1.0  0.71638  0.67689  0.18395  1.0000
  C   C813      1.0  0.75462  0.69925  0.19688  1.0000
  C   C814      1.0  0.73553  0.66496  0.19345  1.0000
  C   C815      1.0  0.75469  0.67608  0.19969  1.0000
  H   H954      1.0  0.68863  0.68563  0.14003  1.0000
  H   H955      1.0  0.67603  0.71204  0.13026  1.0000
  H   H956      1.0  0.70566  0.70638  0.12513  1.0000
  H   H957      1.0  0.67206  0.69078  0.18815  1.0000
  H   H958      1.0  0.67706  0.94082  0.39083  1.0000
  H   H959      1.0  0.67880  0.71453  0.20869  1.0000
  H   H960      1.0  0.69993  0.74486  0.18652  1.0000
  H   H961      1.0  0.71171  0.74118  0.15120  1.0000
  H   H962      1.0  0.68231  0.74529  0.15645  1.0000
  H   H963      1.0  0.73671  0.72923  0.18539  1.0000
  H   H964      1.0  0.70214  0.66733  0.17904  1.0000
  H   H965      1.0  0.76961  0.70777  0.20185  1.0000
  H   H966      1.0  0.73558  0.64688  0.19540  1.0000
  H   H967      1.0  0.76966  0.66666  0.20650  1.0000
  C   C816      1.0  0.82627  0.53077  0.20981  1.0000
  N   N54       1.0  0.79562  0.72423  0.29018  1.0000
  C   C817      1.0  0.80010  0.71888  0.32036  1.0000
  C   C818      1.0  0.81382  0.71366  0.27258  1.0000
  C   C819      1.0  0.79661  0.74879  0.28640  1.0000
  C   C820      1.0  0.77389  0.71550  0.28218  1.0000
  C   C821      1.0  0.75524  0.72955  0.27374  1.0000
  C   C822      1.0  0.77088  0.69219  0.28280  1.0000
  C   C823      1.0  0.73516  0.72057  0.26567  1.0000
  C   C824      1.0  0.75083  0.68337  0.27451  1.0000
  C   C825      1.0  0.73302  0.69752  0.26587  1.0000
  H   H968      1.0  0.80157  0.70057  0.32458  1.0000
  H   H969      1.0  0.81606  0.72568  0.32742  1.0000
  H   H970      1.0  0.78659  0.72606  0.33437  1.0000
  H   H971      1.0  0.81634  0.69550  0.27692  1.0000
  H   H972      1.0  0.83027  0.72078  0.27680  1.0000
  H   H973      1.0  0.81031  0.71580  0.24964  1.0000
  H   H974      1.0  0.81351  0.75453  0.29124  1.0000
  H   H975      1.0  0.79309  0.75406  0.26420  1.0000
  H   H976      1.0  0.78478  0.75806  0.30095  1.0000
  H   H977      1.0  0.75566  0.74754  0.27340  1.0000
  H   H978      1.0  0.78406  0.68058  0.28988  1.0000
  H   H979      1.0  0.72113  0.73156  0.25938  1.0000
  H   H980      1.0  0.74915  0.66543  0.27490  1.0000
  H   H981      1.0  0.71750  0.69059  0.25946  1.0000
  N   N55       1.0  0.78589  0.90024  0.29110  1.0000
  C   C826      1.0  0.80845  0.88879  0.28996  1.0000
  C   C827      1.0  0.77619  0.89563  0.31942  1.0000
  C   C828      1.0  0.77208  0.89006  0.26930  1.0000
  C   C829      1.0  0.78595  0.92468  0.28623  1.0000
  C   C830      1.0  0.76569  0.93796  0.28797  1.0000
  C   C831      1.0  0.80571  0.93600  0.27972  1.0000
  C   C832      1.0  0.75892  0.80693  0.43528  1.0000
  H   H982      1.0  0.81095  0.79394  0.44212  1.0000
  C   C833      1.0  0.76525  0.96107  0.28370  1.0000
  H   H983      1.0  0.81958  0.89526  0.30636  1.0000
  H   H984      1.0  0.80761  0.87045  0.29395  1.0000
  H   H985      1.0  0.81641  0.89060  0.26875  1.0000
  H   H986      1.0  0.78450  0.90499  0.33622  1.0000
  H   H987      1.0  0.77759  0.87756  0.32505  1.0000
  H   H988      1.0  0.75812  0.90043  0.32058  1.0000
  H   H989      1.0  0.77878  0.89318  0.24766  1.0000
  H   H990      1.0  0.77143  0.87162  0.27244  1.0000
  H   H991      1.0  0.75447  0.89685  0.26974  1.0000
  H   H992      1.0  0.74997  0.93060  0.29291  1.0000
  H   H993      1.0  0.82190  0.92739  0.27785  1.0000
  H   H994      1.0  0.74395  0.80602  0.44930  1.0000
  C   C834      1.0  0.85859  0.69788  0.47615  1.0000
  H   H995      1.0  0.77493  0.62907  0.99837  1.0000
  C   C835      1.0  0.67452  0.80178  0.25310  1.0000
  H   H996      1.0  0.68813  0.79855  0.26766  1.0000
  H   H997      1.0  0.70111  0.87626  0.43847  1.0000
  H   H998      1.0  0.84297  0.82166  0.37020  1.0000
  H   H999      1.0  0.84192  0.79366  0.40867  1.0000
  H   H1000     1.0  0.78725  0.55172  0.19847  1.0000
  H   H1001     1.0  0.86819  0.55367  0.20521  1.0000
  H   H1002     1.0  0.67963  0.77022  0.23170  1.0000
  H   H1003     1.0  0.84344  0.55676  0.16943  1.0000
  H   H1004     1.0  0.82393  0.52528  0.23215  1.0000
  C   C836      1.0  0.66959  0.78567  0.23264  1.0000
  H   H1005     1.0  0.70616  0.81099  0.47669  1.0000
  C   C837      1.0  0.87581  0.57531  0.23874  1.0000
  H   H1006     1.0  0.73343  0.48256  0.08552  1.0000
  C   C838      1.0  0.70493  0.82895  0.47871  1.0000
  C   C839      1.0  0.86105  0.56423  0.22168  1.0000
  N   N56       1.0  0.77417  0.82387  0.44505  1.0000
  C   C840      1.0  0.97791  0.68683  0.32401  1.0000
  C   C841      1.0  0.86763  0.58920  0.26030  1.0000
  C   C842      1.0  0.79350  0.82411  0.42527  1.0000
  H   H1007     1.0  0.87903  0.59800  0.27335  1.0000
  C   C843      1.0  0.84470  0.59193  0.26502  1.0000
  H   H1008     1.0  0.77278  0.85969  0.45009  1.0000
  C   C844      1.0  0.81110  0.80737  0.42679  1.0000
  H   H1009     1.0  0.79357  0.55516  0.23487  1.0000
  H   H1010     1.0  0.71299  0.64520  0.04105  1.0000
  H   H1011     1.0  0.93094  0.66375  0.43588  1.0000
  H   H1012     1.0  0.82029  0.96756  0.27072  1.0000
  C   C845      1.0  0.78488  0.97168  0.27758  1.0000
  N   N57       1.0  0.82227  0.55529  0.20685  1.0000
  C   C846      1.0  0.79826  0.56053  0.21311  1.0000
  H   H1013     1.0  0.79404  0.57875  0.21060  1.0000
  H   H1014     1.0  0.97581  0.67164  0.31238  1.0000
  C   C847      1.0  0.80506  0.95918  0.27552  1.0000
  H   H1015     1.0  0.81226  0.58429  0.25263  1.0000
  H   H1016     1.0  0.81465  0.55374  0.16242  1.0000
  C   C848      1.0  0.79440  0.83964  0.40240  1.0000
  C   C849      1.0  0.82635  0.56177  0.17694  1.0000
  H   H1017     1.0  0.65843  0.64623  0.18639  1.0000
  C   C850      1.0  0.95718  0.67598  0.40943  1.0000
  H   H1018     1.0  0.82405  0.58021  0.17396  1.0000
  C   C851      1.0  0.82953  0.82267  0.38572  1.0000
  H   H1019     1.0  0.81220  0.85043  0.36527  1.0000
  H   H1020     1.0  0.78121  0.85216  0.39862  1.0000
  C   C852      1.0  0.82896  0.80695  0.40754  1.0000
  H   H1021     1.0  0.66683  0.65694  0.08298  1.0000
  C   C853      1.0  0.81222  0.83888  0.38305  1.0000
  H   H1022     1.0  0.69858  0.89309  0.48631  1.0000
  H   H1023     1.0  0.93874  0.72061  0.43949  1.0000
  C   C854      1.0  0.73383  0.96999  0.35068  1.0000
  H   H1024     1.0  0.75167  0.84954  0.42692  1.0000
  H   H1025     1.0  0.78503  0.52595  0.06372  1.0000
  H   H1026     1.0  0.75268  0.81100  0.41359  1.0000
  H   H1027     1.0  0.74542  0.96551  0.36743  1.0000
  H   H1028     1.0  0.90452  0.70907  0.46388  1.0000
  C   C855      1.0  0.96177  0.66618  0.45864  1.0000
  C   C856      1.0  0.74912  0.48442  0.07454  1.0000
  H   H1029     1.0  0.78723  0.80024  0.47666  1.0000
  H   H1030     1.0  0.74882  0.84640  0.46379  1.0000
  C   C857      1.0  0.91895  0.71313  0.47620  1.0000
  C   C858      1.0  0.65173  0.78928  0.21363  1.0000
  H   H1031     1.0  0.66067  0.71782  0.17881  1.0000
  C   C859      1.0  0.95683  0.72471  0.47811  1.0000
  C   C860      1.0  0.66050  0.64882  0.16386  1.0000
  H   H1032     1.0  0.72721  0.62369  0.00120  1.0000
  C   C861      1.0  0.70060  0.87514  0.48429  1.0000
  H   H1033     1.0  0.74883  0.51906  0.08656  1.0000
  H   H1034     1.0  0.74958  0.97087  0.28537  1.0000
  C   C862      1.0  0.68868  0.96287  0.42254  1.0000
  H   H1035     1.0  0.80661  0.49513  0.03997  1.0000
  C   C863      1.0  0.67680  0.97485  0.37606  1.0000
  H   H1036     1.0  0.79388  0.48070  0.14919  1.0000
  C   C864      1.0  0.77831  0.50951  0.06259  1.0000
  H   H1037     1.0  0.67064  0.97087  0.35532  1.0000
  C   C865      1.0  0.76923  0.56526  0.99359  1.0000
  C   C866      1.0  0.97949  0.68174  0.40787  1.0000
  C   C867      1.0  0.67518  0.66378  0.99205  1.0000
  H   H1038     1.0  0.66103  0.67559  0.98971  1.0000
  Fe  Fe117     1.0  0.70627  0.86479  0.58854  1.0000
  S   S233      1.0  0.73786  0.87891  0.60399  1.0000
  S   S234      1.0  0.69860  0.87481  0.54250  1.0000
  Fe  Fe118     1.0  0.69530  0.84586  0.64838  1.0000
  S   S235      1.0  0.72647  0.85910  0.66699  1.0000
  C   C868      1.0  0.76886  0.49785  0.94415  1.0000
  Fe  Fe119     1.0  0.71825  0.89098  0.64187  1.0000
  S   S236      1.0  0.72579  0.92477  0.66184  1.0000
  Fe  Fe120     1.0  0.74373  0.84637  0.62737  1.0000
  S   S237      1.0  0.77937  0.83192  0.62149  1.0000
  S   S238      1.0  0.68584  0.87854  0.62572  1.0000
  S   S239      1.0  0.71331  0.83132  0.60958  1.0000
  Fe  Fe121     1.0  0.77162  0.57780  0.89141  1.0000
  S   S240      1.0  0.73657  0.57575  0.87573  1.0000
  S   S241      1.0  0.77658  0.56340  0.93600  1.0000
  Fe  Fe122     1.0  0.78843  0.59398  0.83194  1.0000
  S   S242      1.0  0.75426  0.59226  0.81330  1.0000
  S   S243      1.0  0.81840  0.60862  0.80856  1.0000
  Fe  Fe123     1.0  0.74158  0.60858  0.85355  1.0000
  S   S244      1.0  0.72299  0.64228  0.86093  1.0000
  Fe  Fe124     1.0  0.75282  0.55931  0.83751  1.0000
  S   S245      1.0  0.73962  0.52744  0.81870  1.0000
  S   S246      1.0  0.77598  0.61148  0.87150  1.0000
  S   S247      1.0  0.78777  0.56021  0.85385  1.0000
  Fe  Fe125     1.0  0.85271  0.72440  0.66286  1.0000
  S   S248      1.0  0.83700  0.69659  0.64056  1.0000
  S   S249      1.0  0.82741  0.74860  0.68416  1.0000
  Fe  Fe126     1.0  0.90075  0.70423  0.65038  1.0000
  S   S250      1.0  0.88711  0.67464  0.62798  1.0000
  S   S251      1.0  0.93698  0.71586  0.64564  1.0000
  Fe  Fe127     1.0  0.86338  0.69978  0.60683  1.0000
  S   S252      1.0  0.85400  0.70829  0.56099  1.0000
  Fe  Fe128     1.0  0.86155  0.67392  0.66431  1.0000
  S   S253      1.0  0.84427  0.64356  0.68373  1.0000
  S   S254      1.0  0.87747  0.72927  0.62790  1.0000
  S   S255      1.0  0.87672  0.70192  0.68787  1.0000
  C   C869      1.0  0.74891  0.49913  0.82574  1.0000
  H   H1039     1.0  0.81604  0.77099  0.58552  1.0000
  H   H1040     1.0  0.81757  0.70412  0.70781  1.0000
  H   H1041     1.0  0.65154  0.64533  0.80892  1.0000
  H   H1042     1.0  0.77773  0.50677  0.84991  1.0000
  C   C870      1.0  0.82410  0.61934  0.77378  1.0000
  C   C871      1.0  0.81300  0.61239  0.74972  1.0000
  C   C872      1.0  0.81934  0.62005  0.72252  1.0000
  C   C873      1.0  0.83636  0.63532  0.71887  1.0000
  C   C874      1.0  0.84690  0.64284  0.74304  1.0000
  C   C875      1.0  0.84105  0.63464  0.77016  1.0000
  H   H1043     1.0  0.79993  0.60070  0.75191  1.0000
  H   H1044     1.0  0.81104  0.61408  0.70406  1.0000
  H   H1045     1.0  0.86005  0.65447  0.74076  1.0000
  H   H1046     1.0  0.84992  0.64009  0.78845  1.0000
  C   C876      1.0  0.72053  0.95310  0.65008  1.0000
  H   H1047     1.0  0.67452  0.82480  0.77665  1.0000
  C   C877      1.0  0.71102  0.95860  0.62383  1.0000
  H   H1048     1.0  0.73355  0.96679  0.68818  1.0000
  H   H1049     1.0  0.70637  0.94541  0.60993  1.0000
  C   C878      1.0  0.79200  0.80849  0.63912  1.0000
  C   C879      1.0  0.81352  0.80082  0.63050  1.0000
  C   C880      1.0  0.82430  0.78214  0.64364  1.0000
  C   C881      1.0  0.81383  0.77124  0.66600  1.0000
  C   C882      1.0  0.79235  0.77900  0.67481  1.0000
  C   C883      1.0  0.78134  0.79740  0.66120  1.0000
  H   H1050     1.0  0.82193  0.80941  0.61355  1.0000
  H   H1051     1.0  0.84094  0.77649  0.63694  1.0000
  H   H1052     1.0  0.78419  0.77074  0.69223  1.0000
  H   H1053     1.0  0.76481  0.80324  0.66810  1.0000
  H   H1054     1.0  0.92878  0.69087  0.58633  1.0000
  C   C884      1.0  0.66850  0.68503  0.85351  1.0000
  C   C885      1.0  0.68925  0.67483  0.86127  1.0000
  C   C886      1.0  0.69651  0.65395  0.85038  1.0000
  C   C887      1.0  0.68277  0.64331  0.83155  1.0000
  C   C888      1.0  0.75210  0.76326  0.52289  1.0000
  H   H1055     1.0  0.69971  0.68320  0.87591  1.0000
  H   H1056     1.0  0.68809  0.62722  0.82301  1.0000
  H   H1057     1.0  0.80411  0.71897  0.54881  1.0000
  H   H1058     1.0  0.68571  0.83660  0.72812  1.0000
  H   H1059     1.0  0.66755  0.69260  0.77616  1.0000
  C   C889      1.0  0.70157  0.86170  0.50890  1.0000
  C   C890      1.0  0.70400  0.83850  0.50593  1.0000
  H   H1060     1.0  0.72906  0.59676  0.97086  1.0000
  H   H1061     1.0  0.70437  0.82796  0.52463  1.0000
  C   C891      1.0  0.87148  0.67456  0.52569  1.0000
  C   C892      1.0  0.85999  0.69537  0.52793  1.0000
  C   C893      1.0  0.87658  0.66556  0.49877  1.0000
  H   H1062     1.0  0.87643  0.66541  0.54462  1.0000
  H   H1063     1.0  0.84469  0.72302  0.50445  1.0000
  C   C894      1.0  0.77372  0.57753  0.96880  1.0000
  C   C895      1.0  0.67462  0.73243  0.79422  1.0000
  C   C896      1.0  0.77592  0.60055  0.97075  1.0000
  H   H1064     1.0  0.73449  0.79540  0.51981  1.0000
  H   H1065     1.0  0.77997  0.61008  0.95201  1.0000
  C   C897      1.0  0.96618  0.70897  0.65130  1.0000
  H   H1066     1.0  0.82332  0.75295  0.55649  1.0000
  H   H1067     1.0  0.79785  0.73299  0.62337  1.0000
  C   C898      1.0  0.91812  0.71187  0.50573  1.0000
  H   H1068     1.0  0.96215  0.67709  0.67141  1.0000
  N   N58       1.0  0.93528  0.71532  0.55374  1.0000
  C   C899      1.0  0.92885  0.69271  0.56280  1.0000
  C   C900      1.0  0.95661  0.71976  0.56794  1.0000
  C   C901      1.0  0.91799  0.73188  0.56416  1.0000
  H   H1069     1.0  0.82261  0.54618  0.80587  1.0000
  H   H1070     1.0  0.78560  0.76032  0.61936  1.0000
  C   C902      1.0  0.93676  0.71671  0.52245  1.0000
  C   C903      1.0  0.66657  0.81780  0.75855  1.0000
  H   H1071     1.0  0.66898  0.74969  0.80050  1.0000
  C   C904      1.0  0.66205  0.65363  0.82359  1.0000
  H   H1072     1.0  0.91170  0.68902  0.55606  1.0000
  H   H1073     1.0  0.66313  0.70102  0.86228  1.0000
  C   C905      1.0  0.95626  0.72327  0.50769  1.0000
  C   C906      1.0  0.78927  0.49878  0.76336  1.0000
  H   H1074     1.0  0.95510  0.71808  0.59131  1.0000
  H   H1075     1.0  0.83601  0.50883  0.80141  1.0000
  C   C907      1.0  0.69182  0.76001  0.75034  1.0000
  H   H1076     1.0  0.91720  0.73204  0.58775  1.0000
  H   H1077     1.0  0.90093  0.72823  0.55693  1.0000
  H   H1078     1.0  0.82417  0.56569  0.77733  1.0000
  H   H1079     1.0  0.66766  0.69783  0.73915  1.0000
  H   H1080     1.0  0.97122  0.72756  0.51848  1.0000
  H   H1081     1.0  0.82863  0.74387  0.59214  1.0000
  H   H1082     1.0  0.69283  0.70082  0.75889  1.0000
  H   H1083     1.0  0.70031  0.59146  0.96473  1.0000
  H   H1084     1.0  0.76935  0.73692  0.61169  1.0000
  H   H1085     1.0  0.77079  0.54185  0.76310  1.0000
  C   C908      1.0  0.71537  0.59887  0.95529  1.0000
  H   H1086     1.0  0.81116  0.55706  0.73099  1.0000
  H   H1087     1.0  0.94061  0.67953  0.55407  1.0000
  C   C909      1.0  0.81023  0.53906  0.73683  1.0000
  C   C910      1.0  0.75720  0.79369  0.55475  1.0000
  H   H1088     1.0  0.82611  0.53030  0.72973  1.0000
  C   C911      1.0  0.68287  0.65116  0.96885  1.0000
  H   H1089     1.0  0.77086  0.73298  0.53046  1.0000
  C   C912      1.0  0.77272  0.78036  0.57003  1.0000
  C   C913      1.0  0.66286  0.81585  0.70721  1.0000
  C   C914      1.0  0.78501  0.54723  0.77583  1.0000
  H   H1090     1.0  0.78525  0.56569  0.77333  1.0000
  H   H1091     1.0  0.69301  0.73031  0.79697  1.0000
  C   C915      1.0  0.73167  0.63220  0.93708  1.0000
  C   C916      1.0  0.76820  0.49363  0.84128  1.0000
  C   C917      1.0  0.69518  0.62259  0.92244  1.0000
  N   N59       1.0  0.71062  0.62258  0.94687  1.0000
  S   S256      1.0  0.67012  0.82366  0.67166  1.0000
  C   C918      1.0  0.81640  0.75340  0.57844  1.0000
  H   H1092     1.0  0.77618  0.50621  0.75026  1.0000
  C   C919      1.0  0.98209  0.72414  0.64212  1.0000
  N   N60       1.0  0.79404  0.74387  0.57982  1.0000
  H   H1093     1.0  0.71046  0.78769  0.73523  1.0000
  C   C920      1.0  0.85352  0.70689  0.50302  1.0000
  H   H1094     1.0  0.70196  0.61172  0.90506  1.0000
  C   C921      1.0  0.77812  0.75782  0.56256  1.0000
  C   C922      1.0  0.69657  0.77001  0.70095  1.0000
  H   H1095     1.0  0.67405  0.65402  0.94927  1.0000
  C   C923      1.0  0.78634  0.74351  0.60976  1.0000
  C   C924      1.0  0.65479  0.67454  0.83450  1.0000
  H   H1096     1.0  0.77363  0.51460  0.94911  1.0000
  C   C925      1.0  0.67446  0.73876  0.71402  1.0000
  N   N61       1.0  0.66802  0.72758  0.76480  1.0000
  H   H1097     1.0  0.69281  0.63946  0.91255  1.0000
  H   H1098     1.0  0.79649  0.53242  0.72426  1.0000
  H   H1099     1.0  0.66684  0.72100  0.80977  1.0000
  H   H1100     1.0  0.74394  0.75666  0.50461  1.0000
  H   H1101     1.0  0.69506  0.76444  0.77193  1.0000
  H   H1102     1.0  0.72190  0.48562  0.80266  1.0000
  N   N62       1.0  0.78941  0.88836  0.68342  1.0000
  C   C926      1.0  0.77059  0.89920  0.69975  1.0000
  C   C927      1.0  0.80853  0.90310  0.68505  1.0000
  C   C928      1.0  0.78241  0.88712  0.65353  1.0000
  C   C929      1.0  0.79617  0.86565  0.69384  1.0000
  C   C930      1.0  0.81471  0.85362  0.68140  1.0000
  C   C931      1.0  0.78453  0.85467  0.71591  1.0000
  C   C932      1.0  0.82165  0.83231  0.69109  1.0000
  C   C933      1.0  0.79155  0.83327  0.72530  1.0000
  C   C934      1.0  0.81015  0.82219  0.71305  1.0000
  H   H1103     1.0  0.77459  0.90049  0.72257  1.0000
  H   H1104     1.0  0.76639  0.91651  0.69200  1.0000
  H   H1105     1.0  0.75493  0.89016  0.69751  1.0000
  H   H1106     1.0  0.81494  0.90362  0.70705  1.0000
  H   H1107     1.0  0.80367  0.92053  0.67835  1.0000
  H   H1108     1.0  0.82267  0.89754  0.67104  1.0000
  H   H1109     1.0  0.76932  0.87482  0.65124  1.0000
  H   H1110     1.0  0.77531  0.90346  0.64539  1.0000
  H   H1111     1.0  0.79632  0.88158  0.63912  1.0000
  H   H1112     1.0  0.82369  0.86038  0.66361  1.0000
  H   H1113     1.0  0.76978  0.86211  0.72601  1.0000
  H   H1114     1.0  0.83563  0.82327  0.68097  1.0000
  H   H1115     1.0  0.78233  0.82508  0.74193  1.0000
  H   H1116     1.0  0.81532  0.80544  0.71999  1.0000
  N   N63       1.0  0.80668  0.53595  0.76767  1.0000
  H   H1117     1.0  0.75306  0.81071  0.56143  1.0000
  H   H1118     1.0  0.84151  0.54076  0.77622  1.0000
  C   C935      1.0  0.80629  0.51177  0.77443  1.0000
  C   C936      1.0  0.72637  0.97069  0.66773  1.0000
  H   H1119     1.0  0.97032  0.70765  0.56142  1.0000
  H   H1120     1.0  0.70281  0.78125  0.68490  1.0000
  C   C937      1.0  0.70158  0.63570  0.97118  1.0000
  H   H1121     1.0  0.67862  0.61645  0.92871  1.0000
  H   H1122     1.0  0.88549  0.64947  0.49721  1.0000
  C   C938      1.0  0.75644  0.49428  0.92003  1.0000
  C   C939      1.0  0.82455  0.54748  0.78247  1.0000
  C   C940      1.0  0.67837  0.74202  0.74324  1.0000
  C   C941      1.0  0.79668  0.72029  0.57047  1.0000
  H   H1123     1.0  0.73980  0.62217  0.91976  1.0000
  H   H1124     1.0  0.78032  0.78791  0.58796  1.0000
  C   C942      1.0  0.70085  0.77362  0.72938  1.0000
  C   C943      1.0  0.68340  0.75262  0.69328  1.0000
  H   H1125     1.0  0.72110  0.58839  0.93702  1.0000
  C   C944      1.0  0.82256  0.50042  0.79179  1.0000
  C   C945      1.0  0.76757  0.74974  0.53813  1.0000
  H   H1126     1.0  0.74394  0.63303  0.95444  1.0000
  H   H1127     1.0  0.78085  0.54345  0.79825  1.0000
  H   H1128     1.0  0.96170  0.73710  0.56390  1.0000
  C   C946      1.0  0.67435  0.70373  0.75942  1.0000
  C   C947      1.0  0.97399  0.68899  0.66418  1.0000
  N   N64       1.0  0.77932  0.67113  0.80247  1.0000
  C   C948      1.0  0.79722  0.66697  0.82361  1.0000
  C   C949      1.0  0.76232  0.68743  0.81424  1.0000
  C   C950      1.0  0.76815  0.64983  0.79847  1.0000
  C   C951      1.0  0.78913  0.68017  0.77608  1.0000
  C   C952      1.0  0.79997  0.70072  0.77633  1.0000
  C   C953      1.0  0.78879  0.66885  0.74978  1.0000
  C   C954      1.0  0.80991  0.70929  0.75188  1.0000
  C   C955      1.0  0.79880  0.67761  0.72550  1.0000
  C   C956      1.0  0.80942  0.69769  0.72658  1.0000
  H   H1129     1.0  0.79091  0.65868  0.84310  1.0000
  H   H1130     1.0  0.81100  0.65587  0.81484  1.0000
  H   H1131     1.0  0.80480  0.68256  0.83033  1.0000
  H   H1132     1.0  0.76966  0.70319  0.82083  1.0000
  H   H1133     1.0  0.75387  0.68060  0.83340  1.0000
  H   H1134     1.0  0.74913  0.69176  0.79842  1.0000
  H   H1135     1.0  0.78018  0.63636  0.79109  1.0000
  H   H1136     1.0  0.76080  0.64362  0.81863  1.0000
  H   H1137     1.0  0.75420  0.65178  0.78317  1.0000
  H   H1138     1.0  0.80120  0.71013  0.79556  1.0000
  H   H1139     1.0  0.78143  0.65292  0.74745  1.0000
  H   H1140     1.0  0.81837  0.72488  0.75244  1.0000
  H   H1141     1.0  0.79900  0.66841  0.70583  1.0000
  H   H1142     1.0  0.78051  0.71195  0.57106  1.0000
  H   H1143     1.0  0.72863  0.64953  0.92880  1.0000
  C   C957      1.0  0.67299  0.82457  0.73098  1.0000
  H   H1144     1.0  0.92151  0.74905  0.55683  1.0000
  H   H1145     1.0  0.80837  0.71023  0.58436  1.0000
  H   H1146     1.0  0.75177  0.50831  0.90623  1.0000
  H   H1147     1.0  0.66397  0.72580  0.70700  1.0000
  H   H1148     1.0  0.90266  0.70722  0.51543  1.0000
  H   H1149     1.0  0.67964  0.75031  0.67115  1.0000
  H   H1150     1.0  0.78565  0.48271  0.97983  1.0000
  H   H1151     1.0  0.97640  0.73975  0.63233  1.0000
  C   C958      1.0  0.74679  0.78511  0.53132  1.0000
  C   C959      1.0  0.73685  0.48164  0.81471  1.0000
  C   C960      1.0  0.64996  0.80222  0.76295  1.0000
  H   H1152     1.0  0.76730  0.82021  0.48989  1.0000
