data_image0
_chemical_formula_structural       HCH2CSFeCSH2SHS2H2C6H6NH4CFeCFeC2H3C2H2CH2CH5SH2CHCHCH3FeCSH3SC2SHSCHCH2CH4NHCH2C6H5CSC2FeH2NHC3HC2SH2C2H2C2SHFeCH4C2HC2HCSHC3HC2H3CFeCSFeC2H2CSHCHC6H2SC6HC2HSH5CHSH2CH2CHSHSHCH3NFeHCNCH3CH3CHCH2C2H2C2FeC3H2NCH3CH3CHC4H2CHSCSHFeSFeSFeSC5HCH2C2H2CSC2SC5H4C2H3C2H2SC2H6C2H2CNHCH3C2HNH2FeC2HC2H2SHC2HCH2CH3SHCNHCHC2FeSCFeS2FeSFeCSHFeS2FeSHCS2FeS2FeS2FeSFeS3FeS2FeS2FeSFeS3FeSHFeS2HC6H4C5H2C2HC4H3C6H4CH3CHC6H2C4HC6H5CH3NSHCH2C2HCH3C2H2C2H2SHC2HCH2SC2HSC2H2CFeHNFeSH2CHC2HFeHCH3CHNH2NC5H9CH3SH3C2HCH2CNC2H3C2HNC9H16CSH4C2HCHC6H2CH2NC5HCH4FeH4SH3NC8H12C2HCH2CHCHFeCH8C2HC3HCH2C4H2NC4H2CH2CH3C2SC3SHCH2C2H5CS2FeSFeHFeS2FeS2FeSFeS3HFeS2FeS2FeSFeS3FeS2FeS2FeSFeS4FeS2FeS2C7H5CHC6H4C6H4CH3C4H3C7H4CNC4HC4H3C2HCH2CH2CH3CHFeSCH3CHC2SC2HC3HNCH2CH3NC5H8CHNC9H21CHCHC2NHCHCHCNH4C4NC9H14CH4CHCSFeCHCHC3HC3HCH2CFeH8CSHCHC2HCH2C2SHC3H2C2H4C2SHC2NH6CHSHCNH4C2H2CH2NCH3C3H2C2HSC3HFeSHSCFeHFeSHFeSFeS2FeSFeHSH2FeS2FeS2FeSFeS3FeS2FeS2FeS2FeS2FeSFeS3C2SCH3C6H4SC6H4C6H5C4H2C6H9SHC8H2CFe2NC9H14S2NCH8C2H2C3H6CHC2H2CNC9H17C2HC2HC3H3SCHCHC4HC3HC2NC7H14CSCH5CFeSHC4H3NHCH2CHSCH2NCH2CH2CHC2NCHC3H5NHCHCSCH2CH2CHC2HCHC3HCHC2HC2H4C2H2CHCHCSH2C2H4CH8FeS2FeS2FeSFeS3FeS2FeS2FeS2FeS2FeSFeS3HFeS2FeS2FeSFeS2FeSFeHSH2S2C2HCHFeHCH6CHC2H2C4H5CH2C4H2SC6H2CH2C6H4C7H4C6H2NHC6H4CH2SCHCHC2HSCH3CFeH2CHCSH3SHC2HCH2CS2H2CH4C2H3CNC8H7NHC2HCNCH2C3FeNCHCH2C2HCH2NC2HCH3CH3NHC2HC3H2CH2CH3CN2CHCH4CH2CHCHC2H2CHC3H2CH2NC2H2CH2CH3C2HCH10CH2C4H2CSCHC2HSCH2CH10CHCHCHC2FeC5H2CHC2H2CH4CHC3HC2Fe2SHFe2S3FeS2FeS2FeSFeS4FeS2FeS2FeCFeS4CHCNC3FeHSC7HCH2C6H4C6H5C4H2CHCHCHC3HCHC6H4CFeSH3C3HC2H3CHC5NCH5CHCH2CH7CH2NC2H4C3H2SHCH3CNC9H13CNC9H12C3S2CH8C3H3C2HSCHNC5SH2C3H4CH2C2HCNHCH2CH3CH2CHCHC3H2C2HCHC2SH7CHSHC2HCHSCH2CH4C2HNH2CH2C3HFeH2C4HSFeS2FeS2FeSFeS3FeSFeS2FeSFeSFeS2FeS2FeSFeS3HCFeSC6H6SC6H4C6H3CH8C6H4C6H4CHC2H2NC3HC2HNH2C3HSNC2H3CH2C2H5CHSCH2SCHCHCNSCHSHNC9H12SHNC9H17CH3CH2CNH3C2NH4FeCH2C3HC3H4C2HC3H2CH2C4HSH2CFeC4HNHC2H2SC2H5CH3CHC2HCHCH4SH6CFeH2CHCH2CHCHCHC2HNH2C2HCH2FeS2FeS2FeSFeS3HSFeS2Fe3S3C2FeSHFeS2FeSFeS3C3H2CH2FeCSCHCHC6H4C6H4C6H4C6H4C3HCHSCSHCSH3CH6CHCH3NC9H14NC9H15CH2CHC2H2CH2CHC3NH2CH4C2HCH2CH2CHCHC2H2SHCH2NC2H3C3H2C5H5CNCH2CH2NH2SH5C2HSC2H2SFeHC2H2CH8C4H4C4HFeS2FeS2FeSFeS3HSFeS2Fe2SFeS2FeS2FeS2FeSFeS4HFe2H2SCHCHC2H6C3H2SCH2CHCHC7H4C6H5CH2CH3CHC6H4CH2CH2SHNC9H13CNHC4HC2H4C4H4CH3CHCH2FeH2C3NC9H5CH4CH3NC4HCH9CH2CHC2HC8HNH2SCSC5H3CHC2HCH2SCHNH6C4SCH2CH2CHC2H2C2HC2H2C2HCNH2SCHCHC2HCHCH2SH3C2H4NCHC2H2SH3CSHCSCSHFeSFeHSHFeS2FeSHFeSFeCS2H2SHC4H2FeH2FeC3H2SHCH2CHCH2SHNHC7H4C2H6C4H5CHC3HSNHCHCH2CH2NC3HC3HCH8C4H2FeH2C2HC2H8NH3SH4CHCHFeSCFeS2FeSFeS3FeSHSHFeSFeC2SCHSH2CH2CHSHC3HC2H3C2HC2H2FeHC2H2C4H2C7H2CHC4FeNCH8CHCH2C3H2NCHC3H7C5H3CH2NHSHSH2CHCH6SH2CH3C3HS3H6CHCSHSHSHFeS2FeSCFeNFeS3FeHSFeCSNHCS2H2C5HC2H4SNC2H3FeCHC6H4NHC2HCHC4HCH2C2HCH4CH5NH2SHC2HC2SNC3HFeH2CSCFeH2C2HCH6CH4C3HC2H2C6H4FeH5C3HCH2C3FeH4CH2CHCHC3H2CH2CH5CH2CSFeSHFeSFeHSHFeS2FeSNFeSFeS3H3CH2CHCH2C7H4C4H2CH3C5HCHC7HSC4HC2H2NC9H16CFeCH3C3HSCHFeHCH2CHNCSH3C2NH2CSCHCH2CHCSHCH3CH4C2HNHCH2S
_chemical_formula_sum              "H1728 C1440 S384 Fe192 N96"
_cell_length_a       57.3838
_cell_length_b       57.2099
_cell_length_c       88.3757
_cell_angle_alpha    90.1748
_cell_angle_beta     90.3528
_cell_angle_gamma    116.782

_space_group_name_H-M_alt    "P 1"
_space_group_IT_number       1

loop_
  _space_group_symop_operation_xyz
  'x, y, z'

loop_
  _atom_site_type_symbol
  _atom_site_label
  _atom_site_symmetry_multiplicity
  _atom_site_fract_x
  _atom_site_fract_y
  _atom_site_fract_z
  _atom_site_occupancy
  H   H1        1.0  0.41549  0.46630  0.04847  1.0000
  C   C1        1.0  0.48130  0.37787  0.20874  1.0000
  H   H2        1.0  0.37521  0.47684  0.09959  1.0000
  H   H3        1.0  0.45629  0.28331  0.00787  1.0000
  C   C2        1.0  0.47419  0.38900  0.16682  1.0000
  S   S1        1.0  0.37493  0.47822  0.03716  1.0000
  Fe  Fe1       1.0  0.45349  0.39136  0.02157  1.0000
  C   C3        1.0  0.48201  0.35517  0.17816  1.0000
  S   S2        1.0  0.41633  0.39577  0.01601  1.0000
  H   H4        1.0  0.39865  0.33989  0.01179  1.0000
  H   H5        1.0  0.48884  0.21778  0.99886  1.0000
  S   S3        1.0  0.48674  0.41481  0.03755  1.0000
  H   H6        1.0  0.37614  0.30633  0.00778  1.0000
  S   S4        1.0  0.47975  0.39684  0.00160  1.0000
  S   S5        1.0  0.45274  0.35249  0.02796  1.0000
  H   H7        1.0  0.43321  0.37128  0.18610  1.0000
  H   H8        1.0  0.48247  0.39651  0.08123  1.0000
  C   C4        1.0  0.38747  0.45662  0.03022  1.0000
  C   C5        1.0  0.40746  0.45434  0.03848  1.0000
  C   C6        1.0  0.41716  0.43661  0.03402  1.0000
  C   C7        1.0  0.40659  0.42033  0.02137  1.0000
  C   C8        1.0  0.38663  0.42263  0.01309  1.0000
  C   C9        1.0  0.37733  0.44080  0.01735  1.0000
  H   H9        1.0  0.35797  0.47626  0.06803  1.0000
  H   H10       1.0  0.43236  0.43507  0.04060  1.0000
  H   H11       1.0  0.46506  0.37626  0.15676  1.0000
  H   H12       1.0  0.36185  0.44205  0.01092  1.0000
  H   H13       1.0  0.43208  0.34644  0.17313  1.0000
  H   H14       1.0  0.37814  0.41014  0.00333  1.0000
  N   N1        1.0  0.47069  0.37355  0.18087  1.0000
  H   H15       1.0  0.43780  0.34404  0.19279  1.0000
  H   H16       1.0  0.47161  0.35683  0.20995  1.0000
  H   H17       1.0  0.49157  0.38313  0.23248  1.0000
  H   H18       1.0  0.24111  0.49721  0.01210  1.0000
  C   C10       1.0  0.49474  0.39173  0.08866  1.0000
  Fe  Fe2       1.0  0.48080  0.35936  0.00878  1.0000
  C   C11       1.0  0.45499  0.25205  0.99336  1.0000
  Fe  Fe3       1.0  0.48836  0.37697  0.04245  1.0000
  C   C12       1.0  0.44223  0.35816  0.18334  1.0000
  C   C13       1.0  0.49266  0.39274  0.22174  1.0000
  H   H19       1.0  0.47412  0.34334  0.16765  1.0000
  H   H20       1.0  0.46529  0.40266  0.16779  1.0000
  H   H21       1.0  0.99966  0.39135  0.99557  1.0000
  C   C14       1.0  0.48307  0.38983  0.19445  1.0000
  C   C15       1.0  0.39518  0.32267  0.00448  1.0000
  H   H22       1.0  0.38993  0.47033  0.08351  1.0000
  H   H23       1.0  0.48780  0.41024  0.10831  1.0000
  C   C16       1.0  0.39072  0.48641  0.09100  1.0000
  H   H24       1.0  0.47833  0.34116  0.18759  1.0000
  H   H25       1.0  0.04720  0.41074  0.99382  1.0000
  C   C17       1.0  0.46096  0.27834  0.99686  1.0000
  H   H26       1.0  0.41015  0.49514  0.09673  1.0000
  H   H27       1.0  0.38065  0.35684  0.99302  1.0000
  H   H28       1.0  0.44559  0.23705  0.00176  1.0000
  H   H29       1.0  0.08385  0.40612  0.99108  1.0000
  H   H30       1.0  0.41067  0.31687  0.00749  1.0000
  S   S6        1.0  0.30980  0.49144  0.03326  1.0000
  H   H31       1.0  0.34477  0.48586  0.08398  1.0000
  H   H32       1.0  0.49518  0.40050  0.16397  1.0000
  C   C18       1.0  0.36026  0.49321  0.07523  1.0000
  H   H33       1.0  0.19689  0.49414  0.00799  1.0000
  C   C19       1.0  0.20979  0.49778  0.99846  1.0000
  H   H34       1.0  0.40700  0.49946  0.06364  1.0000
  C   C20       1.0  0.23495  0.49956  0.00085  1.0000
  H   H35       1.0  0.42539  0.36873  0.99033  1.0000
  H   H36       1.0  0.09902  0.43977  0.45813  1.0000
  H   H37       1.0  0.35593  0.41261  0.38832  1.0000
  Fe  Fe4       1.0  0.45393  0.39416  0.45182  1.0000
  C   C21       1.0  0.19294  0.46086  0.45432  1.0000
  S   S7        1.0  0.41973  0.40202  0.45880  1.0000
  H   H38       1.0  0.34082  0.41655  0.41393  1.0000
  H   H39       1.0  0.41905  0.38416  0.38524  1.0000
  H   H40       1.0  0.21027  0.46051  0.44970  1.0000
  S   S8        1.0  0.44776  0.35322  0.44588  1.0000
  C   C22       1.0  0.48245  0.36699  0.38700  1.0000
  C   C23       1.0  0.37608  0.39057  0.39573  1.0000
  S   S9        1.0  0.37210  0.47560  0.43254  1.0000
  H   H41       1.0  0.48467  0.33285  0.37826  1.0000
  S   S10       1.0  0.47305  0.35309  0.40521  1.0000
  C   C24       1.0  0.46688  0.24927  0.48917  1.0000
  H   H42       1.0  0.42138  0.35521  0.39008  1.0000
  C   C25       1.0  0.35191  0.40561  0.41221  1.0000
  H   H43       1.0  0.35187  0.39657  0.43576  1.0000
  H   H44       1.0  0.44692  0.28813  0.46875  1.0000
  C   C26       1.0  0.38993  0.34095  0.41346  1.0000
  H   H45       1.0  0.49199  0.00971  0.47988  1.0000
  H   H46       1.0  0.08437  0.44132  0.47587  1.0000
  H   H47       1.0  0.37908  0.37440  0.43269  1.0000
  H   H48       1.0  0.43496  0.40451  0.41026  1.0000
  N   N2        1.0  0.40136  0.36745  0.40664  1.0000
  H   H49       1.0  0.37051  0.32815  0.40835  1.0000
  C   C27       1.0  0.18851  0.48262  0.45212  1.0000
  H   H50       1.0  0.48154  0.40341  0.39204  1.0000
  H   H51       1.0  0.36540  0.44829  0.46151  1.0000
  C   C28       1.0  0.40942  0.42535  0.45216  1.0000
  C   C29       1.0  0.39068  0.42938  0.46050  1.0000
  C   C30       1.0  0.38018  0.44589  0.45510  1.0000
  C   C31       1.0  0.38783  0.45816  0.44106  1.0000
  C   C32       1.0  0.40685  0.45442  0.43281  1.0000
  C   C33       1.0  0.41789  0.43847  0.43841  1.0000
  H   H52       1.0  0.38390  0.41931  0.47112  1.0000
  H   H53       1.0  0.40277  0.33120  0.41183  1.0000
  H   H54       1.0  0.41277  0.46359  0.42189  1.0000
  H   H55       1.0  0.43224  0.43565  0.43184  1.0000
  H   H56       1.0  0.38744  0.34146  0.42590  1.0000
  C   C34       1.0  0.36067  0.40356  0.39783  1.0000
  S   S11       1.0  0.48503  0.39942  0.46909  1.0000
  C   C35       1.0  0.22796  0.48703  0.48639  1.0000
  C   C36       1.0  0.49045  0.40111  0.36845  1.0000
  Fe  Fe5       1.0  0.47808  0.37364  0.42797  1.0000
  H   H57       1.0  0.44042  0.37638  0.41364  1.0000
  H   H58       1.0  0.39046  0.35255  0.38387  1.0000
  N   N3        1.0  0.12632  0.46375  0.47516  1.0000
  H   H59       1.0  0.49169  0.42003  0.36568  1.0000
  C   C37       1.0  0.15400  0.44097  0.46957  1.0000
  C   C38       1.0  0.42593  0.38419  0.41476  1.0000
  C   C39       1.0  0.38325  0.37930  0.40814  1.0000
  H   H60       1.0  0.10122  0.42192  0.47433  1.0000
  C   C40       1.0  0.45920  0.28298  0.47594  1.0000
  C   C41       1.0  0.40817  0.36476  0.39073  1.0000
  S   S12       1.0  0.26629  0.48606  0.46797  1.0000
  H   H61       1.0  0.38258  0.39013  0.38435  1.0000
  H   H62       1.0  0.10573  0.48733  0.47718  1.0000
  C   C42       1.0  0.37366  0.38148  0.42259  1.0000
  C   C43       1.0  0.17572  0.44006  0.46302  1.0000
  H   H63       1.0  0.43329  0.24145  0.47510  1.0000
  H   H64       1.0  0.42280  0.38558  0.42708  1.0000
  C   C44       1.0  0.14892  0.46290  0.46761  1.0000
  C   C45       1.0  0.35812  0.39431  0.42451  1.0000
  S   S13       1.0  0.48234  0.41400  0.43304  1.0000
  H   H65       1.0  0.49607  0.34997  0.35217  1.0000
  Fe  Fe6       1.0  0.48154  0.36020  0.46155  1.0000
  C   C46       1.0  0.12316  0.48753  0.47154  1.0000
  H   H66       1.0  0.41324  0.02638  0.46775  1.0000
  H   H67       1.0  0.42356  0.02849  0.48719  1.0000
  H   H68       1.0  0.17963  0.42346  0.46497  1.0000
  H   H69       1.0  0.20249  0.49912  0.44578  1.0000
  C   C47       1.0  0.16696  0.48383  0.45869  1.0000
  C   C48       1.0  0.45151  0.25647  0.47958  1.0000
  H   H70       1.0  0.45386  0.01402  0.48874  1.0000
  C   C49       1.0  0.40788  0.01668  0.47897  1.0000
  C   C50       1.0  0.48469  0.39173  0.38340  1.0000
  H   H71       1.0  0.12057  0.48920  0.45918  1.0000
  C   C51       1.0  0.48227  0.30275  0.48202  1.0000
  S   S14       1.0  0.49152  0.33675  0.47943  1.0000
  H   H72       1.0  0.14156  0.42461  0.47649  1.0000
  C   C52       1.0  0.45148  0.00173  0.47897  1.0000
  C   C53       1.0  0.48656  0.35208  0.37562  1.0000
  C   C54       1.0  0.10174  0.44068  0.47064  1.0000
  H   H73       1.0  0.27591  0.49504  0.38414  1.0000
  C   C55       1.0  0.49471  0.38619  0.35709  1.0000
  C   C56       1.0  0.49302  0.36174  0.36080  1.0000
  H   H74       1.0  0.39016  0.01811  0.48297  1.0000
  H   H75       1.0  0.46788  0.16431  0.73146  1.0000
  H   H76       1.0  0.44756  0.27048  0.51136  1.0000
  C   C57       1.0  0.13787  0.49321  0.62164  1.0000
  Fe  Fe7       1.0  0.46658  0.14406  0.52419  1.0000
  C   C58       1.0  0.47596  0.18185  0.70929  1.0000
  S   S15       1.0  0.45389  0.09962  0.52481  1.0000
  Fe  Fe8       1.0  0.47307  0.19672  0.51050  1.0000
  C   C59       1.0  0.12804  0.48874  0.60683  1.0000
  C   C60       1.0  0.44320  0.27301  0.53574  1.0000
  H   H77       1.0  0.40169  0.22651  0.53212  1.0000
  H   H78       1.0  0.11353  0.46486  0.49796  1.0000
  C   C61       1.0  0.44816  0.30676  0.51712  1.0000
  S   S16       1.0  0.45006  0.17224  0.53031  1.0000
  H   H79       1.0  0.48888  0.17187  0.61100  1.0000
  C   C62       1.0  0.44210  0.29005  0.54717  1.0000
  H   H80       1.0  0.46716  0.22858  0.53764  1.0000
  C   C63       1.0  0.42074  0.22637  0.53010  1.0000
  C   C64       1.0  0.17275  0.48315  0.61380  1.0000
  C   C65       1.0  0.49042  0.26900  0.49481  1.0000
  C   C66       1.0  0.43730  0.23966  0.55531  1.0000
  C   C67       1.0  0.02792  0.45398  0.53527  1.0000
  C   C68       1.0  0.03390  0.44721  0.52109  1.0000
  H   H81       1.0  0.41858  0.20651  0.53287  1.0000
  H   H82       1.0  0.38777  0.01244  0.55771  1.0000
  S   S17       1.0  0.48661  0.16681  0.50331  1.0000
  C   C69       1.0  0.42477  0.06938  0.52363  1.0000
  C   C70       1.0  0.42668  0.04574  0.52493  1.0000
  C   C71       1.0  0.40429  0.02124  0.52419  1.0000
  C   C72       1.0  0.37958  0.02001  0.52203  1.0000
  C   C73       1.0  0.37764  0.04360  0.52076  1.0000
  C   C74       1.0  0.40004  0.06813  0.52153  1.0000
  H   H83       1.0  0.44567  0.04646  0.52667  1.0000
  C   C75       1.0  0.01312  0.43098  0.51149  1.0000
  C   C76       1.0  0.44385  0.31460  0.54353  1.0000
  H   H84       1.0  0.39816  0.08604  0.52052  1.0000
  S   S18       1.0  0.06682  0.45723  0.51520  1.0000
  H   H85       1.0  0.40613  0.00337  0.52555  1.0000
  H   H86       1.0  0.17297  0.47445  0.59000  1.0000
  H   H87       1.0  0.44836  0.34198  0.52574  1.0000
  H   H88       1.0  0.04356  0.46631  0.54284  1.0000
  H   H89       1.0  0.01742  0.42543  0.50054  1.0000
  C   C77       1.0  0.48651  0.20530  0.70072  1.0000
  H   H90       1.0  0.11132  0.49193  0.60392  1.0000
  S   S19       1.0  0.49182  0.22069  0.56444  1.0000
  H   H91       1.0  0.13444  0.48280  0.65266  1.0000
  H   H92       1.0  0.19666  0.48631  0.50030  1.0000
  C   C78       1.0  0.16039  0.49012  0.62564  1.0000
  H   H93       1.0  0.49098  0.16779  0.68237  1.0000
  H   H94       1.0  0.44985  0.20197  0.68069  1.0000
  C   C79       1.0  0.14042  0.48154  0.59556  1.0000
  H   H95       1.0  0.49133  0.24252  0.67880  1.0000
  S   S20       1.0  0.45477  0.21581  0.49471  1.0000
  H   H96       1.0  0.41857  0.23881  0.55925  1.0000
  S   S21       1.0  0.14364  0.49162  0.52775  1.0000
  H   H97       1.0  0.35864  0.04296  0.51917  1.0000
  C   C80       1.0  0.44689  0.32293  0.52854  1.0000
  H   H98       1.0  0.44002  0.28496  0.55900  1.0000
  H   H99       1.0  0.46157  0.19042  0.66489  1.0000
  H   H100      1.0  0.45077  0.31333  0.50544  1.0000
  N   N4        1.0  0.44199  0.24713  0.53910  1.0000
  Fe  Fe9       1.0  0.48720  0.19502  0.54372  1.0000
  H   H101      1.0  0.43631  0.21999  0.55733  1.0000
  C   C81       1.0  0.44630  0.28218  0.52062  1.0000
  N   N5        1.0  0.17109  0.49411  0.64127  1.0000
  C   C82       1.0  0.21100  0.49694  0.49182  1.0000
  H   H102      1.0  0.38444  0.01540  0.57777  1.0000
  H   H103      1.0  0.45007  0.17074  0.68146  1.0000
  H   H104      1.0  0.18812  0.46721  0.63970  1.0000
  C   C83       1.0  0.12964  0.46326  0.49178  1.0000
  H   H105      1.0  0.42447  0.22852  0.51772  1.0000
  H   H106      1.0  0.15441  0.45265  0.64524  1.0000
  H   H107      1.0  0.18002  0.47232  0.65835  1.0000
  C   C84       1.0  0.17346  0.47053  0.64631  1.0000
  H   H108      1.0  0.99744  0.44899  0.55104  1.0000
  C   C85       1.0  0.47537  0.18239  0.72511  1.0000
  H   H109      1.0  0.45363  0.25338  0.56266  1.0000
  H   H110      1.0  0.47101  0.25056  0.52268  1.0000
  C   C86       1.0  0.16283  0.47893  0.59901  1.0000
  C   C87       1.0  0.46708  0.24748  0.53495  1.0000
  H   H111      1.0  0.48379  0.26315  0.54116  1.0000
  H   H112      1.0  0.46836  0.16291  0.70382  1.0000
  C   C88       1.0  0.00793  0.49746  0.51175  1.0000
  C   C89       1.0  0.38697  0.00296  0.56885  1.0000
  Fe  Fe10      1.0  0.10473  0.49208  0.52340  1.0000
  C   C90       1.0  0.49448  0.22950  0.72478  1.0000
  C   C91       1.0  0.46118  0.19124  0.67750  1.0000
  C   C92       1.0  0.49147  0.19256  0.59016  1.0000
  H   H113      1.0  0.44298  0.32734  0.55239  1.0000
  H   H114      1.0  0.00081  0.47746  0.51539  1.0000
  N   N6        1.0  0.48793  0.20419  0.68401  1.0000
  C   C93       1.0  0.15461  0.49910  0.65247  1.0000
  H   H115      1.0  0.19048  0.48142  0.61581  1.0000
  H   H116      1.0  0.47977  0.17499  0.58370  1.0000
  H   H117      1.0  0.12978  0.44490  0.49570  1.0000
  C   C94       1.0  0.48481  0.20619  0.73284  1.0000
  H   H118      1.0  0.14840  0.47980  0.49551  1.0000
  H   H119      1.0  0.13335  0.47917  0.58397  1.0000
  H   H120      1.0  0.22636  0.46872  0.49073  1.0000
  C   C95       1.0  0.00165  0.44404  0.53990  1.0000
  H   H121      1.0  0.40639  0.00350  0.57071  1.0000
  C   C96       1.0  0.49541  0.22924  0.70897  1.0000
  C   C97       1.0  0.49656  0.19085  0.60566  1.0000
  C   C98       1.0  0.37597  0.33912  0.98586  1.0000
  C   C99       1.0  0.39012  0.30526  0.97900  1.0000
  H   H122      1.0  0.40724  0.08825  0.86518  1.0000
  H   H123      1.0  0.47895  0.06132  0.97170  1.0000
  C   C100      1.0  0.45117  0.12325  0.89940  1.0000
  H   H124      1.0  0.10965  0.45494  0.97201  1.0000
  S   S22       1.0  0.05785  0.46002  0.93653  1.0000
  C   C101      1.0  0.38153  0.26019  0.96163  1.0000
  S   S23       1.0  0.44131  0.16470  0.93715  1.0000
  H   H125      1.0  0.40776  0.08059  0.91416  1.0000
  Fe  Fe11      1.0  0.47815  0.18596  0.92354  1.0000
  S   S24       1.0  0.47836  0.16137  0.96443  1.0000
  Fe  Fe12      1.0  0.45805  0.13707  0.94379  1.0000
  S   S25       1.0  0.44279  0.09222  0.94171  1.0000
  Fe  Fe13      1.0  0.46482  0.19101  0.95664  1.0000
  S   S26       1.0  0.45225  0.21125  0.97525  1.0000
  C   C102      1.0  0.38749  0.04571  0.90130  1.0000
  C   C103      1.0  0.46102  0.24499  0.97915  1.0000
  C   C104      1.0  0.47311  0.26472  0.96844  1.0000
  C   C105      1.0  0.38730  0.05011  0.87418  1.0000
  C   C106      1.0  0.40288  0.27127  0.97143  1.0000
  H   H126      1.0  0.44403  0.12714  0.87000  1.0000
  C   C107      1.0  0.36846  0.29346  0.96890  1.0000
  H   H127      1.0  0.49157  0.10193  0.95718  1.0000
  H   H128      1.0  0.38194  0.03341  0.91127  1.0000
  C   C108      1.0  0.02242  0.45249  0.95995  1.0000
  C   C109      1.0  0.02614  0.44870  0.94466  1.0000
  H   H129      1.0  0.38149  0.04115  0.86307  1.0000
  H   H130      1.0  0.36859  0.01332  0.88590  1.0000
  C   C110      1.0  0.42137  0.35014  0.98431  1.0000
  S   S27       1.0  0.13391  0.47964  0.94018  1.0000
  C   C111      1.0  0.41006  0.08948  0.89003  1.0000
  C   C112      1.0  0.40226  0.07280  0.90282  1.0000
  S   S28       1.0  0.47652  0.20156  0.90002  1.0000
  C   C113      1.0  0.39961  0.01236  0.93944  1.0000
  C   C114      1.0  0.42030  0.03813  0.93954  1.0000
  C   C115      1.0  0.41577  0.06006  0.94219  1.0000
  C   C116      1.0  0.39007  0.05574  0.94474  1.0000
  C   C117      1.0  0.36937  0.02997  0.94462  1.0000
  H   H131      1.0  0.40941  0.12082  0.91353  1.0000
  H   H132      1.0  0.44000  0.04108  0.93748  1.0000
  H   H133      1.0  0.38609  0.07224  0.94678  1.0000
  H   H134      1.0  0.34964  0.02701  0.94655  1.0000
  C   C118      1.0  0.40214  0.07729  0.87558  1.0000
  C   C119      1.0  0.43216  0.13298  0.87764  1.0000
  H   H135      1.0  0.03895  0.39580  0.94526  1.0000
  H   H136      1.0  0.44394  0.15445  0.87965  1.0000
  H   H137      1.0  0.00654  0.43079  0.92376  1.0000
  C   C120      1.0  0.40713  0.29341  0.98000  1.0000
  C   C121      1.0  0.37391  0.00803  0.94196  1.0000
  H   H138      1.0  0.19056  0.48751  0.87853  1.0000
  H   H139      1.0  0.08115  0.42652  0.94478  1.0000
  S   S29       1.0  0.16907  0.49770  0.98148  1.0000
  C   C122      1.0  0.00869  0.39182  0.98476  1.0000
  C   C123      1.0  0.49593  0.21836  0.87158  1.0000
  H   H140      1.0  0.07910  0.39476  0.94911  1.0000
  H   H141      1.0  0.07883  0.38214  0.97661  1.0000
  H   H142      1.0  0.48775  0.30586  0.96336  1.0000
  H   H143      1.0  0.39247  0.12406  0.89712  1.0000
  H   H144      1.0  0.42316  0.15046  0.90305  1.0000
  H   H145      1.0  0.46219  0.11528  0.89254  1.0000
  C   C124      1.0  0.41212  0.12873  0.90185  1.0000
  C   C125      1.0  0.03155  0.39446  0.95659  1.0000
  H   H146      1.0  0.10844  0.42410  0.95288  1.0000
  H   H147      1.0  0.42402  0.30132  0.98740  1.0000
  C   C126      1.0  0.00399  0.43399  0.93558  1.0000
  N   N7        1.0  0.07706  0.41674  0.96853  1.0000
  H   H148      1.0  0.07996  0.45513  0.96542  1.0000
  C   C127      1.0  0.08794  0.44475  0.97288  1.0000
  H   H149      1.0  0.42294  0.35422  0.97196  1.0000
  H   H150      1.0  0.16340  0.47479  0.85527  1.0000
  H   H151      1.0  0.37579  0.34523  0.97393  1.0000
  C   C128      1.0  0.08761  0.40355  0.97903  1.0000
  C   C129      1.0  0.38000  0.03438  0.88701  1.0000
  H   H152      1.0  0.46372  0.14461  0.90096  1.0000
  N   N8        1.0  0.42603  0.11808  0.89204  1.0000
  H   H153      1.0  0.44852  0.11437  0.91084  1.0000
  H   H154      1.0  0.41410  0.13046  0.87159  1.0000
  Fe  Fe14      1.0  0.10011  0.48984  0.94210  1.0000
  C   C130      1.0  0.04819  0.40447  0.96948  1.0000
  C   C131      1.0  0.08674  0.41536  0.95315  1.0000
  H   H155      1.0  0.03911  0.46335  0.96720  1.0000
  C   C132      1.0  0.47275  0.29801  0.98607  1.0000
  C   C133      1.0  0.36435  0.27123  0.96037  1.0000
  H   H156      1.0  0.37837  0.24303  0.95498  1.0000
  H   H157      1.0  0.35447  0.30104  0.96734  1.0000
  S   S30       1.0  0.48043  0.33163  0.98957  1.0000
  H   H158      1.0  0.41634  0.26274  0.97237  1.0000
  C   C134      1.0  0.47869  0.29092  0.97184  1.0000
  C   C135      1.0  0.00439  0.38331  0.95792  1.0000
  H   H159      1.0  0.48691  0.23132  0.87267  1.0000
  C   C136      1.0  0.49437  0.20169  0.88361  1.0000
  H   H160      1.0  0.34777  0.26253  0.95270  1.0000
  H   H161      1.0  0.48507  0.20664  0.74513  1.0000
  C   C137      1.0  0.18375  0.48910  0.85471  1.0000
  H   H162      1.0  0.18211  0.49579  0.83093  1.0000
  H   H163      1.0  0.47774  0.25975  0.95741  1.0000
  H   H164      1.0  0.08321  0.44753  0.98471  1.0000
  S   S31       1.0  0.49370  0.15751  0.92916  1.0000
  H   H165      1.0  0.10922  0.41162  0.97808  1.0000
  C   C138      1.0  0.03588  0.40291  0.98360  1.0000
  N   N9        1.0  0.39534  0.32885  0.98818  1.0000
  H   H166      1.0  0.43752  0.34538  0.98747  1.0000
  C   C139      1.0  0.19911  0.49623  0.86778  1.0000
  H   H167      1.0  0.35598  0.32448  0.98908  1.0000
  C   C140      1.0  0.99699  0.44118  0.96607  1.0000
  C   C141      1.0  0.33982  0.56840  0.23543  1.0000
  Fe  Fe15      1.0  0.15597  0.72963  0.00069  1.0000
  S   S32       1.0  0.17812  0.71856  0.01798  1.0000
  C   C142      1.0  0.16792  0.75147  0.23666  1.0000
  Fe  Fe16      1.0  0.10146  0.68844  0.01311  1.0000
  S   S33       1.0  0.12099  0.67579  0.03121  1.0000
  S   S34       1.0  0.05760  0.66094  0.00936  1.0000
  Fe  Fe17      1.0  0.14827  0.71844  0.03443  1.0000
  S   S35       1.0  0.16140  0.74030  0.05684  1.0000
  Fe  Fe18      1.0  0.14876  0.67690  0.01320  1.0000
  C   C143      1.0  0.46590  0.85914  0.11115  1.0000
  S   S36       1.0  0.12708  0.73165  0.01744  1.0000
  H   H168      1.0  0.43258  0.69888  0.23121  1.0000
  Fe  Fe19      1.0  0.36591  0.55574  0.01787  1.0000
  S   S37       1.0  0.35233  0.51744  0.00559  1.0000
  S   S38       1.0  0.39571  0.59643  0.01149  1.0000
  Fe  Fe20      1.0  0.32687  0.53189  0.04380  1.0000
  S   S39       1.0  0.31377  0.54880  0.06358  1.0000
  H   H169      1.0  0.00705  0.61632  0.00725  1.0000
  C   C144      1.0  0.22995  0.57681  0.00759  1.0000
  S   S40       1.0  0.36824  0.53944  0.04042  1.0000
  S   S41       1.0  0.32571  0.55125  0.02192  1.0000
  Fe  Fe21      1.0  0.34070  0.58148  0.14969  1.0000
  S   S42       1.0  0.36241  0.59028  0.17217  1.0000
  S   S43       1.0  0.33318  0.54626  0.13473  1.0000
  Fe  Fe22      1.0  0.33582  0.63178  0.15010  1.0000
  S   S44       1.0  0.35740  0.64541  0.17200  1.0000
  S   S45       1.0  0.32384  0.65929  0.13798  1.0000
  Fe  Fe23      1.0  0.38448  0.63077  0.16292  1.0000
  S   S46       1.0  0.42777  0.65202  0.16657  1.0000
  Fe  Fe24      1.0  0.33375  0.60437  0.18017  1.0000
  S   S47       1.0  0.31956  0.60784  0.20369  1.0000
  S   S48       1.0  0.36551  0.62108  0.14004  1.0000
  S   S49       1.0  0.30960  0.59157  0.15865  1.0000
  Fe  Fe25      1.0  0.23244  0.74425  0.15810  1.0000
  S   S50       1.0  0.22407  0.71984  0.17903  1.0000
  S   S51       1.0  0.26933  0.78211  0.15856  1.0000
  Fe  Fe26      1.0  0.18303  0.70615  0.14143  1.0000
  S   S52       1.0  0.17044  0.67926  0.16149  1.0000
  S   S53       1.0  0.15719  0.68817  0.12075  1.0000
  Fe  Fe27      1.0  0.18358  0.71529  0.17598  1.0000
  S   S54       1.0  0.15988  0.72050  0.19479  1.0000
  Fe  Fe28      1.0  0.21208  0.68647  0.16266  1.0000
  S   S55       1.0  0.22076  0.65251  0.16658  1.0000
  S   S56       1.0  0.19247  0.74195  0.15585  1.0000
  S   S57       1.0  0.22413  0.71114  0.14181  1.0000
  Fe  Fe29      1.0  0.46021  0.79597  0.16546  1.0000
  S   S58       1.0  0.43182  0.78833  0.18429  1.0000
  H   H170      1.0  0.33248  0.66540  0.19740  1.0000
  Fe  Fe30      1.0  0.40450  0.78746  0.16591  1.0000
  S   S59       1.0  0.36362  0.75468  0.16594  1.0000
  S   S60       1.0  0.43156  0.79086  0.14697  1.0000
  H   H171      1.0  0.46345  0.81226  0.21377  1.0000
  C   C145      1.0  0.29562  0.77500  0.16187  1.0000
  C   C146      1.0  0.29126  0.74896  0.16255  1.0000
  C   C147      1.0  0.31230  0.74303  0.16401  1.0000
  C   C148      1.0  0.33778  0.76308  0.16518  1.0000
  C   C149      1.0  0.34211  0.78918  0.16534  1.0000
  C   C150      1.0  0.32105  0.79517  0.16347  1.0000
  H   H172      1.0  0.27172  0.73334  0.16146  1.0000
  H   H173      1.0  0.30888  0.72287  0.16384  1.0000
  H   H174      1.0  0.36162  0.80472  0.16667  1.0000
  H   H175      1.0  0.32446  0.81536  0.16312  1.0000
  C   C151      1.0  0.17033  0.72903  0.21377  1.0000
  C   C152      1.0  0.18836  0.72234  0.22102  1.0000
  C   C153      1.0  0.32430  0.82125  0.21878  1.0000
  C   C154      1.0  0.38843  0.57165  0.09326  1.0000
  C   C155      1.0  0.15993  0.74321  0.22178  1.0000
  H   H176      1.0  0.19615  0.71098  0.21498  1.0000
  H   H177      1.0  0.14586  0.74826  0.21635  1.0000
  C   C156      1.0  0.44297  0.68638  0.16641  1.0000
  C   C157      1.0  0.46989  0.69949  0.16405  1.0000
  H   H178      1.0  0.18176  0.53975  0.00322  1.0000
  C   C158      1.0  0.46873  0.74133  0.16504  1.0000
  C   C159      1.0  0.44188  0.72835  0.16790  1.0000
  C   C160      1.0  0.42892  0.70082  0.16844  1.0000
  C   C161      1.0  0.48268  0.72684  0.16324  1.0000
  H   H179      1.0  0.28130  0.64521  0.22792  1.0000
  H   H180      1.0  0.43110  0.73954  0.16949  1.0000
  H   H181      1.0  0.40816  0.69091  0.17035  1.0000
  C   C162      1.0  0.29434  0.65692  0.14493  1.0000
  C   C163      1.0  0.27678  0.63417  0.15216  1.0000
  C   C164      1.0  0.25373  0.63265  0.15826  1.0000
  C   C165      1.0  0.24826  0.65403  0.15733  1.0000
  C   C166      1.0  0.26541  0.67661  0.14971  1.0000
  C   C167      1.0  0.28840  0.67800  0.14342  1.0000
  H   H182      1.0  0.28072  0.61754  0.15294  1.0000
  H   H183      1.0  0.24032  0.61499  0.16394  1.0000
  H   H184      1.0  0.26140  0.69322  0.14902  1.0000
  H   H185      1.0  0.30197  0.69567  0.13783  1.0000
  C   C168      1.0  0.32654  0.59654  0.22096  1.0000
  H   H186      1.0  0.03503  0.54892  0.99319  1.0000
  H   H187      1.0  0.21040  0.66304  0.09410  1.0000
  H   H188      1.0  0.35615  0.50652  0.06776  1.0000
  C   C169      1.0  0.15241  0.62693  0.99423  1.0000
  H   H189      1.0  0.32976  0.81799  0.19498  1.0000
  C   C170      1.0  0.32029  0.54805  0.08321  1.0000
  C   C171      1.0  0.32224  0.56885  0.09252  1.0000
  C   C172      1.0  0.32622  0.56854  0.10826  1.0000
  C   C173      1.0  0.32785  0.54717  0.11494  1.0000
  C   C174      1.0  0.32551  0.52617  0.10566  1.0000
  C   C175      1.0  0.32183  0.52664  0.08987  1.0000
  H   H190      1.0  0.32061  0.58529  0.08752  1.0000
  H   H191      1.0  0.32770  0.58470  0.11525  1.0000
  C   C176      1.0  0.02629  0.65577  0.01610  1.0000
  C   C177      1.0  0.25111  0.58188  0.03252  1.0000
  C   C178      1.0  0.02234  0.67513  0.02376  1.0000
  C   C179      1.0  0.26969  0.69028  0.20814  1.0000
  H   H192      1.0  0.03872  0.69404  0.02581  1.0000
  C   C180      1.0  0.16096  0.70271  0.10273  1.0000
  C   C181      1.0  0.17652  0.72950  0.10056  1.0000
  C   C182      1.0  0.17701  0.74065  0.08630  1.0000
  C   C183      1.0  0.16244  0.72505  0.07405  1.0000
  C   C184      1.0  0.14771  0.69809  0.07609  1.0000
  C   C185      1.0  0.14679  0.68704  0.09042  1.0000
  H   H193      1.0  0.18739  0.74177  0.10998  1.0000
  H   H194      1.0  0.18839  0.76154  0.08481  1.0000
  H   H195      1.0  0.13642  0.68588  0.06677  1.0000
  H   H196      1.0  0.13460  0.66632  0.09203  1.0000
  H   H197      1.0  0.33781  0.56884  0.21096  1.0000
  C   C186      1.0  0.40648  0.51592  0.07014  1.0000
  H   H198      1.0  0.06391  0.67525  0.08294  1.0000
  H   H199      1.0  0.40242  0.52774  0.06153  1.0000
  H   H200      1.0  0.48994  0.76886  0.99915  1.0000
  N   N10       1.0  0.41444  0.65328  0.21453  1.0000
  S   S61       1.0  0.41646  0.83043  0.16674  1.0000
  H   H201      1.0  0.45607  0.79487  0.09378  1.0000
  C   C187      1.0  0.19589  0.73006  0.23624  1.0000
  H   H202      1.0  0.32654  0.50948  0.11073  1.0000
  H   H203      1.0  0.42635  0.52809  0.07488  1.0000
  C   C188      1.0  0.12050  0.73702  0.10033  1.0000
  C   C189      1.0  0.36157  0.78188  0.20785  1.0000
  H   H204      1.0  0.31797  0.65545  0.21531  1.0000
  C   C190      1.0  0.35580  0.90891  0.99933  1.0000
  H   H205      1.0  0.24596  0.58202  0.10633  1.0000
  H   H206      1.0  0.28027  0.56806  0.03448  1.0000
  H   H207      1.0  0.20667  0.79285  0.21607  1.0000
  C   C191      1.0  0.23525  0.59343  0.10758  1.0000
  C   C192      1.0  0.23331  0.63258  0.11640  1.0000
  H   H208      1.0  0.48087  0.68846  0.16255  1.0000
  H   H209      1.0  0.11606  0.74869  0.05448  1.0000
  C   C193      1.0  0.31599  0.81639  0.20376  1.0000
  C   C194      1.0  0.07951  0.69296  0.08750  1.0000
  H   H210      1.0  0.07934  0.62087  0.00528  1.0000
  H   H211      1.0  0.25298  0.58791  0.04429  1.0000
  S   S62       1.0  0.44847  0.85343  0.20614  1.0000
  H   H212      1.0  0.11646  0.71270  0.11964  1.0000
  C   C195      1.0  0.10896  0.71385  0.10850  1.0000
  C   C196      1.0  0.24709  0.61791  0.11457  1.0000
  H   H213      1.0  0.14411  0.58898  0.00311  1.0000
  C   C197      1.0  0.20960  0.58358  0.10232  1.0000
  H   H214      1.0  0.24324  0.65124  0.12212  1.0000
  H   H215      1.0  0.40779  0.68645  0.20855  1.0000
  S   S63       1.0  0.44076  0.88203  0.01100  1.0000
  C   C198      1.0  0.25987  0.66472  0.23598  1.0000
  C   C199      1.0  0.09479  0.74262  0.05582  1.0000
  H   H216      1.0  0.47465  0.88414  0.07524  1.0000
  S   S64       1.0  0.44937  0.85912  0.12811  1.0000
  C   C200      1.0  0.39163  0.55045  0.11614  1.0000
  C   C201      1.0  0.42239  0.68139  0.23785  1.0000
  H   H217      1.0  0.08712  0.74231  0.04417  1.0000
  H   H218      1.0  0.39039  0.58742  0.11563  1.0000
  C   C202      1.0  0.28050  0.81198  0.22642  1.0000
  Fe  Fe31      1.0  0.44617  0.83430  0.14902  1.0000
  H   H219      1.0  0.12251  0.75656  0.07980  1.0000
  N   N11       1.0  0.38659  0.50642  0.08227  1.0000
  Fe  Fe32      1.0  0.35197  0.50006  0.02858  1.0000
  S   S65       1.0  0.47699  0.83991  0.16654  1.0000
  H   H220      1.0  0.28983  0.63275  0.18560  1.0000
  H   H221      1.0  0.33224  0.68963  0.21042  1.0000
  C   C203      1.0  0.48184  0.84657  0.11016  1.0000
  H   H222      1.0  0.27666  0.62444  0.20410  1.0000
  C   C204      1.0  0.09088  0.71625  0.07882  1.0000
  C   C205      1.0  0.39064  0.57161  0.10895  1.0000
  H   H223      1.0  0.28379  0.90602  0.00714  1.0000
  Fe  Fe33      1.0  0.48204  0.89234  0.01841  1.0000
  H   H224      1.0  0.07970  0.69793  0.04169  1.0000
  C   C206      1.0  0.25463  0.69497  0.21903  1.0000
  H   H225      1.0  0.20606  0.61026  0.01022  1.0000
  H   H226      1.0  0.39622  0.80681  0.21984  1.0000
  H   H227      1.0  0.38460  0.55115  0.07262  1.0000
  C   C207      1.0  0.27482  0.65977  0.22519  1.0000
  H   H228      1.0  0.26028  0.63483  0.19030  1.0000
  N   N12       1.0  0.08132  0.71666  0.06325  1.0000
  H   H229      1.0  0.45104  0.68841  0.21169  1.0000
  H   H230      1.0  0.35740  0.89189  0.00353  1.0000
  N   N13       1.0  0.19294  0.63904  0.11354  1.0000
  C   C208      1.0  0.16603  0.62692  0.10712  1.0000
  C   C209      1.0  0.19088  0.64286  0.12998  1.0000
  C   C210      1.0  0.20741  0.66507  0.10637  1.0000
  C   C211      1.0  0.20715  0.62319  0.11120  1.0000
  C   C212      1.0  0.19563  0.59813  0.10406  1.0000
  H   H231      1.0  0.15354  0.60790  0.11263  1.0000
  H   H232      1.0  0.15613  0.63957  0.10900  1.0000
  H   H233      1.0  0.16609  0.62399  0.09467  1.0000
  H   H234      1.0  0.17913  0.65352  0.13234  1.0000
  H   H235      1.0  0.21024  0.65448  0.13536  1.0000
  H   H236      1.0  0.18161  0.62383  0.13605  1.0000
  H   H237      1.0  0.19672  0.67713  0.10741  1.0000
  H   H238      1.0  0.22683  0.67685  0.11170  1.0000
  H   H239      1.0  0.17581  0.58922  0.09984  1.0000
  C   C213      1.0  0.37559  0.79374  0.22103  1.0000
  H   H240      1.0  0.32422  0.75599  0.19825  1.0000
  H   H241      1.0  0.31937  0.51015  0.08290  1.0000
  H   H242      1.0  0.22347  0.81639  0.19311  1.0000
  S   S66       1.0  0.28345  0.50524  0.99073  1.0000
  H   H243      1.0  0.30157  0.74669  0.22291  1.0000
  H   H244      1.0  0.22136  0.78496  0.00141  1.0000
  H   H245      1.0  0.26535  0.82190  0.99708  1.0000
  C   C214      1.0  0.46344  0.87269  0.09845  1.0000
  C   C215      1.0  0.45679  0.84331  0.22342  1.0000
  H   H246      1.0  0.16782  0.55990  0.99591  1.0000
  C   C216      1.0  0.24591  0.56536  0.00236  1.0000
  H   H247      1.0  0.33531  0.59231  0.99634  1.0000
  H   H248      1.0  0.09237  0.75805  0.06232  1.0000
  C   C217      1.0  0.32277  0.60693  0.23464  1.0000
  N   N14       1.0  0.29533  0.66604  0.19950  1.0000
  C   C218      1.0  0.40011  0.66519  0.20610  1.0000
  C   C219      1.0  0.32232  0.75972  0.22244  1.0000
  H   H249      1.0  0.28339  0.67991  0.17972  1.0000
  H   H250      1.0  0.06470  0.58603  0.00712  1.0000
  H   H251      1.0  0.13700  0.75382  0.10519  1.0000
  C   C220      1.0  0.30658  0.81891  0.23009  1.0000
  C   C221      1.0  0.05301  0.70934  0.06350  1.0000
  H   H252      1.0  0.31459  0.88907  0.99900  1.0000
  N   N15       1.0  0.36804  0.81272  0.12208  1.0000
  C   C222      1.0  0.37476  0.83565  0.13222  1.0000
  C   C223      1.0  0.38230  0.79830  0.12771  1.0000
  C   C224      1.0  0.37788  0.82232  0.10671  1.0000
  C   C225      1.0  0.33934  0.79656  0.12156  1.0000
  C   C226      1.0  0.32686  0.76976  0.12592  1.0000
  C   C227      1.0  0.32291  0.80769  0.11671  1.0000
  C   C228      1.0  0.29966  0.75528  0.12544  1.0000
  C   C229      1.0  0.29573  0.79308  0.11646  1.0000
  C   C230      1.0  0.28415  0.76696  0.12084  1.0000
  H   H253      1.0  0.36644  0.82937  0.14367  1.0000
  H   H254      1.0  0.39628  0.84740  0.13365  1.0000
  H   H255      1.0  0.36745  0.84932  0.12787  1.0000
  H   H256      1.0  0.37680  0.79152  0.13954  1.0000
  H   H257      1.0  0.40376  0.81091  0.12779  1.0000
  H   H258      1.0  0.37880  0.78115  0.12040  1.0000
  H   H259      1.0  0.36985  0.83526  0.10209  1.0000
  H   H260      1.0  0.39958  0.83407  0.10670  1.0000
  H   H261      1.0  0.37269  0.80571  0.09863  1.0000
  H   H262      1.0  0.33752  0.75963  0.13012  1.0000
  H   H263      1.0  0.33094  0.82792  0.11330  1.0000
  H   H264      1.0  0.29052  0.73510  0.12919  1.0000
  H   H265      1.0  0.28350  0.80214  0.11309  1.0000
  H   H266      1.0  0.26306  0.75593  0.12098  1.0000
  H   H267      1.0  0.23332  0.75927  0.20605  1.0000
  H   H268      1.0  0.39087  0.51336  0.11406  1.0000
  C   C231      1.0  0.33520  0.57728  0.22140  1.0000
  S   S67       1.0  0.15598  0.64120  0.01223  1.0000
  H   H269      1.0  0.30807  0.95718  0.00438  1.0000
  H   H270      1.0  0.39215  0.55008  0.12841  1.0000
  H   H271      1.0  0.34451  0.82679  0.22163  1.0000
  H   H272      1.0  0.04896  0.72232  0.07134  1.0000
  C   C232      1.0  0.08547  0.69753  0.05372  1.0000
  C   C233      1.0  0.44527  0.77681  0.09991  1.0000
  H   H273      1.0  0.31323  0.70372  0.18858  1.0000
  C   C234      1.0  0.49537  0.84779  0.09668  1.0000
  H   H274      1.0  0.10644  0.70196  0.05394  1.0000
  C   C235      1.0  0.33499  0.76494  0.20854  1.0000
  C   C236      1.0  0.11184  0.73831  0.08567  1.0000
  C   C237      1.0  0.26394  0.56252  0.01198  1.0000
  C   C238      1.0  0.00445  0.63154  0.01312  1.0000
  C   C239      1.0  0.46812  0.81392  0.23812  1.0000
  C   C240      1.0  0.26655  0.57075  0.02701  1.0000
  H   H275      1.0  0.38259  0.61467  0.21104  1.0000
  H   H276      1.0  0.26701  0.62543  0.11876  1.0000
  C   C241      1.0  0.08852  0.69185  0.10210  1.0000
  H   H277      1.0  0.27200  0.70024  0.19748  1.0000
  H   H278      1.0  0.40717  0.62420  0.19701  1.0000
  N   N16       1.0  0.24419  0.80046  0.20671  1.0000
  C   C242      1.0  0.23243  0.77475  0.19883  1.0000
  C   C243      1.0  0.22719  0.79866  0.21972  1.0000
  C   C244      1.0  0.24381  0.82049  0.19622  1.0000
  C   C245      1.0  0.27147  0.80729  0.21114  1.0000
  C   C246      1.0  0.29004  0.80958  0.19995  1.0000
  H   H279      1.0  0.37893  0.65539  0.20893  1.0000
  C   C247      1.0  0.24983  0.68229  0.23293  1.0000
  H   H280      1.0  0.45133  0.88267  0.09913  1.0000
  H   H281      1.0  0.24600  0.70796  0.21654  1.0000
  H   H282      1.0  0.21151  0.76835  0.19585  1.0000
  H   H283      1.0  0.22614  0.78350  0.22792  1.0000
  Fe  Fe34      1.0  0.31139  0.51189  0.01097  1.0000
  H   H284      1.0  0.23405  0.81768  0.22583  1.0000
  H   H285      1.0  0.25383  0.82109  0.18537  1.0000
  H   H286      1.0  0.25356  0.84037  0.20143  1.0000
  H   H287      1.0  0.28460  0.80619  0.18812  1.0000
  S   S68       1.0  0.12832  0.68747  0.99481  1.0000
  H   H288      1.0  0.31285  0.67738  0.17740  1.0000
  H   H289      1.0  0.24436  0.55772  0.99102  1.0000
  H   H290      1.0  0.41546  0.76017  0.08283  1.0000
  N   N17       1.0  0.40264  0.70507  0.12465  1.0000
  C   C248      1.0  0.38069  0.68433  0.11604  1.0000
  C   C249      1.0  0.42051  0.69392  0.12926  1.0000
  C   C250      1.0  0.39165  0.71112  0.13840  1.0000
  C   C251      1.0  0.41706  0.72942  0.11594  1.0000
  C   C252      1.0  0.44031  0.75000  0.12193  1.0000
  C   C253      1.0  0.40830  0.73385  0.10162  1.0000
  C   C254      1.0  0.45422  0.77320  0.11396  1.0000
  C   C255      1.0  0.42234  0.75722  0.09377  1.0000
  H   H291      1.0  0.23227  0.62103  0.99679  1.0000
  H   H292      1.0  0.38748  0.67914  0.10536  1.0000
  H   H293      1.0  0.37097  0.66599  0.12267  1.0000
  H   H294      1.0  0.36497  0.69009  0.11346  1.0000
  H   H295      1.0  0.41015  0.67532  0.13563  1.0000
  H   H296      1.0  0.43645  0.70709  0.13691  1.0000
  H   H297      1.0  0.42976  0.68980  0.11924  1.0000
  H   H298      1.0  0.40693  0.72629  0.14560  1.0000
  H   H299      1.0  0.37729  0.71856  0.13547  1.0000
  H   H300      1.0  0.38123  0.69346  0.14556  1.0000
  H   H301      1.0  0.44782  0.74860  0.13299  1.0000
  H   H302      1.0  0.39067  0.71956  0.09623  1.0000
  C   C256      1.0  0.38848  0.52877  0.09162  1.0000
  C   C257      1.0  0.28037  0.67253  0.21095  1.0000
  H   H303      1.0  0.38651  0.58759  0.08772  1.0000
  C   C258      1.0  0.38729  0.55057  0.08470  1.0000
  H   H304      1.0  0.40179  0.66329  0.19367  1.0000
  H   H305      1.0  0.04103  0.68879  0.06714  1.0000
  C   C259      1.0  0.07693  0.60245  0.99959  1.0000
  H   H306      1.0  0.27547  0.55312  0.00792  1.0000
  C   C260      1.0  0.30145  0.68260  0.18577  1.0000
  H   H307      1.0  0.20045  0.56441  0.09698  1.0000
  Fe  Fe35      1.0  0.44591  0.83174  0.18414  1.0000
  C   C261      1.0  0.46279  0.82218  0.22408  1.0000
  H   H308      1.0  0.41376  0.61524  0.21535  1.0000
  H   H309      1.0  0.31581  0.62161  0.23446  1.0000
  H   H310      1.0  0.04549  0.71085  0.05209  1.0000
  H   H311      1.0  0.08008  0.67371  0.10840  1.0000
  H   H312      1.0  0.45420  0.65968  0.21717  1.0000
  H   H313      1.0  0.07412  0.67704  0.05760  1.0000
  H   H314      1.0  0.09662  0.60313  0.99912  1.0000
  H   H315      1.0  0.45217  0.87280  0.23648  1.0000
  C   C262      1.0  0.27987  0.63838  0.19467  1.0000
  C   C263      1.0  0.21196  0.60593  0.99901  1.0000
  H   H316      1.0  0.24232  0.77514  0.18801  1.0000
  C   C264      1.0  0.44242  0.66682  0.21027  1.0000
  C   C265      1.0  0.40405  0.62561  0.20936  1.0000
  C   C266      1.0  0.47675  0.87367  0.08490  1.0000
  H   H317      1.0  0.44532  0.66352  0.19813  1.0000
  C   C267      1.0  0.37835  0.93159  0.99598  1.0000
  H   H318      1.0  0.26784  0.81050  0.23576  1.0000
  H   H319      1.0  0.48422  0.83644  0.11991  1.0000
  C   C268      1.0  0.36335  0.78884  0.23542  1.0000
  C   C269      1.0  0.32057  0.66939  0.20600  1.0000
  C   C270      1.0  0.39059  0.52928  0.10769  1.0000
  C   C271      1.0  0.41166  0.65613  0.23101  1.0000
  H   H320      1.0  0.47278  0.79760  0.23853  1.0000
  H   H321      1.0  0.17982  0.56439  0.01500  1.0000
  N   N18       1.0  0.20982  0.57907  0.99796  1.0000
  C   C272      1.0  0.45643  0.85622  0.23690  1.0000
  C   C273      1.0  0.33117  0.90764  0.99674  1.0000
  C   C274      1.0  0.22635  0.79388  0.99036  1.0000
  C   C275      1.0  0.23295  0.58475  0.02303  1.0000
  H   H322      1.0  0.39735  0.93216  0.99763  1.0000
  H   H323      1.0  0.28187  0.95125  0.99122  1.0000
  C   C276      1.0  0.28058  0.90596  0.99471  1.0000
  H   H324      1.0  0.37145  0.78585  0.19702  1.0000
  H   H325      1.0  0.34619  0.55324  0.23569  1.0000
  C   C277      1.0  0.14647  0.60039  0.99299  1.0000
  H   H326      1.0  0.22091  0.59278  0.02797  1.0000
  H   H327      1.0  0.40342  0.83774  0.23791  1.0000
  H   H328      1.0  0.47194  0.78854  0.11884  1.0000
  C   C278      1.0  0.18368  0.56004  0.00327  1.0000
  C   C279      1.0  0.41626  0.60252  0.99578  1.0000
  S   S69       1.0  0.48521  0.77544  0.16301  1.0000
  C   C280      1.0  0.30181  0.95267  0.99233  1.0000
  C   C281      1.0  0.33616  0.77140  0.23572  1.0000
  C   C282      1.0  0.43237  0.62857  0.99177  1.0000
  S   S70       1.0  0.49150  0.85931  0.02420  1.0000
  H   H329      1.0  0.39239  0.87279  0.99690  1.0000
  C   C283      1.0  0.32842  0.92935  0.99076  1.0000
  H   H330      1.0  0.26161  0.90642  0.99277  1.0000
  H   H331      1.0  0.43297  0.64438  0.99879  1.0000
  C   C284      1.0  0.43379  0.89013  0.99284  1.0000
  C   C285      1.0  0.49290  0.86129  0.08397  1.0000
  H   H332      1.0  0.38895  0.61443  0.23657  1.0000
  H   H333      1.0  0.44758  0.81063  0.99799  1.0000
  H   H334      1.0  0.43240  0.83156  0.99520  1.0000
  H   H335      1.0  0.02651  0.58369  0.99372  1.0000
  H   H336      1.0  0.19895  0.60903  0.99069  1.0000
  C   C286      1.0  0.99695  0.67029  0.02831  1.0000
  S   S71       1.0  0.37803  0.54338  0.44178  1.0000
  S   S72       1.0  0.32820  0.55018  0.45535  1.0000
  Fe  Fe36      1.0  0.34182  0.54409  0.43241  1.0000
  S   S73       1.0  0.34346  0.57147  0.41331  1.0000
  Fe  Fe37      1.0  0.36215  0.54519  0.46467  1.0000
  H   H337      1.0  0.40264  0.84043  0.25798  1.0000
  Fe  Fe38      1.0  0.13222  0.71282  0.42697  1.0000
  S   S74       1.0  0.12554  0.73759  0.44630  1.0000
  S   S75       1.0  0.14424  0.73017  0.38883  1.0000
  Fe  Fe39      1.0  0.12644  0.67184  0.45377  1.0000
  S   S76       1.0  0.11965  0.69468  0.47236  1.0000
  S   S77       1.0  0.13200  0.63537  0.45617  1.0000
  Fe  Fe40      1.0  0.09321  0.69994  0.45503  1.0000
  S   S78       1.0  0.05259  0.69605  0.46035  1.0000
  Fe  Fe41      1.0  0.15256  0.73021  0.46200  1.0000
  S   S79       1.0  0.19235  0.75568  0.47353  1.0000
  S   S80       1.0  0.09849  0.67502  0.43719  1.0000
  S   S81       1.0  0.16001  0.70644  0.44416  1.0000
  H   H338      1.0  0.39613  0.53165  0.38292  1.0000
  Fe  Fe42      1.0  0.34266  0.57553  0.32397  1.0000
  S   S82       1.0  0.37341  0.58988  0.30592  1.0000
  S   S83       1.0  0.34045  0.54714  0.34258  1.0000
  Fe  Fe43      1.0  0.31682  0.60747  0.31171  1.0000
  S   S84       1.0  0.34537  0.62539  0.29278  1.0000
  S   S85       1.0  0.28456  0.61616  0.31989  1.0000
  Fe  Fe44      1.0  0.34137  0.58481  0.28942  1.0000
  S   S86       1.0  0.34245  0.56725  0.26646  1.0000
  Fe  Fe45      1.0  0.37532  0.62925  0.31026  1.0000
  S   S87       1.0  0.41414  0.66484  0.31081  1.0000
  S   S88       1.0  0.31017  0.56629  0.30705  1.0000
  S   S89       1.0  0.34736  0.61549  0.32954  1.0000
  Fe  Fe46      1.0  0.24897  0.75033  0.30550  1.0000
  S   S90       1.0  0.24985  0.74353  0.28063  1.0000
  S   S91       1.0  0.28267  0.77504  0.32076  1.0000
  Fe  Fe47      1.0  0.19359  0.70656  0.30951  1.0000
  S   S92       1.0  0.18942  0.69551  0.28464  1.0000
  S   S93       1.0  0.16603  0.68244  0.32824  1.0000
  Fe  Fe48      1.0  0.23056  0.70092  0.28635  1.0000
  S   S94       1.0  0.24727  0.67733  0.27432  1.0000
  Fe  Fe49      1.0  0.20890  0.73886  0.28044  1.0000
  S   S95       1.0  0.19733  0.75906  0.26205  1.0000
  S   S96       1.0  0.23325  0.70807  0.31127  1.0000
  S   S97       1.0  0.20957  0.74971  0.30520  1.0000
  S   S98       1.0  0.46374  0.86576  0.29748  1.0000
  Fe  Fe50      1.0  0.42595  0.80028  0.31881  1.0000
  S   S99       1.0  0.41608  0.80514  0.29501  1.0000
  S   S100      1.0  0.40174  0.76398  0.33201  1.0000
  Fe  Fe51      1.0  0.42088  0.84430  0.30262  1.0000
  S   S101      1.0  0.38976  0.85225  0.29162  1.0000
  S   S102      1.0  0.42693  0.83766  0.32712  1.0000
  C   C287      1.0  0.33333  0.72476  0.28568  1.0000
  C   C288      1.0  0.31185  0.79669  0.31227  1.0000
  C   C289      1.0  0.31263  0.80484  0.29729  1.0000
  C   C290      1.0  0.33651  0.82265  0.29103  1.0000
  C   C291      1.0  0.35959  0.83151  0.29960  1.0000
  C   C292      1.0  0.35866  0.82302  0.31448  1.0000
  C   C293      1.0  0.33482  0.80593  0.32086  1.0000
  H   H339      1.0  0.29478  0.79803  0.29071  1.0000
  H   H340      1.0  0.33712  0.82956  0.27960  1.0000
  H   H341      1.0  0.37621  0.83019  0.32125  1.0000
  H   H342      1.0  0.33425  0.79982  0.33249  1.0000
  H   H343      1.0  0.48647  0.77053  0.36649  1.0000
  C   C294      1.0  0.48321  0.81256  0.37888  1.0000
  H   H344      1.0  0.45404  0.62982  0.33641  1.0000
  C   C295      1.0  0.41067  0.69246  0.31656  1.0000
  C   C296      1.0  0.39046  0.68976  0.32626  1.0000
  C   C297      1.0  0.38810  0.71190  0.33112  1.0000
  C   C298      1.0  0.40544  0.73673  0.32593  1.0000
  C   C299      1.0  0.42539  0.73948  0.31601  1.0000
  C   C300      1.0  0.42824  0.71736  0.31150  1.0000
  H   H345      1.0  0.37695  0.67069  0.33028  1.0000
  H   H346      1.0  0.37268  0.70973  0.33883  1.0000
  H   H347      1.0  0.43876  0.75861  0.31188  1.0000
  H   H348      1.0  0.44385  0.71951  0.30395  1.0000
  C   C301      1.0  0.27390  0.63241  0.30690  1.0000
  C   C302      1.0  0.25510  0.64020  0.31139  1.0000
  C   C303      1.0  0.24656  0.65363  0.30132  1.0000
  C   C304      1.0  0.25688  0.65942  0.28675  1.0000
  C   C305      1.0  0.27558  0.65149  0.28221  1.0000
  C   C306      1.0  0.28409  0.63798  0.29228  1.0000
  H   H349      1.0  0.24689  0.63557  0.32261  1.0000
  H   H350      1.0  0.23148  0.65888  0.30471  1.0000
  H   H351      1.0  0.28358  0.65589  0.27093  1.0000
  H   H352      1.0  0.29836  0.63174  0.28869  1.0000
  C   C307      1.0  0.33608  0.57882  0.24911  1.0000
  H   H353      1.0  0.24397  0.57815  0.36378  1.0000
  H   H354      1.0  0.45481  0.87204  0.35587  1.0000
  H   H355      1.0  0.44893  0.87880  0.38309  1.0000
  C   C308      1.0  0.46568  0.92928  0.48136  1.0000
  C   C309      1.0  0.45023  0.91605  0.46889  1.0000
  C   C310      1.0  0.42330  0.90857  0.46893  1.0000
  C   C311      1.0  0.44762  0.96940  0.45440  1.0000
  H   H356      1.0  0.43639  0.79451  0.36232  1.0000
  H   H357      1.0  0.45905  0.91193  0.45910  1.0000
  H   H358      1.0  0.41146  0.89867  0.45916  1.0000
  C   C312      1.0  0.40412  0.61387  0.34457  1.0000
  C   C313      1.0  0.14885  0.71561  0.37204  1.0000
  C   C314      1.0  0.14616  0.69003  0.37148  1.0000
  C   C315      1.0  0.15079  0.67992  0.35788  1.0000
  C   C316      1.0  0.15841  0.69528  0.34475  1.0000
  C   C317      1.0  0.16043  0.72056  0.34520  1.0000
  C   C318      1.0  0.15575  0.73065  0.35877  1.0000
  H   H359      1.0  0.14054  0.67793  0.38143  1.0000
  H   H360      1.0  0.14883  0.66021  0.35758  1.0000
  H   H361      1.0  0.16571  0.73238  0.33508  1.0000
  H   H362      1.0  0.15757  0.75032  0.35899  1.0000
  C   C319      1.0  0.42542  0.97126  0.45939  1.0000
  N   N19       1.0  0.47713  0.80279  0.36308  1.0000
  C   C320      1.0  0.40727  0.66282  0.26260  1.0000
  C   C321      1.0  0.47014  0.77449  0.36261  1.0000
  C   C322      1.0  0.13333  0.59973  0.47628  1.0000
  C   C323      1.0  0.27897  0.52833  0.39684  1.0000
  H   H363      1.0  0.46479  0.76632  0.35091  1.0000
  C   C324      1.0  0.34251  0.56410  0.39374  1.0000
  C   C325      1.0  0.34421  0.58311  0.38319  1.0000
  C   C326      1.0  0.34344  0.57816  0.36755  1.0000
  C   C327      1.0  0.34095  0.55406  0.36224  1.0000
  H   H364      1.0  0.34615  0.60180  0.38717  1.0000
  H   H365      1.0  0.34484  0.59308  0.35968  1.0000
  H   H366      1.0  0.45302  0.76315  0.36993  1.0000
  C   C328      1.0  0.42419  0.60545  0.47144  1.0000
  C   C329      1.0  0.44790  0.62852  0.47111  1.0000
  H   H367      1.0  0.44604  0.95620  0.44518  1.0000
  C   C330      1.0  0.39043  0.83034  0.24786  1.0000
  H   H368      1.0  0.41529  0.59529  0.46101  1.0000
  H   H369      1.0  0.45722  0.63602  0.46039  1.0000
  C   C331      1.0  0.47347  0.99945  0.47399  1.0000
  H   H370      1.0  0.38026  0.71776  0.26490  1.0000
  H   H371      1.0  0.42905  0.70402  0.25846  1.0000
  C   C332      1.0  0.12565  0.61946  0.47383  1.0000
  H   H372      1.0  0.49587  0.81176  0.34123  1.0000
  H   H373      1.0  0.33847  0.52509  0.39648  1.0000
  H   H374      1.0  0.48840  0.98087  0.45823  1.0000
  C   C333      1.0  0.24840  0.52400  0.46970  1.0000
  H   H375      1.0  0.27822  0.59642  0.35885  1.0000
  Fe  Fe52      1.0  0.45903  0.82590  0.29092  1.0000
  S   S103      1.0  0.47181  0.81417  0.26916  1.0000
  C   C334      1.0  0.01922  0.65356  0.44242  1.0000
  H   H376      1.0  0.45240  0.76034  0.47450  1.0000
  H   H377      1.0  0.30600  0.71075  0.25007  1.0000
  H   H378      1.0  0.45550  0.80152  0.46533  1.0000
  C   C335      1.0  0.02155  0.67165  0.45377  1.0000
  H   H379      1.0  0.14188  0.59364  0.46715  1.0000
  C   C336      1.0  0.34387  0.71401  0.25578  1.0000
  C   C337      1.0  0.48768  0.76339  0.46318  1.0000
  S   S104      1.0  0.48392  0.89613  0.40851  1.0000
  C   C338      1.0  0.32768  0.59827  0.24865  1.0000
  C   C339      1.0  0.47438  0.83129  0.40191  1.0000
  H   H380      1.0  0.25547  0.65439  0.24669  1.0000
  C   C340      1.0  0.32053  0.71492  0.25893  1.0000
  C   C341      1.0  0.20979  0.78683  0.48266  1.0000
  C   C342      1.0  0.35707  0.72402  0.28203  1.0000
  H   H381      1.0  0.27315  0.58031  0.38300  1.0000
  N   N20       1.0  0.26139  0.55480  0.35450  1.0000
  C   C343      1.0  0.48905  0.89042  0.38931  1.0000
  H   H382      1.0  0.46409  0.70428  0.48194  1.0000
  H   H383      1.0  0.46050  0.85752  0.26128  1.0000
  C   C344      1.0  0.25923  0.57969  0.35559  1.0000
  H   H384      1.0  0.37546  0.80443  0.27340  1.0000
  H   H385      1.0  0.31363  0.68879  0.30740  1.0000
  H   H386      1.0  0.20388  0.64980  0.46718  1.0000
  N   N21       1.0  0.42081  0.60100  0.34827  1.0000
  C   C345      1.0  0.44851  0.62096  0.34787  1.0000
  C   C346      1.0  0.41673  0.58156  0.33606  1.0000
  C   C347      1.0  0.41459  0.58934  0.36358  1.0000
  C   C348      1.0  0.41617  0.60516  0.37636  1.0000
  C   C349      1.0  0.41055  0.59467  0.39093  1.0000
  H   H387      1.0  0.45261  0.63740  0.35588  1.0000
  H   H388      1.0  0.46174  0.61220  0.35091  1.0000
  H   H389      1.0  0.42097  0.59080  0.32467  1.0000
  H   H390      1.0  0.39604  0.56613  0.33564  1.0000
  H   H391      1.0  0.42970  0.57199  0.33754  1.0000
  H   H392      1.0  0.40721  0.63029  0.35235  1.0000
  H   H393      1.0  0.40792  0.62235  0.33298  1.0000
  H   H394      1.0  0.42144  0.62570  0.37517  1.0000
  C   C350      1.0  0.46401  0.72282  0.47813  1.0000
  H   H395      1.0  0.34883  0.77134  0.29970  1.0000
  N   N22       1.0  0.07998  0.70255  0.40523  1.0000
  C   C351      1.0  0.06470  0.67415  0.40191  1.0000
  C   C352      1.0  0.06674  0.70933  0.41766  1.0000
  C   C353      1.0  0.07934  0.71702  0.39148  1.0000
  C   C354      1.0  0.10749  0.71018  0.40937  1.0000
  C   C355      1.0  0.12540  0.73852  0.41395  1.0000
  C   C356      1.0  0.11992  0.69147  0.40752  1.0000
  C   C357      1.0  0.15433  0.74777  0.41681  1.0000
  C   C358      1.0  0.14883  0.70086  0.41039  1.0000
  C   C359      1.0  0.16604  0.72913  0.41477  1.0000
  H   H396      1.0  0.07239  0.66821  0.39184  1.0000
  H   H397      1.0  0.06463  0.66201  0.41171  1.0000
  H   H398      1.0  0.04386  0.66881  0.39932  1.0000
  H   H399      1.0  0.04563  0.70265  0.41519  1.0000
  H   H400      1.0  0.07529  0.73072  0.41984  1.0000
  H   H401      1.0  0.06780  0.69999  0.42847  1.0000
  H   H402      1.0  0.08924  0.71257  0.38187  1.0000
  H   H403      1.0  0.05900  0.71194  0.38785  1.0000
  H   H404      1.0  0.08968  0.73858  0.39324  1.0000
  H   H405      1.0  0.11810  0.75289  0.41462  1.0000
  H   H406      1.0  0.10876  0.67145  0.40380  1.0000
  H   H407      1.0  0.16681  0.76808  0.41965  1.0000
  H   H408      1.0  0.15736  0.68759  0.40881  1.0000
  H   H409      1.0  0.18685  0.73610  0.41622  1.0000
  H   H410      1.0  0.41221  0.80280  0.26132  1.0000
  H   H411      1.0  0.33712  0.51625  0.36883  1.0000
  H   H412      1.0  0.40735  0.95897  0.45360  1.0000
  H   H413      1.0  0.38318  0.59952  0.34508  1.0000
  H   H414      1.0  0.32393  0.71099  0.32328  1.0000
  H   H415      1.0  0.40497  0.54867  0.35743  1.0000
  H   H416      1.0  0.23040  0.54095  0.33776  1.0000
  C   C360      1.0  0.23616  0.53448  0.34843  1.0000
  H   H417      1.0  0.39869  0.56014  0.40454  1.0000
  C   C361      1.0  0.36324  0.79420  0.26335  1.0000
  H   H418      1.0  0.38175  0.98151  0.45698  1.0000
  C   C362      1.0  0.42671  0.98762  0.47185  1.0000
  C   C363      1.0  0.20027  0.64440  0.47893  1.0000
  N   N23       1.0  0.37875  0.80142  0.24922  1.0000
  H   H419      1.0  0.10785  0.64180  0.48383  1.0000
  C   C364      1.0  0.45956  0.64186  0.48457  1.0000
  H   H420      1.0  0.16015  0.76303  0.24253  1.0000
  C   C365      1.0  0.46704  0.82639  0.25164  1.0000
  H   H421      1.0  0.45915  0.82694  0.35594  1.0000
  C   C366      1.0  0.41166  0.91404  0.48148  1.0000
  N   N24       1.0  0.40340  0.98904  0.47799  1.0000
  H   H422      1.0  0.32461  0.60636  0.25909  1.0000
  H   H423      1.0  0.38580  0.62090  0.26338  1.0000
  H   H424      1.0  0.23698  0.51594  0.34557  1.0000
  H   H425      1.0  0.29530  0.54006  0.48681  1.0000
  C   C367      1.0  0.46856  0.77166  0.46720  1.0000
  C   C368      1.0  0.39613  0.63783  0.25622  1.0000
  C   C369      1.0  0.40003  0.79369  0.25106  1.0000
  C   C370      1.0  0.39817  0.63438  0.24068  1.0000
  N   N25       1.0  0.23857  0.74417  0.35817  1.0000
  C   C371      1.0  0.21994  0.73228  0.37076  1.0000
  C   C372      1.0  0.25837  0.77042  0.36336  1.0000
  C   C373      1.0  0.22432  0.74820  0.34521  1.0000
  C   C374      1.0  0.24985  0.72651  0.35351  1.0000
  C   C375      1.0  0.27721  0.73490  0.35251  1.0000
  C   C376      1.0  0.23326  0.70004  0.34947  1.0000
  C   C377      1.0  0.28713  0.71768  0.34799  1.0000
  C   C378      1.0  0.24338  0.68306  0.34484  1.0000
  C   C379      1.0  0.27026  0.69184  0.34411  1.0000
  H   H426      1.0  0.22945  0.72751  0.38046  1.0000
  H   H427      1.0  0.21180  0.74547  0.37495  1.0000
  H   H428      1.0  0.20269  0.71400  0.36725  1.0000
  H   H429      1.0  0.26995  0.76889  0.37311  1.0000
  H   H430      1.0  0.24911  0.78291  0.36704  1.0000
  H   H431      1.0  0.27193  0.78135  0.35406  1.0000
  H   H432      1.0  0.21023  0.72947  0.33998  1.0000
  H   H433      1.0  0.21340  0.75926  0.34854  1.0000
  H   H434      1.0  0.23777  0.75939  0.33606  1.0000
  H   H435      1.0  0.29137  0.75483  0.35486  1.0000
  H   H436      1.0  0.21223  0.69244  0.34934  1.0000
  H   H437      1.0  0.30805  0.72459  0.34732  1.0000
  H   H438      1.0  0.23019  0.66317  0.34144  1.0000
  H   H439      1.0  0.27795  0.67864  0.34034  1.0000
  C   C380      1.0  0.26894  0.52203  0.37006  1.0000
  H   H440      1.0  0.49285  0.93743  0.33908  1.0000
  H   H441      1.0  0.20447  0.71327  0.46781  1.0000
  H   H442      1.0  0.28320  0.56450  0.40638  1.0000
  H   H443      1.0  0.37512  0.83710  0.24679  1.0000
  C   C381      1.0  0.17157  0.68583  0.48917  1.0000
  H   H444      1.0  0.34763  0.70935  0.24444  1.0000
  C   C382      1.0  0.45504  0.80601  0.35627  1.0000
  S   S105      1.0  0.38226  0.56683  0.48616  1.0000
  Fe  Fe53      1.0  0.30630  0.50649  0.45642  1.0000
  C   C383      1.0  0.36218  0.71872  0.26729  1.0000
  H   H445      1.0  0.45123  0.79882  0.34439  1.0000
  C   C384      1.0  0.27837  0.55237  0.39626  1.0000
  H   H446      1.0  0.22022  0.52985  0.35676  1.0000
  C   C385      1.0  0.31537  0.72049  0.27359  1.0000
  C   C386      1.0  0.41208  0.59558  0.48525  1.0000
  C   C387      1.0  0.46120  0.84762  0.25097  1.0000
  H   H447      1.0  0.24615  0.78425  0.48244  1.0000
  C   C388      1.0  0.32832  0.70854  0.31132  1.0000
  C   C389      1.0  0.33906  0.53495  0.37279  1.0000
  C   C390      1.0  0.33985  0.53992  0.38848  1.0000
  H   H448      1.0  0.37172  0.72710  0.29063  1.0000
  C   C391      1.0  0.46790  0.88197  0.37908  1.0000
  H   H449      1.0  0.36226  0.97616  0.47360  1.0000
  H   H450      1.0  0.14021  0.50569  0.47560  1.0000
  C   C392      1.0  0.23660  0.79594  0.48586  1.0000
  Fe  Fe54      1.0  0.46947  0.85526  0.32153  1.0000
  H   H451      1.0  0.30148  0.57372  0.34762  1.0000
  H   H452      1.0  0.20257  0.60840  0.47436  1.0000
  H   H453      1.0  0.30080  0.74512  0.29682  1.0000
  H   H454      1.0  0.25378  0.58518  0.34450  1.0000
  H   H455      1.0  0.35497  0.77289  0.26562  1.0000
  H   H456      1.0  0.34493  0.75936  0.31873  1.0000
  H   H457      1.0  0.29687  0.72077  0.27523  1.0000
  H   H458      1.0  0.03656  0.65362  0.43771  1.0000
  C   C393      1.0  0.18577  0.74491  0.24404  1.0000
  S   S106      1.0  0.46879  0.81713  0.31430  1.0000
  H   H459      1.0  0.26251  0.53443  0.46106  1.0000
  C   C394      1.0  0.26759  0.54617  0.36911  1.0000
  H   H460      1.0  0.29885  0.73290  0.31548  1.0000
  C   C395      1.0  0.40737  0.56246  0.36638  1.0000
  C   C396      1.0  0.37929  0.97430  0.46883  1.0000
  H   H461      1.0  0.00004  0.68474  0.46859  1.0000
  C   C397      1.0  0.40369  0.56834  0.39327  1.0000
  H   H462      1.0  0.15644  0.67223  0.48128  1.0000
  H   H463      1.0  0.41085  0.60679  0.40046  1.0000
  C   C398      1.0  0.28214  0.55882  0.34345  1.0000
  C   C399      1.0  0.23119  0.53368  0.47495  1.0000
  S   S107      1.0  0.33981  0.50149  0.46690  1.0000
  H   H464      1.0  0.17243  0.70548  0.48749  1.0000
  C   C400      1.0  0.48654  0.72207  0.45554  1.0000
  C   C401      1.0  0.34833  0.75514  0.30685  1.0000
  C   C402      1.0  0.30226  0.72934  0.30348  1.0000
  H   H465      1.0  0.26639  0.51001  0.36013  1.0000
  H   H466      1.0  0.40579  0.66526  0.27470  1.0000
  C   C403      1.0  0.40220  0.55231  0.38104  1.0000
  C   C404      1.0  0.42032  0.68459  0.25342  1.0000
  H   H467      1.0  0.28584  0.71018  0.30017  1.0000
  H   H468      1.0  0.45076  0.82251  0.38228  1.0000
  H   H469      1.0  0.23235  0.55165  0.47030  1.0000
  H   H470      1.0  0.39223  0.77211  0.25207  1.0000
  C   C405      1.0  0.47153  0.98329  0.46175  1.0000
  C   C406      1.0  0.19571  0.66020  0.48984  1.0000
  S   S108      1.0  0.37809  0.90554  0.48071  1.0000
  H   H471      1.0  0.46268  0.83890  0.40782  1.0000
  C   C407      1.0  0.47006  0.79538  0.46198  1.0000
  C   C408      1.0  0.47117  0.87804  0.36363  1.0000
  N   N26       1.0  0.32796  0.72937  0.30150  1.0000
  H   H472      1.0  0.36814  0.75625  0.30678  1.0000
  H   H473      1.0  0.18863  0.67967  0.46231  1.0000
  H   H474      1.0  0.34764  0.70845  0.31147  1.0000
  H   H475      1.0  0.34721  0.80005  0.26299  1.0000
  H   H476      1.0  0.48473  0.70270  0.45926  1.0000
  H   H477      1.0  0.44538  0.71701  0.47180  1.0000
  C   C409      1.0  0.20371  0.69382  0.47017  1.0000
  H   H478      1.0  0.37350  0.95287  0.46867  1.0000
  S   S109      1.0  0.48916  0.67082  0.48370  1.0000
  H   H479      1.0  0.27832  0.56579  0.33240  1.0000
  C   C410      1.0  0.27278  0.56130  0.38265  1.0000
  N   N27       1.0  0.48703  0.73862  0.46862  1.0000
  H   H480      1.0  0.46973  0.71824  0.44787  1.0000
  H   H481      1.0  0.41372  0.79997  0.24140  1.0000
  H   H482      1.0  0.47273  0.93097  0.36432  1.0000
  H   H483      1.0  0.46388  0.73352  0.48866  1.0000
  C   C411      1.0  0.11445  0.62708  0.48568  1.0000
  C   C412      1.0  0.19955  0.62040  0.48288  1.0000
  H   H484      1.0  0.28407  0.54066  0.34112  1.0000
  H   H485      1.0  0.32509  0.76653  0.24607  1.0000
  C   C413      1.0  0.21226  0.52017  0.48595  1.0000
  H   H486      1.0  0.49202  0.83019  0.44903  1.0000
  H   H487      1.0  0.22314  0.69536  0.46720  1.0000
  N   N28       1.0  0.19707  0.68608  0.48621  1.0000
  C   C414      1.0  0.46774  0.82177  0.38711  1.0000
  H   H488      1.0  0.31306  0.82263  0.24180  1.0000
  H   H489      1.0  0.32320  0.53450  0.48900  1.0000
  H   H490      1.0  0.17726  0.79562  0.48488  1.0000
  C   C415      1.0  0.99855  0.67087  0.45984  1.0000
  C   C416      1.0  0.49048  0.81148  0.45269  1.0000
  C   C417      1.0  0.19783  0.80229  0.48716  1.0000
  H   H491      1.0  0.23781  0.68561  0.24129  1.0000
  H   H492      1.0  0.20985  0.72506  0.24183  1.0000
  C   C418      1.0  0.49355  0.94321  0.36316  1.0000
  C   C419      1.0  0.49575  0.88283  0.35820  1.0000
  H   H493      1.0  0.16542  0.50177  0.45703  1.0000
  S   S110      1.0  0.31748  0.50041  0.43268  1.0000
  C   C420      1.0  0.24665  0.50037  0.47523  1.0000
  C   C421      1.0  0.27436  0.51323  0.38375  1.0000
  C   C422      1.0  0.49662  0.83228  0.40889  1.0000
  H   H494      1.0  0.28419  0.52198  0.40733  1.0000
  Fe  Fe55      1.0  0.35331  0.49965  0.44324  1.0000
  S   S111      1.0  0.11084  0.52140  0.54200  1.0000
  H   H495      1.0  0.41826  0.93098  0.50383  1.0000
  S   S112      1.0  0.17024  0.55604  0.52820  1.0000
  C   C423      1.0  0.25131  0.82018  0.49328  1.0000
  Fe  Fe56      1.0  0.15100  0.52367  0.54502  1.0000
  H   H496      1.0  0.34155  0.98505  0.55364  1.0000
  Fe  Fe57      1.0  0.12988  0.55143  0.52381  1.0000
  S   S113      1.0  0.12005  0.58518  0.52116  1.0000
  H   H497      1.0  0.18554  0.66063  0.51361  1.0000
  Fe  Fe58      1.0  0.34374  0.94715  0.51905  1.0000
  S   S114      1.0  0.37480  0.93387  0.52200  1.0000
  Fe  Fe59      1.0  0.30069  0.89035  0.51201  1.0000
  S   S115      1.0  0.32926  0.87375  0.51446  1.0000
  S   S116      1.0  0.25664  0.86583  0.50789  1.0000
  Fe  Fe60      1.0  0.34432  0.90019  0.53486  1.0000
  S   S117      1.0  0.35654  0.88619  0.55599  1.0000
  Fe  Fe61      1.0  0.35684  0.90894  0.50141  1.0000
  H   H498      1.0  0.36380  0.93179  0.62350  1.0000
  S   S118      1.0  0.31419  0.91489  0.53340  1.0000
  H   H499      1.0  0.43567  0.83229  0.62522  1.0000
  H   H500      1.0  0.34994  0.81162  0.72025  1.0000
  Fe  Fe62      1.0  0.31719  0.85497  0.63976  1.0000
  S   S119      1.0  0.35235  0.86852  0.65508  1.0000
  S   S120      1.0  0.30974  0.87917  0.62178  1.0000
  Fe  Fe63      1.0  0.29171  0.80145  0.65383  1.0000
  S   S121      1.0  0.32443  0.80964  0.67020  1.0000
  S   S122      1.0  0.25572  0.76288  0.65304  1.0000
  Fe  Fe64      1.0  0.32444  0.84828  0.67398  1.0000
  S   S123      1.0  0.33676  0.86694  0.69726  1.0000
  Fe  Fe65      1.0  0.35018  0.82911  0.65056  1.0000
  S   S124      1.0  0.38765  0.82600  0.64906  1.0000
  S   S125      1.0  0.28914  0.83861  0.65917  1.0000
  S   S126      1.0  0.31746  0.81701  0.63360  1.0000
  Fe  Fe66      1.0  0.39797  0.69903  0.64932  1.0000
  S   S127      1.0  0.38734  0.67648  0.67084  1.0000
  S   S128      1.0  0.37020  0.71055  0.63725  1.0000
  Fe  Fe67      1.0  0.40175  0.65053  0.65972  1.0000
  S   S129      1.0  0.38116  0.60685  0.66255  1.0000
  S   S130      1.0  0.40823  0.67049  0.63729  1.0000
  Fe  Fe68      1.0  0.19914  0.58293  0.65167  1.0000
  S   S131      1.0  0.20509  0.61725  0.66666  1.0000
  S   S132      1.0  0.16965  0.56942  0.63214  1.0000
  Fe  Fe69      1.0  0.23861  0.57257  0.66944  1.0000
  S   S133      1.0  0.24837  0.60561  0.68579  1.0000
  S   S134      1.0  0.25826  0.54657  0.66931  1.0000
  Fe  Fe70      1.0  0.20528  0.59261  0.68643  1.0000
  S   S135      1.0  0.18504  0.59531  0.70794  1.0000
  Fe  Fe71      1.0  0.24767  0.62798  0.66521  1.0000
  S   S136      1.0  0.28137  0.66812  0.66386  1.0000
  S   S137      1.0  0.19521  0.55714  0.67171  1.0000
  S   S138      1.0  0.24191  0.59596  0.64868  1.0000
  C   C424      1.0  0.19688  0.59192  0.72594  1.0000
  C   C425      1.0  0.21785  0.58591  0.72742  1.0000
  S   S139      1.0  0.44327  0.67341  0.66784  1.0000
  C   C426      1.0  0.45072  0.75398  0.59370  1.0000
  H   H501      1.0  0.29358  0.52504  0.53789  1.0000
  H   H502      1.0  0.22702  0.58300  0.71742  1.0000
  H   H503      1.0  0.41453  0.60130  0.50945  1.0000
  C   C427      1.0  0.34693  0.59107  0.66412  1.0000
  C   C428      1.0  0.33218  0.60502  0.66471  1.0000
  C   C429      1.0  0.30486  0.59154  0.66633  1.0000
  C   C430      1.0  0.29234  0.56413  0.66736  1.0000
  C   C431      1.0  0.30717  0.55035  0.66681  1.0000
  C   C432      1.0  0.33433  0.56376  0.66523  1.0000
  H   H504      1.0  0.34177  0.62611  0.66403  1.0000
  H   H505      1.0  0.29352  0.60232  0.66691  1.0000
  H   H506      1.0  0.29765  0.52922  0.66763  1.0000
  H   H507      1.0  0.34562  0.55288  0.66485  1.0000
  S   S140      1.0  0.47104  0.69215  0.55761  1.0000
  C   C433      1.0  0.38177  0.79343  0.64675  1.0000
  C   C434      1.0  0.40072  0.78593  0.65143  1.0000
  C   C435      1.0  0.39690  0.76025  0.64895  1.0000
  C   C436      1.0  0.37439  0.74219  0.64148  1.0000
  C   C437      1.0  0.35534  0.74966  0.63689  1.0000
  C   C438      1.0  0.35885  0.77519  0.63971  1.0000
  H   H508      1.0  0.41847  0.80004  0.65687  1.0000
  H   H509      1.0  0.41159  0.75469  0.65261  1.0000
  H   H510      1.0  0.33782  0.73573  0.63117  1.0000
  H   H511      1.0  0.34417  0.78093  0.63605  1.0000
  C   C439      1.0  0.26297  0.73635  0.65476  1.0000
  C   C440      1.0  0.28886  0.74042  0.65564  1.0000
  C   C441      1.0  0.29436  0.71922  0.65816  1.0000
  C   C442      1.0  0.27399  0.69389  0.65947  1.0000
  C   C443      1.0  0.24815  0.68966  0.65786  1.0000
  C   C444      1.0  0.24262  0.71090  0.65563  1.0000
  H   H512      1.0  0.30466  0.75990  0.65460  1.0000
  H   H513      1.0  0.31441  0.72252  0.65925  1.0000
  H   H514      1.0  0.23243  0.67011  0.65838  1.0000
  H   H515      1.0  0.22258  0.70769  0.65470  1.0000
  H   H516      1.0  0.46263  0.77285  0.58790  1.0000
  C   C445      1.0  0.33785  0.85900  0.72777  1.0000
  C   C446      1.0  0.32321  0.85043  0.71432  1.0000
  C   C447      1.0  0.29833  0.82915  0.71477  1.0000
  C   C448      1.0  0.28802  0.81691  0.72866  1.0000
  H   H517      1.0  0.35699  0.87562  0.72754  1.0000
  H   H518      1.0  0.28669  0.82285  0.70453  1.0000
  C   C449      1.0  0.34302  0.88434  0.57412  1.0000
  C   C450      1.0  0.32361  0.89224  0.57677  1.0000
  C   C451      1.0  0.31323  0.89019  0.59138  1.0000
  C   C452      1.0  0.32228  0.88039  0.60343  1.0000
  C   C453      1.0  0.34167  0.87249  0.60075  1.0000
  C   C454      1.0  0.35197  0.87447  0.58615  1.0000
  H   H519      1.0  0.31665  0.89996  0.56763  1.0000
  H   H520      1.0  0.29824  0.89633  0.59342  1.0000
  H   H521      1.0  0.34887  0.86506  0.60996  1.0000
  H   H522      1.0  0.36699  0.86834  0.58418  1.0000
  H   H523      1.0  0.43559  0.66913  0.58201  1.0000
  H   H524      1.0  0.15354  0.51773  0.65003  1.0000
  H   H525      1.0  0.21209  0.70390  0.50804  1.0000
  H   H526      1.0  0.38550  0.86222  0.70257  1.0000
  H   H527      1.0  0.43950  0.67526  0.60986  1.0000
  S   S141      1.0  0.19023  0.53283  0.49142  1.0000
  H   H528      1.0  0.45634  0.64217  0.50883  1.0000
  C   C455      1.0  0.34084  0.97707  0.56522  1.0000
  C   C456      1.0  0.17501  0.54137  0.58378  1.0000
  C   C457      1.0  0.15417  0.54634  0.58795  1.0000
  C   C458      1.0  0.15316  0.55540  0.60269  1.0000
  C   C459      1.0  0.17312  0.56008  0.61335  1.0000
  C   C460      1.0  0.19456  0.55624  0.60895  1.0000
  C   C461      1.0  0.19530  0.54664  0.59432  1.0000
  C   C462      1.0  0.45377  0.68343  0.58695  1.0000
  H   H529      1.0  0.13656  0.55845  0.60591  1.0000
  H   H530      1.0  0.21038  0.56028  0.61683  1.0000
  C   C463      1.0  0.04521  0.53971  0.50851  1.0000
  Fe  Fe72      1.0  0.16101  0.52424  0.51082  1.0000
  Fe  Fe73      1.0  0.42907  0.70084  0.67806  1.0000
  N   N29       1.0  0.25854  0.83613  0.55216  1.0000
  C   C464      1.0  0.25578  0.86071  0.55200  1.0000
  C   C465      1.0  0.28132  0.84036  0.54263  1.0000
  C   C466      1.0  0.23506  0.81504  0.54490  1.0000
  C   C467      1.0  0.26105  0.82901  0.56799  1.0000
  C   C468      1.0  0.28308  0.82620  0.57339  1.0000
  C   C469      1.0  0.24119  0.82507  0.57864  1.0000
  C   C470      1.0  0.28507  0.82025  0.58854  1.0000
  C   C471      1.0  0.24356  0.81940  0.59380  1.0000
  C   C472      1.0  0.26554  0.81715  0.59875  1.0000
  H   H531      1.0  0.27235  0.87671  0.55808  1.0000
  H   H532      1.0  0.25529  0.86749  0.54024  1.0000
  H   H533      1.0  0.23745  0.85844  0.55738  1.0000
  H   H534      1.0  0.27874  0.84557  0.53081  1.0000
  H   H535      1.0  0.28414  0.82240  0.54178  1.0000
  H   H536      1.0  0.29964  0.85669  0.54710  1.0000
  H   H537      1.0  0.21671  0.81204  0.55058  1.0000
  H   H538      1.0  0.23301  0.81964  0.53283  1.0000
  H   H539      1.0  0.23607  0.79606  0.54509  1.0000
  H   H540      1.0  0.29943  0.82919  0.56629  1.0000
  H   H541      1.0  0.22383  0.82674  0.57538  1.0000
  H   H542      1.0  0.30232  0.81887  0.59255  1.0000
  H   H543      1.0  0.22847  0.81705  0.60184  1.0000
  H   H544      1.0  0.26764  0.81337  0.61059  1.0000
  S   S142      1.0  0.12186  0.52235  0.50521  1.0000
  S   S143      1.0  0.35052  0.98970  0.52128  1.0000
  N   N30       1.0  0.36550  0.97590  0.56923  1.0000
  C   C473      1.0  0.38578  0.95911  0.58907  1.0000
  H   H545      1.0  0.32388  0.95722  0.56531  1.0000
  H   H546      1.0  0.38797  0.85366  0.72141  1.0000
  H   H547      1.0  0.06607  0.55226  0.50950  1.0000
  H   H548      1.0  0.48986  0.89281  0.49748  1.0000
  H   H549      1.0  0.37514  0.80295  0.68328  1.0000
  H   H550      1.0  0.32744  0.96157  0.59219  1.0000
  H   H551      1.0  0.47479  0.59282  0.53060  1.0000
  H   H552      1.0  0.18354  0.61832  0.51989  1.0000
  C   C474      1.0  0.39328  0.85117  0.70966  1.0000
  C   C475      1.0  0.13091  0.58849  0.49065  1.0000
  H   H553      1.0  0.40241  0.96346  0.58192  1.0000
  H   H554      1.0  0.33192  0.58823  0.51645  1.0000
  C   C476      1.0  0.46278  0.70404  0.71971  1.0000
  C   C477      1.0  0.28762  0.72835  0.73755  1.0000
  C   C478      1.0  0.38592  0.82293  0.68827  1.0000
  H   H555      1.0  0.40101  0.94284  0.60625  1.0000
  H   H556      1.0  0.24057  0.76442  0.70770  1.0000
  H   H557      1.0  0.34509  0.78916  0.70485  1.0000
  H   H558      1.0  0.34371  0.81947  0.70161  1.0000
  H   H559      1.0  0.46033  0.80729  0.62418  1.0000
  H   H560      1.0  0.31947  0.51817  0.52035  1.0000
  C   C479      1.0  0.44209  0.79952  0.61801  1.0000
  H   H561      1.0  0.48065  0.75681  0.61725  1.0000
  C   C480      1.0  0.38588  0.63210  0.72867  1.0000
  C   C481      1.0  0.24731  0.54808  0.51803  1.0000
  H   H562      1.0  0.35868  0.59889  0.69591  1.0000
  H   H563      1.0  0.32769  0.94158  0.61631  1.0000
  C   C482      1.0  0.36494  0.96439  0.58431  1.0000
  N   N31       1.0  0.30584  0.64266  0.62334  1.0000
  C   C483      1.0  0.30243  0.61572  0.62033  1.0000
  C   C484      1.0  0.32655  0.66075  0.61321  1.0000
  C   C485      1.0  0.31498  0.64915  0.63925  1.0000
  C   C486      1.0  0.28177  0.64572  0.62091  1.0000
  C   C487      1.0  0.25824  0.62534  0.61496  1.0000
  C   C488      1.0  0.28159  0.66997  0.62418  1.0000
  C   C489      1.0  0.23580  0.62889  0.61308  1.0000
  C   C490      1.0  0.25912  0.67334  0.62214  1.0000
  C   C491      1.0  0.23619  0.65276  0.61675  1.0000
  H   H564      1.0  0.29715  0.60988  0.60830  1.0000
  H   H565      1.0  0.32073  0.61405  0.62271  1.0000
  H   H566      1.0  0.28719  0.60119  0.62776  1.0000
  H   H567      1.0  0.32057  0.65647  0.60112  1.0000
  H   H568      1.0  0.34522  0.65952  0.61490  1.0000
  H   H569      1.0  0.33110  0.68154  0.61539  1.0000
  H   H570      1.0  0.31975  0.66962  0.64240  1.0000
  H   H571      1.0  0.29987  0.63625  0.64729  1.0000
  H   H572      1.0  0.33315  0.64722  0.64145  1.0000
  H   H573      1.0  0.25639  0.60627  0.61200  1.0000
  H   H574      1.0  0.29873  0.68645  0.62867  1.0000
  H   H575      1.0  0.21780  0.61294  0.60892  1.0000
  H   H576      1.0  0.25939  0.69190  0.62507  1.0000
  H   H577      1.0  0.21864  0.65524  0.61548  1.0000
  H   H578      1.0  0.37132  0.58887  0.71190  1.0000
  H   H579      1.0  0.42175  0.76689  0.70915  1.0000
  H   H580      1.0  0.47882  0.64621  0.56547  1.0000
  C   C492      1.0  0.28330  0.74416  0.69366  1.0000
  C   C493      1.0  0.39496  0.80963  0.71344  1.0000
  H   H581      1.0  0.45424  0.61483  0.54580  1.0000
  C   C494      1.0  0.40357  0.79253  0.70636  1.0000
  C   C495      1.0  0.34418  0.95836  0.59470  1.0000
  H   H582      1.0  0.38985  0.96116  0.55798  1.0000
  C   C496      1.0  0.28789  0.54350  0.51733  1.0000
  C   C497      1.0  0.26993  0.55118  0.51055  1.0000
  C   C498      1.0  0.37011  0.96018  0.55730  1.0000
  H   H583      1.0  0.31729  0.58331  0.49791  1.0000
  H   H584      1.0  0.16874  0.59998  0.73803  1.0000
  H   H585      1.0  0.35576  0.93915  0.55808  1.0000
  S   S144      1.0  0.17543  0.52639  0.56616  1.0000
  C   C499      1.0  0.44255  0.71133  0.71930  1.0000
  H   H586      1.0  0.41487  0.98863  0.50128  1.0000
  C   C500      1.0  0.41831  0.78344  0.73039  1.0000
  H   H587      1.0  0.41691  0.65935  0.70439  1.0000
  C   C501      1.0  0.24156  0.53674  0.53229  1.0000
  C   C502      1.0  0.47420  0.61861  0.54819  1.0000
  C   C503      1.0  0.03480  0.51364  0.51294  1.0000
  C   C504      1.0  0.42821  0.81430  0.61862  1.0000
  H   H588      1.0  0.10445  0.62266  0.50935  1.0000
  C   C505      1.0  0.47088  0.76978  0.61791  1.0000
  C   C506      1.0  0.48579  0.60633  0.53958  1.0000
  C   C507      1.0  0.30548  0.53294  0.49492  1.0000
  H   H589      1.0  0.42282  0.73573  0.62810  1.0000
  C   C508      1.0  0.36456  0.94152  0.61285  1.0000
  C   C509      1.0  0.43196  0.77521  0.61006  1.0000
  N   N32       1.0  0.22713  0.67768  0.70378  1.0000
  C   C510      1.0  0.21753  0.67119  0.71953  1.0000
  C   C511      1.0  0.20426  0.66908  0.69344  1.0000
  C   C512      1.0  0.24123  0.66211  0.70008  1.0000
  C   C513      1.0  0.24353  0.70627  0.70217  1.0000
  C   C514      1.0  0.23383  0.72413  0.70656  1.0000
  C   C515      1.0  0.26884  0.71716  0.69564  1.0000
  C   C516      1.0  0.40332  0.63826  0.70254  1.0000
  H   H590      1.0  0.30205  0.75192  0.68807  1.0000
  H   H591      1.0  0.29621  0.73397  0.72644  1.0000
  H   H592      1.0  0.23397  0.67888  0.72778  1.0000
  H   H593      1.0  0.20382  0.67921  0.72264  1.0000
  H   H594      1.0  0.20644  0.64959  0.72117  1.0000
  H   H595      1.0  0.21051  0.67412  0.68151  1.0000
  H   H596      1.0  0.39295  0.81651  0.61251  1.0000
  H   H597      1.0  0.19179  0.64746  0.69394  1.0000
  H   H598      1.0  0.25917  0.66813  0.70709  1.0000
  H   H599      1.0  0.22901  0.64089  0.70202  1.0000
  H   H600      1.0  0.24662  0.66382  0.68792  1.0000
  H   H601      1.0  0.21448  0.71734  0.71116  1.0000
  H   H602      1.0  0.27764  0.70525  0.69146  1.0000
  H   H603      1.0  0.25379  0.51958  0.55026  1.0000
  C   C517      1.0  0.39836  0.97780  0.49336  1.0000
  S   S145      1.0  0.42921  0.71609  0.70205  1.0000
  C   C518      1.0  0.36244  0.60175  0.70835  1.0000
  H   H604      1.0  0.20292  0.83804  0.49825  1.0000
  H   H605      1.0  0.40690  0.83090  0.68523  1.0000
  H   H606      1.0  0.21109  0.51479  0.63361  1.0000
  H   H607      1.0  0.43250  0.74321  0.58700  1.0000
  H   H608      1.0  0.39808  0.63611  0.69030  1.0000
  C   C519      1.0  0.45592  0.68692  0.60278  1.0000
  Fe  Fe74      1.0  0.44869  0.69583  0.64590  1.0000
  S   S146      1.0  0.43872  0.72570  0.65702  1.0000
  H   H609      1.0  0.36098  0.64351  0.69597  1.0000
  C   C520      1.0  0.23934  0.83561  0.49782  1.0000
  C   C521      1.0  0.00186  0.53361  0.50159  1.0000
  C   C522      1.0  0.24854  0.75113  0.70457  1.0000
  C   C523      1.0  0.41511  0.77972  0.71478  1.0000
  H   H610      1.0  0.19619  0.53522  0.63880  1.0000
  H   H611      1.0  0.33573  0.55052  0.52903  1.0000
  H   H612      1.0  0.13839  0.54235  0.58000  1.0000
  N   N33       1.0  0.31216  0.54787  0.50935  1.0000
  H   H613      1.0  0.29253  0.51174  0.49682  1.0000
  C   C524      1.0  0.12101  0.59710  0.50270  1.0000
  H   H614      1.0  0.22381  0.53414  0.53797  1.0000
  H   H615      1.0  0.46820  0.77215  0.63021  1.0000
  C   C525      1.0  0.43296  0.71590  0.73302  1.0000
  H   H616      1.0  0.46592  0.94475  0.50366  1.0000
  S   S147      1.0  0.32735  0.92414  0.49755  1.0000
  C   C526      1.0  0.47360  0.70189  0.73373  1.0000
  H   H617      1.0  0.34299  0.59440  0.71373  1.0000
  H   H618      1.0  0.34527  0.61637  0.73586  1.0000
  N   N34       1.0  0.44552  0.75847  0.60961  1.0000
  C   C527      1.0  0.11244  0.61616  0.50012  1.0000
  H   H619      1.0  0.41402  0.62644  0.70452  1.0000
  H   H620      1.0  0.38069  0.97799  0.49839  1.0000
  C   C528      1.0  0.21719  0.70667  0.49585  1.0000
  H   H621      1.0  0.37922  0.66677  0.71054  1.0000
  H   H622      1.0  0.39811  0.74833  0.59686  1.0000
  C   C529      1.0  0.19402  0.61129  0.49766  1.0000
  H   H623      1.0  0.23652  0.70682  0.49449  1.0000
  C   C530      1.0  0.18902  0.62605  0.50856  1.0000
  C   C531      1.0  0.47495  0.69800  0.57748  1.0000
  N   N35       1.0  0.37984  0.62954  0.71224  1.0000
  C   C532      1.0  0.36640  0.64558  0.70819  1.0000
  H   H624      1.0  0.34796  0.63978  0.71447  1.0000
  C   C533      1.0  0.39358  0.78174  0.60356  1.0000
  C   C534      1.0  0.42706  0.92683  0.49408  1.0000
  C   C535      1.0  0.38538  0.94759  0.60306  1.0000
  H   H625      1.0  0.40165  0.78871  0.69432  1.0000
  H   H626      1.0  0.48243  0.58732  0.49064  1.0000
  H   H627      1.0  0.47053  0.70071  0.70924  1.0000
  H   H628      1.0  0.41740  0.72163  0.73284  1.0000
  H   H629      1.0  0.41493  0.86115  0.70878  1.0000
  N   N36       1.0  0.38240  0.82324  0.70492  1.0000
  H   H630      1.0  0.21150  0.54289  0.59120  1.0000
  C   C536      1.0  0.41177  0.64206  0.73451  1.0000
  H   H631      1.0  0.39056  0.82380  0.73579  1.0000
  C   C537      1.0  0.19736  0.51686  0.64167  1.0000
  S   S148      1.0  0.48282  0.71047  0.62933  1.0000
  C   C538      1.0  0.47933  0.70513  0.60940  1.0000
  H   H632      1.0  0.28405  0.78187  0.69595  1.0000
  H   H633      1.0  0.13766  0.57391  0.49252  1.0000
  C   C539      1.0  0.18994  0.65017  0.50477  1.0000
  H   H634      1.0  0.03711  0.57003  0.49944  1.0000
  H   H635      1.0  0.49630  0.86867  0.52531  1.0000
  C   C540      1.0  0.32754  0.57614  0.50596  1.0000
  H   H636      1.0  0.34746  0.54343  0.51181  1.0000
  C   C541      1.0  0.40402  0.80541  0.61146  1.0000
  C   C542      1.0  0.02880  0.54967  0.50286  1.0000
  H   H637      1.0  0.26846  0.80099  0.72902  1.0000
  C   C543      1.0  0.48847  0.63648  0.55956  1.0000
  H   H638      1.0  0.43883  0.72034  0.61763  1.0000
  C   C544      1.0  0.42382  0.60887  0.49873  1.0000
  C   C545      1.0  0.40731  0.76685  0.60281  1.0000
  C   C546      1.0  0.44749  0.63199  0.49840  1.0000
  H   H639      1.0  0.23393  0.55420  0.51264  1.0000
  C   C547      1.0  0.45403  0.93453  0.49398  1.0000
  H   H640      1.0  0.20663  0.51969  0.65309  1.0000
  C   C548      1.0  0.28140  0.53187  0.53190  1.0000
  C   C549      1.0  0.39763  0.81213  0.72944  1.0000
  H   H641      1.0  0.46152  0.74196  0.59305  1.0000
  C   C550      1.0  0.21248  0.82639  0.49477  1.0000
  C   C551      1.0  0.42870  0.73286  0.61657  1.0000
  H   H642      1.0  0.37833  0.83518  0.68220  1.0000
  H   H643      1.0  0.19155  0.67848  0.69621  1.0000
  H   H644      1.0  0.27313  0.55950  0.49933  1.0000
  H   H645      1.0  0.34650  0.58036  0.50055  1.0000
  C   C552      1.0  0.18506  0.59544  0.73907  1.0000
  C   C553      1.0  0.27314  0.76107  0.69804  1.0000
  H   H646      1.0  0.19275  0.59233  0.50053  1.0000
  H   H647      1.0  0.37441  0.77459  0.59837  1.0000
  C   C554      1.0  0.32932  0.53960  0.51814  1.0000
  H   H648      1.0  0.41044  0.72136  0.61004  1.0000
  C   C555      1.0  0.35405  0.81024  0.70806  1.0000
  H   H649      1.0  0.21946  0.72656  0.49289  1.0000
  C   C556      1.0  0.40952  0.79956  0.73769  1.0000
  S   S149      1.0  0.49317  0.71935  0.51662  1.0000
  H   H650      1.0  0.42761  0.77378  0.73682  1.0000
  H   H651      1.0  0.36852  0.96713  0.54577  1.0000
  C   C557      1.0  0.25851  0.52857  0.53919  1.0000
  C   C558      1.0  0.34415  0.94709  0.60874  1.0000
  H   H652      1.0  0.16445  0.67970  0.50084  1.0000
  H   H653      1.0  0.42866  0.64867  0.72732  1.0000
  H   H654      1.0  0.28616  0.69081  0.73615  1.0000
  H   H655      1.0  0.39526  0.95716  0.49303  1.0000
  C   C559      1.0  0.36545  0.62435  0.73942  1.0000
  H   H656      1.0  0.27190  0.82688  0.49552  1.0000
  H   H657      1.0  0.48480  0.78897  0.61315  1.0000
  H   H658      1.0  0.49232  0.89772  0.52482  1.0000
  H   H659      1.0  0.48952  0.69666  0.73392  1.0000
  H   H660      1.0  0.04765  0.50593  0.51734  1.0000
  H   H661      1.0  0.16266  0.50120  0.66417  1.0000
  H   H662      1.0  0.12787  0.49979  0.62961  1.0000
  H   H663      1.0  0.33697  0.99024  0.57299  1.0000
  Fe  Fe75      1.0  0.31455  0.81865  0.78031  1.0000
  S   S150      1.0  0.30033  0.81510  0.80440  1.0000
  S   S151      1.0  0.28867  0.81050  0.75948  1.0000
  Fe  Fe76      1.0  0.36762  0.82468  0.78981  1.0000
  S   S152      1.0  0.35882  0.82183  0.81462  1.0000
  S   S153      1.0  0.40255  0.82425  0.77872  1.0000
  Fe  Fe77      1.0  0.32006  0.78955  0.80785  1.0000
  S   S154      1.0  0.30592  0.75405  0.82248  1.0000
  Fe  Fe78      1.0  0.34001  0.84792  0.80988  1.0000
  S   S155      1.0  0.34603  0.88080  0.82650  1.0000
  S   S156      1.0  0.33043  0.78971  0.78357  1.0000
  S   S157      1.0  0.35253  0.85404  0.78531  1.0000
  Fe  Fe79      1.0  0.44257  0.72813  0.81249  1.0000
  S   S158      1.0  0.42400  0.70880  0.79045  1.0000
  S   S159      1.0  0.44376  0.76467  0.82271  1.0000
  Fe  Fe80      1.0  0.40799  0.67170  0.80383  1.0000
  S   S160      1.0  0.36796  0.64109  0.79698  1.0000
  S   S161      1.0  0.42288  0.69152  0.82625  1.0000
  Fe  Fe81      1.0  0.19867  0.62724  0.81302  1.0000
  S   S162      1.0  0.20246  0.61218  0.83581  1.0000
  S   S163      1.0  0.19378  0.66339  0.80879  1.0000
  Fe  Fe82      1.0  0.21229  0.58945  0.79555  1.0000
  S   S164      1.0  0.21695  0.57035  0.81689  1.0000
  S   S165      1.0  0.22627  0.58196  0.77288  1.0000
  Fe  Fe83      1.0  0.18100  0.57258  0.82501  1.0000
  S   S166      1.0  0.14992  0.54083  0.83899  1.0000
  Fe  Fe84      1.0  0.23789  0.61099  0.82631  1.0000
  S   S167      1.0  0.27493  0.62570  0.83990  1.0000
  S   S168      1.0  0.17397  0.58777  0.80266  1.0000
  S   S169      1.0  0.23636  0.62988  0.80461  1.0000
  H   H664      1.0  0.29029  0.79245  0.83773  1.0000
  Fe  Fe85      1.0  0.33001  0.88650  0.91766  1.0000
  S   S170      1.0  0.30585  0.89920  0.93269  1.0000
  S   S171      1.0  0.31711  0.86102  0.89633  1.0000
  Fe  Fe86      1.0  0.37304  0.90143  0.94117  1.0000
  S   S172      1.0  0.35245  0.91469  0.95792  1.0000
  S   S173      1.0  0.41288  0.90320  0.94453  1.0000
  Fe  Fe87      1.0  0.31559  0.87836  0.95149  1.0000
  S   S174      1.0  0.29022  0.85411  0.97136  1.0000
  Fe  Fe88      1.0  0.34432  0.93484  0.93825  1.0000
  S   S175      1.0  0.33757  0.86385  0.93626  1.0000
  S   S176      1.0  0.36718  0.92348  0.92166  1.0000
  Fe  Fe89      1.0  0.15337  0.51610  0.92603  1.0000
  S   S177      1.0  0.18011  0.52352  0.90590  1.0000
  Fe  Fe90      1.0  0.13705  0.54766  0.94717  1.0000
  H   H665      1.0  0.44004  0.88676  0.89883  1.0000
  S   S178      1.0  0.14081  0.58853  0.94763  1.0000
  H   H666      1.0  0.35060  0.67909  0.78987  1.0000
  H   H667      1.0  0.42426  0.85305  0.90458  1.0000
  S   S179      1.0  0.17312  0.54209  0.94601  1.0000
  S   S180      1.0  0.11868  0.52413  0.92630  1.0000
  C   C560      1.0  0.40448  0.84090  0.87559  1.0000
  C   C561      1.0  0.30860  0.56959  0.97185  1.0000
  H   H668      1.0  0.39451  0.88213  0.84378  1.0000
  C   C562      1.0  0.48374  0.82306  0.95690  1.0000
  H   H669      1.0  0.27213  0.82305  0.82889  1.0000
  Fe  Fe91      1.0  0.45885  0.68678  0.82150  1.0000
  H   H670      1.0  0.41195  0.80251  0.74985  1.0000
  C   C563      1.0  0.39625  0.63658  0.76030  1.0000
  H   H671      1.0  0.36953  0.71236  0.74580  1.0000
  H   H672      1.0  0.41968  0.80109  0.98530  1.0000
  H   H673      1.0  0.40673  0.82838  0.88399  1.0000
  H   H674      1.0  0.24906  0.57861  0.85863  1.0000
  H   H675      1.0  0.25764  0.71024  0.77751  1.0000
  H   H676      1.0  0.36517  0.56715  0.97996  1.0000
  C   C564      1.0  0.49318  0.67139  0.86895  1.0000
  H   H677      1.0  0.23059  0.66655  0.77762  1.0000
  C   C565      1.0  0.32776  0.84646  0.74158  1.0000
  C   C566      1.0  0.25846  0.82695  0.97357  1.0000
  H   H678      1.0  0.34219  0.61783  0.98260  1.0000
  H   H679      1.0  0.43589  0.71697  0.75744  1.0000
  C   C567      1.0  0.35185  0.95198  0.98719  1.0000
  C   C568      1.0  0.45534  0.78605  0.97207  1.0000
  C   C569      1.0  0.44592  0.61411  0.96914  1.0000
  C   C570      1.0  0.44344  0.71329  0.74702  1.0000
  H   H680      1.0  0.33374  0.54980  0.98793  1.0000
  H   H681      1.0  0.22072  0.76570  0.86399  1.0000
  H   H682      1.0  0.45930  0.65456  0.97540  1.0000
  H   H683      1.0  0.25690  0.64778  0.74357  1.0000
  H   H684      1.0  0.25586  0.50954  0.96452  1.0000
  C   C571      1.0  0.25723  0.81939  0.86644  1.0000
  H   H685      1.0  0.22710  0.52865  0.82936  1.0000
  H   H686      1.0  0.49174  0.56266  0.94133  1.0000
  C   C572      1.0  0.19434  0.50100  0.84102  1.0000
  C   C573      1.0  0.42075  0.89910  0.96333  1.0000
  C   C574      1.0  0.40119  0.88724  0.97409  1.0000
  C   C575      1.0  0.26580  0.71454  0.76627  1.0000
  H   H687      1.0  0.46212  0.91633  0.95919  1.0000
  H   H688      1.0  0.38097  0.88108  0.97101  1.0000
  S   S181      1.0  0.46271  0.62095  0.95188  1.0000
  C   C576      1.0  0.15839  0.53674  0.85771  1.0000
  C   C577      1.0  0.18413  0.55013  0.86300  1.0000
  C   C578      1.0  0.19044  0.54622  0.87789  1.0000
  C   C579      1.0  0.17103  0.52924  0.88768  1.0000
  C   C580      1.0  0.14516  0.51643  0.88254  1.0000
  C   C581      1.0  0.13893  0.51998  0.86755  1.0000
  H   H689      1.0  0.19922  0.56312  0.85552  1.0000
  H   H690      1.0  0.21044  0.55627  0.88182  1.0000
  C   C582      1.0  0.21442  0.58591  0.75500  1.0000
  H   H691      1.0  0.33913  0.85347  0.75187  1.0000
  H   H692      1.0  0.26069  0.56967  0.83303  1.0000
  C   C583      1.0  0.34245  0.63648  0.80926  1.0000
  C   C584      1.0  0.31673  0.62350  0.80388  1.0000
  C   C585      1.0  0.29596  0.62033  0.81326  1.0000
  C   C586      1.0  0.30087  0.62999  0.82810  1.0000
  C   C587      1.0  0.32656  0.64275  0.83355  1.0000
  C   C588      1.0  0.34738  0.64606  0.82412  1.0000
  H   H693      1.0  0.31284  0.61594  0.79241  1.0000
  H   H694      1.0  0.27614  0.61010  0.80904  1.0000
  H   H695      1.0  0.33038  0.65013  0.84506  1.0000
  H   H696      1.0  0.36717  0.65579  0.82839  1.0000
  C   C589      1.0  0.07379  0.55185  0.95699  1.0000
  C   C590      1.0  0.34014  0.87554  0.84619  1.0000
  C   C591      1.0  0.33149  0.85066  0.85250  1.0000
  C   C592      1.0  0.32543  0.84684  0.86800  1.0000
  C   C593      1.0  0.32824  0.86782  0.87740  1.0000
  C   C594      1.0  0.33801  0.89294  0.87126  1.0000
  C   C595      1.0  0.34380  0.89672  0.85569  1.0000
  H   H697      1.0  0.32909  0.83435  0.84536  1.0000
  H   H698      1.0  0.31812  0.82745  0.87272  1.0000
  H   H699      1.0  0.34013  0.90925  0.87835  1.0000
  H   H700      1.0  0.35062  0.91607  0.85091  1.0000
  C   C596      1.0  0.41703  0.81013  0.79072  1.0000
  C   C597      1.0  0.41882  0.81520  0.80628  1.0000
  C   C598      1.0  0.42828  0.80205  0.81601  1.0000
  C   C599      1.0  0.43544  0.78342  0.81020  1.0000
  C   C600      1.0  0.43434  0.77890  0.79460  1.0000
  C   C601      1.0  0.42540  0.79246  0.78485  1.0000
  H   H701      1.0  0.41289  0.82925  0.81081  1.0000
  H   H702      1.0  0.42929  0.80569  0.82807  1.0000
  N   N37       1.0  0.26384  0.66983  0.76443  1.0000
  H   H703      1.0  0.42423  0.78857  0.77283  1.0000
  C   C602      1.0  0.27449  0.72969  0.81853  1.0000
  C   C603      1.0  0.26595  0.70575  0.82591  1.0000
  C   C604      1.0  0.24097  0.68569  0.82305  1.0000
  C   C605      1.0  0.22425  0.68954  0.81293  1.0000
  C   C606      1.0  0.23255  0.71373  0.80570  1.0000
  C   C607      1.0  0.25787  0.73381  0.80840  1.0000
  H   H704      1.0  0.27873  0.70255  0.83381  1.0000
  H   H705      1.0  0.23466  0.66722  0.82879  1.0000
  H   H706      1.0  0.21966  0.71668  0.79779  1.0000
  H   H707      1.0  0.26450  0.75237  0.80265  1.0000
  C   C608      1.0  0.46423  0.77026  0.96434  1.0000
  H   H708      1.0  0.15772  0.66384  0.86070  1.0000
  H   H709      1.0  0.25140  0.80716  0.87633  1.0000
  S   S182      1.0  0.34677  0.97594  0.94172  1.0000
  C   C609      1.0  0.26386  0.84585  0.86880  1.0000
  H   H710      1.0  0.49190  0.84337  0.95361  1.0000
  C   C610      1.0  0.15178  0.62966  0.96686  1.0000
  H   H711      1.0  0.24245  0.57774  0.74289  1.0000
  C   C611      1.0  0.27974  0.67342  0.77834  1.0000
  C   C612      1.0  0.34409  0.55985  0.97750  1.0000
  H   H712      1.0  0.41396  0.62737  0.94580  1.0000
  S   S183      1.0  0.48869  0.69795  0.94223  1.0000
  C   C613      1.0  0.27193  0.73929  0.76042  1.0000
  H   H713      1.0  0.27259  0.54550  0.83046  1.0000
  H   H714      1.0  0.37685  0.89101  0.89409  1.0000
  H   H715      1.0  0.32423  0.68314  0.80818  1.0000
  C   C614      1.0  0.49017  0.71046  0.86132  1.0000
  Fe  Fe92      1.0  0.49364  0.66266  0.94898  1.0000
  H   H716      1.0  0.29295  0.57704  0.83853  1.0000
  H   H717      1.0  0.24493  0.82652  0.95078  1.0000
  C   C615      1.0  0.44229  0.83957  0.96561  1.0000
  H   H718      1.0  0.43659  0.65184  0.75434  1.0000
  C   C616      1.0  0.48684  0.68525  0.85786  1.0000
  S   S184      1.0  0.44224  0.66367  0.79999  1.0000
  H   H719      1.0  0.43368  0.85125  0.97128  1.0000
  H   H720      1.0  0.27608  0.76062  0.84609  1.0000
  H   H721      1.0  0.42600  0.82270  0.95989  1.0000
  S   S185      1.0  0.47719  0.67135  0.83944  1.0000
  H   H722      1.0  0.37275  0.75434  0.75563  1.0000
  C   C617      1.0  0.37928  0.61727  0.93241  1.0000
  C   C618      1.0  0.35136  0.59356  0.95909  1.0000
  H   H723      1.0  0.28077  0.52436  0.85376  1.0000
  C   C619      1.0  0.37905  0.60629  0.95881  1.0000
  H   H724      1.0  0.35148  0.96856  0.98155  1.0000
  H   H725      1.0  0.30083  0.55328  0.96342  1.0000
  C   C620      1.0  0.14575  0.60313  0.96561  1.0000
  S   S186      1.0  0.47946  0.72461  0.80880  1.0000
  S   S187      1.0  0.17535  0.75874  0.98123  1.0000
  H   H726      1.0  0.25098  0.76879  0.87227  1.0000
  H   H727      1.0  0.11899  0.50957  0.86352  1.0000
  C   C621      1.0  0.26368  0.57229  0.86286  1.0000
  H   H728      1.0  0.23137  0.58658  0.97713  1.0000
  H   H729      1.0  0.15393  0.64110  0.95677  1.0000
  H   H730      1.0  0.28749  0.76547  0.74167  1.0000
  H   H731      1.0  0.39043  0.60721  0.96876  1.0000
  C   C622      1.0  0.30262  0.82562  0.74213  1.0000
  C   C623      1.0  0.40770  0.88258  0.98875  1.0000
  H   H732      1.0  0.40357  0.56204  0.98982  1.0000
  H   H733      1.0  0.31715  0.58366  0.94434  1.0000
  H   H734      1.0  0.26374  0.63275  0.75946  1.0000
  C   C624      1.0  0.44728  0.63437  0.97853  1.0000
  N   N38       1.0  0.35525  0.72254  0.80540  1.0000
  C   C625      1.0  0.37459  0.71674  0.81367  1.0000
  C   C626      1.0  0.35973  0.74919  0.81003  1.0000
  C   C627      1.0  0.35793  0.71987  0.78889  1.0000
  C   C628      1.0  0.36397  0.74083  0.77856  1.0000
  C   C629      1.0  0.35522  0.69584  0.78273  1.0000
  C   C630      1.0  0.04603  0.55047  0.98304  1.0000
  C   C631      1.0  0.40619  0.83502  0.86038  1.0000
  C   C632      1.0  0.23999  0.81758  0.96181  1.0000
  H   H735      1.0  0.37131  0.69626  0.81200  1.0000
  H   H736      1.0  0.37422  0.71981  0.82610  1.0000
  H   H737      1.0  0.39470  0.72969  0.80979  1.0000
  H   H738      1.0  0.34571  0.75488  0.80439  1.0000
  H   H739      1.0  0.35738  0.75071  0.82244  1.0000
  H   H740      1.0  0.37977  0.76399  0.80725  1.0000
  H   H741      1.0  0.36660  0.75999  0.78209  1.0000
  N   N39       1.0  0.30261  0.92822  0.98730  1.0000
  H   H742      1.0  0.05360  0.50982  0.95743  1.0000
  C   C633      1.0  0.27032  0.69580  0.75786  1.0000
  C   C634      1.0  0.14310  0.58848  0.97869  1.0000
  H   H743      1.0  0.09134  0.59310  0.95866  1.0000
  C   C635      1.0  0.04260  0.52715  0.97602  1.0000
  N   N40       1.0  0.45616  0.83051  0.97654  1.0000
  C   C636      1.0  0.41669  0.64408  0.75010  1.0000
  H   H744      1.0  0.31362  0.94172  0.96444  1.0000
  H   H745      1.0  0.44128  0.77665  0.98086  1.0000
  C   C637      1.0  0.23573  0.65641  0.76841  1.0000
  C   C638      1.0  0.27261  0.56090  0.83819  1.0000
  C   C639      1.0  0.22651  0.58287  0.74187  1.0000
  Fe  Fe93      1.0  0.45921  0.70199  0.78767  1.0000
  N   N41       1.0  0.26310  0.55044  0.85352  1.0000
  C   C640      1.0  0.32865  0.70388  0.81033  1.0000
  H   H746      1.0  0.27747  0.65435  0.78289  1.0000
  C   C641      1.0  0.06313  0.57531  0.97700  1.0000
  H   H747      1.0  0.32613  0.70555  0.82273  1.0000
  H   H748      1.0  0.31358  0.70791  0.80456  1.0000
  C   C642      1.0  0.43026  0.58800  0.97329  1.0000
  C   C643      1.0  0.27287  0.86349  0.85688  1.0000
  H   H749      1.0  0.22312  0.65474  0.75844  1.0000
  C   C644      1.0  0.15198  0.64304  0.86132  1.0000
  H   H750      1.0  0.24965  0.78095  0.82468  1.0000
  H   H751      1.0  0.11436  0.54964  0.88339  1.0000
  N   N42       1.0  0.39829  0.86829  0.89605  1.0000
  C   C645      1.0  0.13802  0.58969  0.86265  1.0000
  C   C646      1.0  0.37533  0.84645  0.90293  1.0000
  H   H752      1.0  0.15765  0.57299  0.90427  1.0000
  C   C647      1.0  0.33816  0.59310  0.94532  1.0000
  H   H753      1.0  0.16199  0.57286  0.88424  1.0000
  H   H754      1.0  0.13347  0.56921  0.86245  1.0000
  H   H755      1.0  0.37672  0.82772  0.90259  1.0000
  C   C648      1.0  0.39770  0.87087  0.85273  1.0000
  H   H756      1.0  0.39134  0.89302  0.86992  1.0000
  H   H757      1.0  0.40424  0.84548  0.83720  1.0000
  H   H758      1.0  0.18424  0.59477  0.76357  1.0000
  N   N43       1.0  0.06540  0.59968  0.98422  1.0000
  H   H759      1.0  0.10826  0.55522  0.90227  1.0000
  C   C649      1.0  0.39975  0.86234  0.87984  1.0000
  C   C650      1.0  0.23837  0.77174  0.83502  1.0000
  H   H760      1.0  0.41207  0.90992  0.89336  1.0000
  C   C651      1.0  0.39573  0.89271  0.89858  1.0000
  C   C652      1.0  0.39600  0.87698  0.86790  1.0000
  C   C653      1.0  0.40293  0.85007  0.84898  1.0000
  H   H761      1.0  0.35700  0.84315  0.89687  1.0000
  H   H762      1.0  0.09574  0.56729  0.88709  1.0000
  C   C654      1.0  0.25923  0.80977  0.85187  1.0000
  H   H763      1.0  0.37299  0.85058  0.91501  1.0000
  H   H764      1.0  0.42917  0.57226  0.96605  1.0000
  C   C655      1.0  0.11284  0.56450  0.89091  1.0000
  H   H765      1.0  0.23225  0.75041  0.83347  1.0000
  H   H766      1.0  0.13009  0.50317  0.88995  1.0000
  H   H767      1.0  0.39608  0.89724  0.91088  1.0000
  C   C656      1.0  0.15969  0.58437  0.89371  1.0000
  N   N44       1.0  0.33749  0.58118  0.97318  1.0000
  N   N45       1.0  0.13707  0.58978  0.89114  1.0000
  C   C657      1.0  0.27528  0.85478  0.84253  1.0000
  H   H768      1.0  0.23382  0.74356  0.85891  1.0000
  C   C658      1.0  0.25136  0.81494  0.98786  1.0000
  H   H769      1.0  0.44034  0.76493  0.79004  1.0000
  H   H770      1.0  0.30086  0.68565  0.77607  1.0000
  H   H771      1.0  0.13161  0.59393  0.91503  1.0000
  H   H772      1.0  0.40998  0.81865  0.85736  1.0000
  C   C659      1.0  0.14775  0.63062  0.87540  1.0000
  H   H773      1.0  0.15058  0.64280  0.88525  1.0000
  H   H774      1.0  0.30210  0.58458  0.96877  1.0000
  C   C660      1.0  0.35939  0.69320  0.76739  1.0000
  H   H775      1.0  0.42230  0.87741  0.91627  1.0000
  C   C661      1.0  0.42224  0.87143  0.90422  1.0000
  H   H776      1.0  0.27894  0.88413  0.85889  1.0000
  C   C662      1.0  0.13539  0.60521  0.90429  1.0000
  C   C663      1.0  0.14047  0.60338  0.87646  1.0000
  H   H777      1.0  0.17827  0.60279  0.89452  1.0000
  H   H778      1.0  0.02888  0.59412  0.97434  1.0000
  C   C664      1.0  0.07729  0.57529  0.96386  1.0000
  H   H779      1.0  0.26317  0.85296  0.88010  1.0000
  C   C665      1.0  0.36769  0.73788  0.76318  1.0000
  C   C666      1.0  0.27901  0.78109  0.84764  1.0000
  C   C667      1.0  0.14919  0.62889  0.84800  1.0000
  H   H780      1.0  0.27408  0.68303  0.78761  1.0000
  H   H781      1.0  0.11931  0.61082  0.90275  1.0000
  C   C668      1.0  0.14207  0.60223  0.84868  1.0000
  H   H782      1.0  0.29161  0.78928  0.85782  1.0000
  H   H783      1.0  0.22049  0.77472  0.83500  1.0000
  N   N46       1.0  0.25386  0.78220  0.84917  1.0000
  C   C669      1.0  0.26870  0.82839  0.84005  1.0000
  C   C670      1.0  0.23914  0.76440  0.86166  1.0000
  H   H784      1.0  0.39005  0.62631  0.92225  1.0000
  H   H785      1.0  0.15405  0.62315  0.90634  1.0000
  C   C671      1.0  0.36574  0.71424  0.75763  1.0000
  H   H786      1.0  0.28345  0.86876  0.83341  1.0000
  H   H787      1.0  0.48477  0.59199  0.96941  1.0000
  C   C672      1.0  0.44689  0.90692  0.96744  1.0000
  H   H788      1.0  0.10262  0.62707  0.97525  1.0000
  H   H789      1.0  0.47293  0.86600  0.98997  1.0000
  H   H790      1.0  0.35841  0.67493  0.76320  1.0000
  C   C673      1.0  0.23629  0.52858  0.85354  1.0000
  C   C674      1.0  0.45345  0.90277  0.98222  1.0000
  H   H791      1.0  0.13806  0.56792  0.97777  1.0000
  C   C675      1.0  0.19379  0.59248  0.75355  1.0000
  H   H792      1.0  0.29898  0.56072  0.98272  1.0000
  H   H793      1.0  0.29795  0.90691  0.96655  1.0000
  H   H794      1.0  0.04033  0.61754  0.98955  1.0000
  H   H795      1.0  0.20747  0.55281  0.97970  1.0000
  H   H796      1.0  0.49077  0.65192  0.86639  1.0000
  H   H797      1.0  0.07459  0.62305  0.96396  1.0000
  H   H798      1.0  0.26845  0.75342  0.76707  1.0000
  H   H799      1.0  0.35489  0.62075  0.76309  1.0000
  H   H800      1.0  0.22982  0.63615  0.77252  1.0000
  H   H801      1.0  0.30225  0.55742  0.85951  1.0000
  C   C676      1.0  0.39274  0.61792  0.94568  1.0000
  H   H802      1.0  0.08477  0.55230  0.94695  1.0000
  H   H803      1.0  0.33861  0.54474  0.96841  1.0000
  C   C677      1.0  0.46504  0.81310  0.96863  1.0000
  C   C678      1.0  0.15513  0.64157  0.98115  1.0000
  C   C679      1.0  0.21485  0.79673  0.96437  1.0000
  C   C680      1.0  0.05636  0.52786  0.96296  1.0000
  H   H804      1.0  0.45544  0.85228  0.95669  1.0000
  H   H805      1.0  0.15292  0.63863  0.83711  1.0000
  C   C681      1.0  0.35207  0.60490  0.93222  1.0000
  S   S188      1.0  0.11621  0.51428  0.96315  1.0000
  C   C682      1.0  0.29810  0.92534  0.97074  1.0000
  H   H806      1.0  0.14028  0.59123  0.83832  1.0000
  C   C683      1.0  0.28175  0.54170  0.86003  1.0000
  C   C684      1.0  0.49260  0.80712  0.94933  1.0000
  H   H807      1.0  0.49030  0.76858  0.94749  1.0000
  S   S189      1.0  0.47830  0.70366  0.76486  1.0000
  C   C685      1.0  0.47899  0.85362  0.98287  1.0000
  H   H808      1.0  0.20075  0.78990  0.95520  1.0000
  H   H809      1.0  0.23553  0.52146  0.87788  1.0000
  C   C686      1.0  0.26894  0.65211  0.75410  1.0000
  H   H810      1.0  0.08260  0.64163  0.98119  1.0000
  H   H811      1.0  0.34171  0.60439  0.92182  1.0000
  H   H812      1.0  0.49113  0.84745  0.99009  1.0000
  H   H813      1.0  0.27907  0.92470  0.96745  1.0000
  H   H814      1.0  0.47365  0.90908  0.98529  1.0000
  H   H815      1.0  0.48289  0.56018  0.96875  1.0000
  H   H816      1.0  0.28309  0.58985  0.86251  1.0000
  H   H817      1.0  0.40030  0.63844  0.77237  1.0000
  H   H818      1.0  0.48534  0.72138  0.85295  1.0000
  H   H819      1.0  0.16008  0.66215  0.98203  1.0000
  C   C687      1.0  0.34576  0.60085  0.98562  1.0000
  H   H820      1.0  0.19714  0.57661  0.97463  1.0000
  C   C688      1.0  0.21173  0.57357  0.98168  1.0000
  H   H821      1.0  0.45742  0.74989  0.96745  1.0000
  C   C689      1.0  0.20777  0.78463  0.97864  1.0000
  H   H822      1.0  0.25919  0.56688  0.87493  1.0000
  C   C690      1.0  0.22029  0.52024  0.84033  1.0000
  C   C691      1.0  0.46404  0.70653  0.74746  1.0000
  Fe  Fe94      1.0  0.15143  0.50657  0.96024  1.0000
  C   C692      1.0  0.43817  0.81770  0.98929  1.0000
  C   C693      1.0  0.48289  0.78078  0.95306  1.0000
  C   C694      1.0  0.37067  0.62669  0.75499  1.0000
  C   C695      1.0  0.41569  0.58219  0.98670  1.0000
  C   C696      1.0  0.03913  0.59859  0.98550  1.0000
  H   H823      1.0  0.27792  0.53628  0.87214  1.0000
  H   H824      1.0  0.48981  0.59313  0.94214  1.0000
  C   C697      1.0  0.22494  0.51576  0.86728  1.0000
  H   H825      1.0  0.28996  0.66028  0.75118  1.0000
  C   C698      1.0  0.08201  0.62378  0.97569  1.0000
  C   C699      1.0  0.28274  0.74616  0.74609  1.0000
  H   H826      1.0  0.49193  0.86672  0.97403  1.0000
  H   H827      1.0  0.39393  0.97034  0.98676  1.0000
  C   C700      1.0  0.20118  0.50044  0.98389  1.0000
  H   H828      1.0  0.21194  0.50716  0.96045  1.0000
  H   H829      1.0  0.31446  0.96987  0.98539  1.0000
  H   H830      1.0  0.40357  0.99585  0.93734  1.0000
  H   H831      1.0  0.36685  0.60863  0.98848  1.0000
  C   C701      1.0  0.21822  0.50519  0.97174  1.0000
  H   H832      1.0  0.02906  0.50838  0.98064  1.0000
  C   C702      1.0  0.28168  0.70353  0.74331  1.0000
  C   C703      1.0  0.24321  0.50660  0.97410  1.0000
  C   C704      1.0  0.25180  0.50378  0.98865  1.0000
  H   H833      1.0  0.27761  0.88671  0.99002  1.0000
  C   C705      1.0  0.37638  0.95309  0.98992  1.0000
  C   C706      1.0  0.49687  0.58128  0.96995  1.0000
  Fe  Fe95      1.0  0.55332  0.38179  0.18147  1.0000
  Fe  Fe96      1.0  0.59252  0.43468  0.17008  1.0000
  S   S190      1.0  0.58889  0.42171  0.14586  1.0000
  H   H834      1.0  0.53799  0.06316  0.00841  1.0000
  Fe  Fe97      1.0  0.54575  0.40057  0.14988  1.0000
  Fe  Fe98      1.0  0.58926  0.38586  0.15572  1.0000
  S   S191      1.0  0.61387  0.36988  0.14457  1.0000
  S   S192      1.0  0.54929  0.41702  0.17354  1.0000
  S   S193      1.0  0.59691  0.40072  0.17961  1.0000
  Fe  Fe99      1.0  0.65151  0.26888  0.17404  1.0000
  S   S194      1.0  0.67276  0.28119  0.15207  1.0000
  S   S195      1.0  0.62496  0.28408  0.18416  1.0000
  Fe  Fe100     1.0  0.67492  0.23229  0.18128  1.0000
  S   S196      1.0  0.69863  0.24180  0.15983  1.0000
  S   S197      1.0  0.67551  0.20273  0.19787  1.0000
  Fe  Fe101     1.0  0.70688  0.28324  0.16542  1.0000
  S   S198      1.0  0.74501  0.31972  0.16417  1.0000
  Fe  Fe102     1.0  0.66227  0.23881  0.14823  1.0000
  S   S199      1.0  0.64207  0.22165  0.12565  1.0000
  S   S200      1.0  0.68637  0.27381  0.18769  1.0000
  S   S201      1.0  0.63793  0.22617  0.16940  1.0000
  S   S202      1.0  0.72344  0.41788  0.17249  1.0000
  Fe  Fe103     1.0  0.62478  0.17259  0.02265  1.0000
  S   S203      1.0  0.64281  0.16168  0.00325  1.0000
  S   S204      1.0  0.58575  0.17294  0.02018  1.0000
  Fe  Fe104     1.0  0.66755  0.17724  0.04459  1.0000
  S   S205      1.0  0.68847  0.16586  0.02650  1.0000
  S   S206      1.0  0.68744  0.18947  0.06772  1.0000
  Fe  Fe105     1.0  0.68129  0.19393  0.01154  1.0000
  C   C707      1.0  0.79322  0.48483  0.04119  1.0000
  Fe  Fe106     1.0  0.64807  0.13456  0.01990  1.0000
  S   S207      1.0  0.63659  0.09277  0.01122  1.0000
  S   S208      1.0  0.66230  0.20657  0.02994  1.0000
  S   S209      1.0  0.62809  0.14411  0.03899  1.0000
  S   S210      1.0  0.51612  0.38129  0.02354  1.0000
  C   C708      1.0  0.60224  0.44327  0.10414  1.0000
  H   H835      1.0  0.61663  0.19607  0.99344  1.0000
  C   C709      1.0  0.81149  0.46384  0.02445  1.0000
  N   N47       1.0  0.75108  0.38556  0.21856  1.0000
  C   C710      1.0  0.77101  0.40529  0.22876  1.0000
  C   C711      1.0  0.68954  0.48849  0.16368  1.0000
  C   C712      1.0  0.81347  0.46369  0.06565  1.0000
  Fe  Fe107     1.0  0.51273  0.41775  0.01791  1.0000
  H   H836      1.0  0.53633  0.16239  0.00691  1.0000
  S   S211      1.0  0.79839  0.47451  0.16892  1.0000
  C   C713      1.0  0.58572  0.49060  0.99617  1.0000
  C   C714      1.0  0.61400  0.06130  0.01811  1.0000
  C   C715      1.0  0.60855  0.03884  0.00925  1.0000
  C   C716      1.0  0.59078  0.01353  0.01417  1.0000
  C   C717      1.0  0.57826  0.01024  0.02811  1.0000
  C   C718      1.0  0.58353  0.03273  0.03690  1.0000
  C   C719      1.0  0.60113  0.05805  0.03193  1.0000
  H   H837      1.0  0.56360  0.31522  0.10916  1.0000
  C   C720      1.0  0.59936  0.16773  0.23928  1.0000
  H   H838      1.0  0.57403  0.03058  0.04769  1.0000
  H   H839      1.0  0.60500  0.07502  0.03889  1.0000
  C   C721      1.0  0.65545  0.21347  0.10959  1.0000
  C   C722      1.0  0.64023  0.20485  0.09630  1.0000
  C   C723      1.0  0.64981  0.19768  0.08334  1.0000
  C   C724      1.0  0.67470  0.19888  0.08359  1.0000
  C   C725      1.0  0.69003  0.20775  0.09682  1.0000
  C   C726      1.0  0.68052  0.21509  0.10975  1.0000
  H   H840      1.0  0.62080  0.20342  0.09605  1.0000
  H   H841      1.0  0.63778  0.19083  0.07326  1.0000
  H   H842      1.0  0.70926  0.20865  0.09716  1.0000
  H   H843      1.0  0.69240  0.22159  0.11990  1.0000
  C   C727      1.0  0.73935  0.34726  0.16622  1.0000
  C   C728      1.0  0.71482  0.34414  0.17075  1.0000
  C   C729      1.0  0.71019  0.36600  0.17249  1.0000
  C   C730      1.0  0.73007  0.39114  0.16978  1.0000
  C   C731      1.0  0.75471  0.39445  0.16531  1.0000
  C   C732      1.0  0.75936  0.37247  0.16357  1.0000
  H   H844      1.0  0.69938  0.32488  0.17303  1.0000
  H   H845      1.0  0.69109  0.36335  0.17591  1.0000
  H   H846      1.0  0.77017  0.41387  0.16322  1.0000
  H   H847      1.0  0.77839  0.37495  0.16009  1.0000
  H   H848      1.0  0.52904  0.42792  0.06516  1.0000
  C   C733      1.0  0.67488  0.18391  0.22596  1.0000
  C   C734      1.0  0.67367  0.20417  0.21775  1.0000
  C   C735      1.0  0.67124  0.22441  0.22555  1.0000
  C   C736      1.0  0.71981  0.45131  0.11249  1.0000
  H   H849      1.0  0.67685  0.16829  0.22005  1.0000
  H   H850      1.0  0.67052  0.24026  0.21928  1.0000
  C   C737      1.0  0.64141  0.38579  0.20603  1.0000
  H   H851      1.0  0.53793  0.37383  0.11574  1.0000
  C   C738      1.0  0.75289  0.29255  0.23889  1.0000
  H   H852      1.0  0.60746  0.47375  0.05038  1.0000
  C   C739      1.0  0.81083  0.47387  0.03911  1.0000
  H   H853      1.0  0.57200  0.25953  0.99741  1.0000
  C   C740      1.0  0.60609  0.21385  0.22210  1.0000
  C   C741      1.0  0.50636  0.41988  0.22091  1.0000
  C   C742      1.0  0.66343  0.47575  0.16847  1.0000
  H   H854      1.0  0.55562  0.24111  0.01381  1.0000
  C   C743      1.0  0.78728  0.26592  0.99656  1.0000
  H   H855      1.0  0.65433  0.45499  0.17083  1.0000
  C   C744      1.0  0.61817  0.34774  0.15646  1.0000
  C   C745      1.0  0.60233  0.33742  0.16911  1.0000
  C   C746      1.0  0.60477  0.31814  0.17782  1.0000
  C   C747      1.0  0.62349  0.30976  0.17410  1.0000
  C   C748      1.0  0.64028  0.32134  0.16203  1.0000
  C   C749      1.0  0.63737  0.33993  0.15306  1.0000
  H   H856      1.0  0.58754  0.34352  0.17186  1.0000
  H   H857      1.0  0.59187  0.30947  0.18728  1.0000
  H   H858      1.0  0.65555  0.31603  0.15954  1.0000
  H   H859      1.0  0.65001  0.34817  0.14349  1.0000
  C   C750      1.0  0.75130  0.29861  0.22370  1.0000
  Fe  Fe108     1.0  0.75485  0.45784  0.16655  1.0000
  S   S212      1.0  0.51603  0.40259  0.13333  1.0000
  H   H860      1.0  0.52162  0.29287  0.03434  1.0000
  H   H861      1.0  0.77860  0.39926  0.20014  1.0000
  H   H862      1.0  0.53751  0.44985  0.04956  1.0000
  C   C751      1.0  0.58075  0.44591  0.07552  1.0000
  C   C752      1.0  0.57696  0.44067  0.10314  1.0000
  C   C753      1.0  0.76123  0.24734  0.99940  1.0000
  H   H863      1.0  0.51569  0.43123  0.23098  1.0000
  C   C754      1.0  0.73679  0.25341  0.21675  1.0000
  C   C755      1.0  0.52447  0.29086  0.02237  1.0000
  H   H864      1.0  0.74799  0.48128  0.09830  1.0000
  H   H865      1.0  0.56954  0.06449  0.00733  1.0000
  H   H866      1.0  0.57049  0.34205  0.23305  1.0000
  C   C756      1.0  0.66610  0.40124  0.12058  1.0000
  H   H867      1.0  0.55817  0.11227  0.01104  1.0000
  C   C757      1.0  0.51324  0.39296  0.11396  1.0000
  C   C758      1.0  0.62511  0.26069  0.23850  1.0000
  C   C759      1.0  0.61737  0.23786  0.21462  1.0000
  C   C760      1.0  0.88161  0.47040  0.00143  1.0000
  C   C761      1.0  0.53106  0.28571  0.99145  1.0000
  N   N48       1.0  0.82850  0.47454  0.05159  1.0000
  C   C762      1.0  0.62910  0.38521  0.21975  1.0000
  H   H868      1.0  0.62487  0.40147  0.22195  1.0000
  H   H869      1.0  0.76428  0.49442  0.03117  1.0000
  H   H870      1.0  0.80314  0.26390  0.00209  1.0000
  H   H871      1.0  0.53218  0.35968  0.08879  1.0000
  H   H872      1.0  0.73007  0.23814  0.20812  1.0000
  C   C763      1.0  0.61687  0.44686  0.09107  1.0000
  H   H873      1.0  0.55688  0.17385  0.23179  1.0000
  C   C764      1.0  0.52264  0.37093  0.09297  1.0000
  H   H874      1.0  0.51817  0.33650  0.23191  1.0000
  H   H875      1.0  0.75524  0.44794  0.23283  1.0000
  C   C765      1.0  0.59634  0.19041  0.99082  1.0000
  H   H876      1.0  0.59868  0.19643  0.21514  1.0000
  H   H877      1.0  0.65655  0.38084  0.12489  1.0000
  H   H878      1.0  0.80987  0.33578  0.01316  1.0000
  H   H879      1.0  0.73242  0.22668  0.23420  1.0000
  H   H880      1.0  0.71271  0.34069  0.20570  1.0000
  H   H881      1.0  0.70061  0.47758  0.16224  1.0000
  H   H882      1.0  0.56002  0.42648  0.03936  1.0000
  C   C766      1.0  0.52640  0.31052  0.01247  1.0000
  H   H883      1.0  0.52468  0.25405  0.02505  1.0000
  H   H884      1.0  0.56547  0.43752  0.11334  1.0000
  N   N49       1.0  0.68773  0.41859  0.13065  1.0000
  C   C767      1.0  0.62769  0.34313  0.22531  1.0000
  C   C768      1.0  0.73463  0.39725  0.21238  1.0000
  H   H885      1.0  0.82601  0.46218  0.07489  1.0000
  H   H886      1.0  0.65944  0.42245  0.14542  1.0000
  H   H887      1.0  0.80511  0.47632  0.07035  1.0000
  H   H888      1.0  0.79642  0.45708  0.00161  1.0000
  C   C769      1.0  0.72520  0.49608  0.23819  1.0000
  C   C770      1.0  0.56286  0.46687  0.99744  1.0000
  C   C771      1.0  0.50700  0.37719  0.08307  1.0000
  H   H889      1.0  0.72591  0.43714  0.10844  1.0000
  H   H890      1.0  0.58720  0.42581  0.04883  1.0000
  S   S213      1.0  0.61777  0.47572  0.17803  1.0000
  H   H891      1.0  0.85705  0.46819  0.03866  1.0000
  C   C772      1.0  0.87422  0.49036  0.00379  1.0000
  H   H892      1.0  0.70086  0.47786  0.19410  1.0000
  H   H893      1.0  0.72035  0.38442  0.20376  1.0000
  H   H894      1.0  0.65569  0.36547  0.19110  1.0000
  C   C773      1.0  0.54415  0.44715  0.06101  1.0000
  N   N50       1.0  0.74228  0.25587  0.04714  1.0000
  C   C774      1.0  0.71886  0.25923  0.05118  1.0000
  C   C775      1.0  0.73403  0.23211  0.03759  1.0000
  C   C776      1.0  0.75337  0.25137  0.06146  1.0000
  C   C777      1.0  0.76092  0.27873  0.03849  1.0000
  C   C778      1.0  0.78805  0.29198  0.04204  1.0000
  C   C779      1.0  0.75240  0.28731  0.02547  1.0000
  C   C780      1.0  0.80537  0.31248  0.03304  1.0000
  C   C781      1.0  0.76981  0.30810  0.01673  1.0000
  C   C782      1.0  0.79627  0.32048  0.02040  1.0000
  H   H895      1.0  0.70703  0.25898  0.04114  1.0000
  H   H896      1.0  0.70525  0.24301  0.05849  1.0000
  H   H897      1.0  0.72444  0.27792  0.05744  1.0000
  H   H898      1.0  0.72376  0.23317  0.02710  1.0000
  H   H899      1.0  0.72047  0.21425  0.04371  1.0000
  H   H900      1.0  0.75108  0.22908  0.03411  1.0000
  H   H901      1.0  0.76936  0.24589  0.05931  1.0000
  H   H902      1.0  0.76065  0.26887  0.06900  1.0000
  H   H903      1.0  0.73845  0.23473  0.06798  1.0000
  H   H904      1.0  0.79650  0.28654  0.05150  1.0000
  H   H905      1.0  0.73237  0.27731  0.02154  1.0000
  H   H906      1.0  0.82609  0.32191  0.03566  1.0000
  H   H907      1.0  0.55483  0.40660  0.05590  1.0000
  C   C783      1.0  0.55905  0.41155  0.23617  1.0000
  N   N51       1.0  0.59753  0.26179  0.12992  1.0000
  C   C784      1.0  0.58471  0.24022  0.11875  1.0000
  C   C785      1.0  0.62444  0.27899  0.12478  1.0000
  C   C786      1.0  0.59960  0.24979  0.14443  1.0000
  C   C787      1.0  0.58270  0.27725  0.13112  1.0000
  C   C788      1.0  0.57905  0.28997  0.11820  1.0000
  C   C789      1.0  0.57191  0.28054  0.14495  1.0000
  C   C790      1.0  0.56578  0.30529  0.11910  1.0000
  C   C791      1.0  0.55845  0.29570  0.14567  1.0000
  C   C792      1.0  0.55559  0.30823  0.13283  1.0000
  H   H908      1.0  0.56412  0.22733  0.12195  1.0000
  H   H909      1.0  0.58460  0.24749  0.10713  1.0000
  H   H910      1.0  0.59499  0.22770  0.11798  1.0000
  H   H911      1.0  0.62488  0.28682  0.11326  1.0000
  H   H912      1.0  0.63654  0.26829  0.12426  1.0000
  H   H913      1.0  0.63444  0.29593  0.13261  1.0000
  H   H914      1.0  0.58008  0.23613  0.14886  1.0000
  H   H915      1.0  0.61059  0.23810  0.14310  1.0000
  H   H916      1.0  0.61029  0.26492  0.15319  1.0000
  H   H917      1.0  0.58673  0.28841  0.10732  1.0000
  H   H918      1.0  0.57405  0.27211  0.15547  1.0000
  H   H919      1.0  0.82991  0.43869  0.04539  1.0000
  C   C793      1.0  0.53007  0.30811  0.99710  1.0000
  C   C794      1.0  0.64002  0.34397  0.21157  1.0000
  C   C795      1.0  0.56809  0.42577  0.05075  1.0000
  S   S214      1.0  0.75610  0.47786  0.14453  1.0000
  S   S215      1.0  0.75183  0.48874  0.18073  1.0000
  C   C796      1.0  0.71528  0.33919  0.21774  1.0000
  H   H920      1.0  0.77713  0.37103  0.20987  1.0000
  H   H921      1.0  0.76292  0.31386  0.00664  1.0000
  H   H922      1.0  0.77296  0.47269  0.20915  1.0000
  H   H923      1.0  0.74658  0.41621  0.20660  1.0000
  H   H924      1.0  0.58019  0.47570  0.04218  1.0000
  H   H925      1.0  0.68533  0.29916  0.21789  1.0000
  H   H926      1.0  0.82490  0.45606  0.02153  1.0000
  H   H927      1.0  0.67303  0.40061  0.10894  1.0000
  C   C797      1.0  0.52592  0.26857  0.01690  1.0000
  C   C798      1.0  0.69276  0.46474  0.12753  1.0000
  C   C799      1.0  0.78086  0.48161  0.22000  1.0000
  H   H928      1.0  0.54422  0.46308  0.06829  1.0000
  H   H929      1.0  0.58413  0.13195  0.99871  1.0000
  H   H930      1.0  0.72446  0.42109  0.13847  1.0000
  C   C800      1.0  0.79521  0.46442  0.01277  1.0000
  C   C801      1.0  0.52873  0.26504  0.00121  1.0000
  H   H931      1.0  0.69795  0.38899  0.13945  1.0000
  S   S216      1.0  0.54929  0.45620  0.01551  1.0000
  C   C802      1.0  0.64942  0.49020  0.17068  1.0000
  H   H932      1.0  0.63649  0.44874  0.09189  1.0000
  N   N52       1.0  0.56358  0.09105  0.99228  1.0000
  C   C803      1.0  0.56620  0.44182  0.08907  1.0000
  C   C804      1.0  0.58825  0.47288  0.05315  1.0000
  C   C805      1.0  0.77703  0.48530  0.02942  1.0000
  C   C806      1.0  0.70037  0.44498  0.12378  1.0000
  C   C807      1.0  0.84328  0.45947  0.04822  1.0000
  S   S217      1.0  0.54589  0.36348  0.15813  1.0000
  H   H933      1.0  0.65066  0.40793  0.11976  1.0000
  H   H934      1.0  0.55084  0.29840  0.15639  1.0000
  C   C808      1.0  0.70134  0.47693  0.20668  1.0000
  C   C809      1.0  0.52591  0.37890  0.10828  1.0000
  C   C810      1.0  0.74042  0.24957  0.99233  1.0000
  H   H935      1.0  0.72341  0.40098  0.22150  1.0000
  H   H936      1.0  0.67032  0.39990  0.15183  1.0000
  H   H937      1.0  0.54635  0.43921  0.08915  1.0000
  H   H938      1.0  0.69200  0.43408  0.15331  1.0000
  C   C811      1.0  0.60631  0.44805  0.07695  1.0000
  H   H939      1.0  0.50864  0.21496  0.01388  1.0000
  H   H940      1.0  0.59167  0.48994  0.06054  1.0000
  C   C812      1.0  0.62191  0.36379  0.22988  1.0000
  C   C813      1.0  0.57401  0.11223  0.00383  1.0000
  H   H941      1.0  0.79263  0.49420  0.05173  1.0000
  C   C814      1.0  0.57733  0.17876  0.00190  1.0000
  N   N53       1.0  0.57033  0.44788  0.06046  1.0000
  H   H942      1.0  0.61830  0.45063  0.06711  1.0000
  C   C815      1.0  0.69930  0.31534  0.22463  1.0000
  H   H943      1.0  0.63517  0.27971  0.21685  1.0000
  H   H944      1.0  0.89594  0.46886  0.00883  1.0000
  C   C816      1.0  0.62682  0.26122  0.22278  1.0000
  H   H945      1.0  0.57025  0.43257  0.23730  1.0000
  H   H946      1.0  0.85567  0.45953  0.05798  1.0000
  H   H947      1.0  0.75190  0.36815  0.19684  1.0000
  C   C817      1.0  0.55472  0.24160  0.00125  1.0000
  H   H948      1.0  0.74195  0.28374  0.20088  1.0000
  H   H949      1.0  0.58862  0.11029  0.01144  1.0000
  C   C818      1.0  0.55469  0.39988  0.22171  1.0000
  H   H950      1.0  0.64616  0.40196  0.19828  1.0000
  C   C819      1.0  0.76524  0.38073  0.20587  1.0000
  H   H951      1.0  0.79718  0.44382  0.06357  1.0000
  C   C820      1.0  0.55113  0.17167  0.99842  1.0000
  C   C821      1.0  0.70631  0.40716  0.13252  1.0000
  C   C822      1.0  0.73424  0.36057  0.22618  1.0000
  H   H952      1.0  0.75732  0.23099  0.00677  1.0000
  H   H953      1.0  0.61865  0.23837  0.20236  1.0000
  C   C823      1.0  0.53986  0.37279  0.22009  1.0000
  C   C824      1.0  0.77108  0.46750  0.23341  1.0000
  H   H954      1.0  0.50354  0.36598  0.17697  1.0000
  C   C825      1.0  0.64684  0.36525  0.20195  1.0000
  H   H955      1.0  0.55707  0.22447  0.99700  1.0000
  C   C826      1.0  0.67700  0.41897  0.14590  1.0000
  C   C827      1.0  0.70560  0.48990  0.12148  1.0000
  S   S218      1.0  0.53320  0.35759  0.20204  1.0000
  H   H956      1.0  0.64359  0.32766  0.20809  1.0000
  H   H957      1.0  0.78345  0.42381  0.22270  1.0000
  H   H958      1.0  0.67726  0.46138  0.13539  1.0000
  H   H959      1.0  0.71165  0.40125  0.12163  1.0000
  H   H960      1.0  0.78445  0.39798  0.23358  1.0000
  H   H961      1.0  0.76592  0.47610  0.00604  1.0000
  H   H962      1.0  0.54578  0.32055  0.13357  1.0000
  C   C828      1.0  0.60434  0.21253  0.23814  1.0000
  H   H963      1.0  0.56235  0.41192  0.21179  1.0000
  S   S219      1.0  0.50289  0.36557  0.06406  1.0000
  H   H964      1.0  0.59302  0.38953  0.23907  1.0000
  C   C829      1.0  0.52979  0.35747  0.23307  1.0000
  C   C830      1.0  0.77804  0.47513  0.01524  1.0000
  H   H965      1.0  0.61831  0.04101  0.99854  1.0000
  C   C831      1.0  0.74329  0.27908  0.21265  1.0000
  H   H966      1.0  0.51964  0.45342  0.20645  1.0000
  S   S220      1.0  0.70704  0.22626  0.99492  1.0000
  C   C832      1.0  0.50766  0.21735  0.00148  1.0000
  H   H967      1.0  0.52471  0.32755  0.01663  1.0000
  H   H968      1.0  0.62203  0.32580  0.23214  1.0000
  C   C833      1.0  0.55385  0.06571  0.00040  1.0000
  H   H969      1.0  0.59122  0.16100  0.22776  1.0000
  H   H970      1.0  0.54678  0.04881  0.99240  1.0000
  H   H971      1.0  0.76194  0.41098  0.23829  1.0000
  H   H972      1.0  0.61042  0.44237  0.11507  1.0000
  C   C834      1.0  0.73244  0.47652  0.10643  1.0000
  C   C835      1.0  0.73833  0.24710  0.23189  1.0000
  H   H973      1.0  0.68235  0.46083  0.21027  1.0000
  N   N54       1.0  0.53011  0.24120  0.99571  1.0000
  H   H974      1.0  0.75615  0.31851  0.22047  1.0000
  H   H975      1.0  0.49983  0.42856  0.18368  1.0000
  C   C836      1.0  0.72562  0.49588  0.11111  1.0000
  H   H976      1.0  0.50664  0.19912  0.99631  1.0000
  H   H977      1.0  0.71695  0.47127  0.20976  1.0000
  C   C837      1.0  0.50859  0.43230  0.20708  1.0000
  C   C838      1.0  0.85577  0.49231  0.99414  1.0000
  C   C839      1.0  0.49772  0.39939  0.10405  1.0000
  H   H978      1.0  0.62095  0.17626  0.23852  1.0000
  Fe  Fe109     1.0  0.79957  0.49759  0.14785  1.0000
  H   H979      1.0  0.66558  0.49351  0.20908  1.0000
  H   H980      1.0  0.74158  0.49609  0.23223  1.0000
  C   C840      1.0  0.68401  0.49814  0.23929  1.0000
  C   C841      1.0  0.70510  0.49927  0.23040  1.0000
  C   C842      1.0  0.70140  0.31213  0.24011  1.0000
  C   C843      1.0  0.49706  0.41764  0.19401  1.0000
  H   H981      1.0  0.55194  0.15738  0.24965  1.0000
  S   S221      1.0  0.55278  0.45135  0.45163  1.0000
  Fe  Fe110     1.0  0.69888  0.21575  0.45768  1.0000
  S   S222      1.0  0.68128  0.23252  0.44076  1.0000
  S   S223      1.0  0.72513  0.23897  0.47777  1.0000
  Fe  Fe111     1.0  0.66239  0.15798  0.44680  1.0000
  S   S224      1.0  0.64279  0.17153  0.42910  1.0000
  S   S225      1.0  0.64782  0.11611  0.45614  1.0000
  Fe  Fe112     1.0  0.68303  0.20341  0.42413  1.0000
  S   S226      1.0  0.69956  0.21883  0.40076  1.0000
  Fe  Fe113     1.0  0.64251  0.19956  0.44688  1.0000
  S   S227      1.0  0.60566  0.20442  0.44910  1.0000
  S   S228      1.0  0.70332  0.18824  0.44078  1.0000
  S   S229      1.0  0.65953  0.18442  0.46486  1.0000
  Fe  Fe114     1.0  0.52333  0.38447  0.32171  1.0000
  S   S230      1.0  0.55866  0.41649  0.31088  1.0000
  Fe  Fe115     1.0  0.53540  0.34227  0.30777  1.0000
  S   S231      1.0  0.57190  0.37087  0.29642  1.0000
  S   S232      1.0  0.52676  0.29999  0.30886  1.0000
  Fe  Fe116     1.0  0.57932  0.39341  0.31811  1.0000
  S   S233      1.0  0.61656  0.40936  0.33150  1.0000
  Fe  Fe117     1.0  0.54783  0.39120  0.28984  1.0000
  S   S234      1.0  0.54504  0.36298  0.33009  1.0000
  Fe  Fe118     1.0  0.65389  0.24040  0.31776  1.0000
  S   S235      1.0  0.62740  0.22298  0.29738  1.0000
  S   S236      1.0  0.63805  0.22129  0.34057  1.0000
  Fe  Fe119     1.0  0.69507  0.28297  0.29881  1.0000
  S   S237      1.0  0.67211  0.26893  0.27744  1.0000
  S   S238      1.0  0.73265  0.31834  0.29404  1.0000
  Fe  Fe120     1.0  0.63794  0.26457  0.29117  1.0000
  S   S239      1.0  0.61555  0.28117  0.27763  1.0000
  Fe  Fe121     1.0  0.66399  0.22923  0.28526  1.0000
  S   S240      1.0  0.66777  0.20016  0.26948  1.0000
  S   S241      1.0  0.66149  0.28179  0.31224  1.0000
  S   S242      1.0  0.68974  0.24326  0.30592  1.0000
  H   H982      1.0  0.61226  0.35681  0.26810  1.0000
  C   C844      1.0  0.81838  0.47620  0.35902  1.0000
  Fe  Fe122     1.0  0.75299  0.45023  0.31831  1.0000
  S   S243      1.0  0.73427  0.41304  0.33151  1.0000
  C   C845      1.0  0.73371  0.34477  0.30458  1.0000
  C   C846      1.0  0.74555  0.37004  0.29857  1.0000
  C   C847      1.0  0.74559  0.39110  0.30677  1.0000
  C   C848      1.0  0.73427  0.38695  0.32111  1.0000
  C   C849      1.0  0.72250  0.36168  0.32713  1.0000
  C   C850      1.0  0.72208  0.34058  0.31883  1.0000
  H   H983      1.0  0.75451  0.37334  0.28754  1.0000
  H   H984      1.0  0.75452  0.41054  0.30201  1.0000
  H   H985      1.0  0.71383  0.35846  0.33824  1.0000
  H   H986      1.0  0.71332  0.32116  0.32363  1.0000
  H   H987      1.0  0.57552  0.08153  0.48338  1.0000
  H   H988      1.0  0.81313  0.20175  0.46885  1.0000
  S   S244      1.0  0.51021  0.36094  0.29989  1.0000
  C   C851      1.0  0.64201  0.43801  0.32455  1.0000
  C   C852      1.0  0.63850  0.45142  0.31219  1.0000
  C   C853      1.0  0.65983  0.47385  0.30664  1.0000
  C   C854      1.0  0.80623  0.49047  0.41017  1.0000
  C   C855      1.0  0.68771  0.46916  0.32579  1.0000
  C   C856      1.0  0.66652  0.44712  0.33143  1.0000
  H   H989      1.0  0.61952  0.44440  0.30683  1.0000
  H   H990      1.0  0.55585  0.19040  0.24884  1.0000
  H   H991      1.0  0.70651  0.47583  0.33118  1.0000
  H   H992      1.0  0.66930  0.43683  0.34099  1.0000
  C   C857      1.0  0.55170  0.29488  0.30046  1.0000
  C   C858      1.0  0.56349  0.28167  0.30832  1.0000
  C   C859      1.0  0.58347  0.27759  0.30153  1.0000
  C   C860      1.0  0.59100  0.28602  0.28673  1.0000
  C   C861      1.0  0.57892  0.29882  0.27885  1.0000
  C   C862      1.0  0.55966  0.30371  0.28578  1.0000
  H   H993      1.0  0.55720  0.27471  0.31966  1.0000
  H   H994      1.0  0.59262  0.26750  0.30764  1.0000
  H   H995      1.0  0.58418  0.30460  0.26729  1.0000
  C   C863      1.0  0.81225  0.47221  0.38658  1.0000
  H   H996      1.0  0.75882  0.30830  0.24707  1.0000
  H   H997      1.0  0.74044  0.49073  0.25960  1.0000
  H   H998      1.0  0.68069  0.38123  0.32439  1.0000
  H   H999      1.0  0.60964  0.34313  0.29907  1.0000
  H   H1000     1.0  0.61282  0.36472  0.31474  1.0000
  H   H1001     1.0  0.76494  0.27596  0.45703  1.0000
  H   H1002     1.0  0.53953  0.42078  0.48168  1.0000
  H   H1003     1.0  0.64717  0.32824  0.29665  1.0000
  C   C864      1.0  0.63136  0.08363  0.44847  1.0000
  C   C865      1.0  0.62071  0.06230  0.45850  1.0000
  C   C866      1.0  0.60789  0.03619  0.45310  1.0000
  C   C867      1.0  0.60614  0.03093  0.43754  1.0000
  C   C868      1.0  0.61678  0.05226  0.42751  1.0000
  C   C869      1.0  0.62900  0.07841  0.43290  1.0000
  H   H1004     1.0  0.62258  0.06596  0.47057  1.0000
  H   H1005     1.0  0.82732  0.46092  0.42244  1.0000
  H   H1006     1.0  0.61582  0.04856  0.41546  1.0000
  H   H1007     1.0  0.63719  0.09448  0.42501  1.0000
  C   C870      1.0  0.68217  0.21858  0.38395  1.0000
  C   C871      1.0  0.69607  0.23314  0.37137  1.0000
  C   C872      1.0  0.68299  0.23382  0.35791  1.0000
  C   C873      1.0  0.65576  0.22001  0.35691  1.0000
  C   C874      1.0  0.64189  0.20526  0.36943  1.0000
  C   C875      1.0  0.65501  0.20439  0.38283  1.0000
  H   H1008     1.0  0.71711  0.24404  0.37206  1.0000
  H   H1009     1.0  0.69395  0.24523  0.34839  1.0000
  H   H1010     1.0  0.62086  0.19437  0.36873  1.0000
  H   H1011     1.0  0.64419  0.19255  0.39224  1.0000
  C   C876      1.0  0.75510  0.26823  0.48054  1.0000
  H   H1012     1.0  0.59332  0.09152  0.46631  1.0000
  C   C877      1.0  0.65307  0.33740  0.30807  1.0000
  C   C878      1.0  0.69253  0.40107  0.27801  1.0000
  H   H1013     1.0  0.54404  0.42356  0.42294  1.0000
  H   H1014     1.0  0.59435  0.38388  0.25869  1.0000
  N   N55       1.0  0.82188  0.47943  0.40235  1.0000
  C   C879      1.0  0.54615  0.13416  0.47714  1.0000
  C   C880      1.0  0.79583  0.30358  0.47147  1.0000
  C   C881      1.0  0.62193  0.35729  0.25711  1.0000
  H   H1015     1.0  0.72092  0.33027  0.26091  1.0000
  C   C882      1.0  0.58606  0.48932  0.47106  1.0000
  C   C883      1.0  0.56019  0.47083  0.46815  1.0000
  H   H1016     1.0  0.78904  0.24734  0.45419  1.0000
  N   N56       1.0  0.56481  0.40405  0.48792  1.0000
  H   H1017     1.0  0.52082  0.45367  0.47646  1.0000
  H   H1018     1.0  0.60013  0.02011  0.46100  1.0000
  C   C884      1.0  0.82797  0.48398  0.37373  1.0000
  C   C885      1.0  0.54916  0.39623  0.24917  1.0000
  C   C886      1.0  0.59428  0.20379  0.46766  1.0000
  H   H1019     1.0  0.62276  0.33830  0.25624  1.0000
  S   S245      1.0  0.50228  0.39875  0.33843  1.0000
  N   N57       1.0  0.74868  0.26079  0.25960  1.0000
  C   C887      1.0  0.74321  0.23317  0.26236  1.0000
  C   C888      1.0  0.58877  0.13368  0.46082  1.0000
  H   H1020     1.0  0.77976  0.29882  0.26584  1.0000
  H   H1021     1.0  0.74498  0.22946  0.27459  1.0000
  H   H1022     1.0  0.63216  0.27883  0.24490  1.0000
  C   C889      1.0  0.52465  0.13409  0.48456  1.0000
  H   H1023     1.0  0.66749  0.23929  0.24753  1.0000
  H   H1024     1.0  0.55208  0.14544  0.46686  1.0000
  C   C890      1.0  0.71841  0.13242  0.46387  1.0000
  C   C891      1.0  0.79292  0.45697  0.35662  1.0000
  H   H1025     1.0  0.55468  0.00238  0.40881  1.0000
  H   H1026     1.0  0.71002  0.40311  0.27227  1.0000
  H   H1027     1.0  0.67400  0.34260  0.31005  1.0000
  H   H1028     1.0  0.78555  0.45116  0.34518  1.0000
  H   H1029     1.0  0.70215  0.11297  0.46289  1.0000
  C   C892      1.0  0.78411  0.22341  0.48091  1.0000
  H   H1030     1.0  0.61288  0.23787  0.25827  1.0000
  S   S246      1.0  0.84244  0.49463  0.45112  1.0000
  C   C893      1.0  0.74275  0.13758  0.45805  1.0000
  H   H1031     1.0  0.58841  0.19967  0.26864  1.0000
  H   H1032     1.0  0.51493  0.14496  0.47993  1.0000
  S   S247      1.0  0.79292  0.46655  0.30829  1.0000
  C   C894      1.0  0.56266  0.39256  0.47255  1.0000
  H   H1033     1.0  0.74925  0.37178  0.24947  1.0000
  C   C895      1.0  0.68456  0.48245  0.31333  1.0000
  H   H1034     1.0  0.56140  0.40573  0.46365  1.0000
  C   C896      1.0  0.65904  0.37954  0.29735  1.0000
  N   N58       1.0  0.58235  0.12001  0.47561  1.0000
  S   S248      1.0  0.83643  0.33863  0.48936  1.0000
  C   C897      1.0  0.60710  0.44152  0.47853  1.0000
  H   H1035     1.0  0.77143  0.21804  0.44303  1.0000
  S   S249      1.0  0.73432  0.45659  0.29766  1.0000
  H   H1036     1.0  0.53214  0.38462  0.40660  1.0000
  N   N59       1.0  0.57542  0.43619  0.36472  1.0000
  C   C898      1.0  0.56318  0.45074  0.35679  1.0000
  C   C899      1.0  0.60425  0.45144  0.36389  1.0000
  C   C900      1.0  0.56810  0.41139  0.35628  1.0000
  C   C901      1.0  0.56701  0.43221  0.38072  1.0000
  C   C902      1.0  0.55202  0.40697  0.38703  1.0000
  C   C903      1.0  0.57331  0.45409  0.39045  1.0000
  C   C904      1.0  0.54398  0.40404  0.40211  1.0000
  C   C905      1.0  0.56518  0.45089  0.40553  1.0000
  C   C906      1.0  0.55052  0.42592  0.41131  1.0000
  H   H1037     1.0  0.56959  0.47073  0.36149  1.0000
  H   H1038     1.0  0.56783  0.45288  0.34449  1.0000
  H   H1039     1.0  0.54151  0.44020  0.35765  1.0000
  H   H1040     1.0  0.61145  0.47161  0.36846  1.0000
  H   H1041     1.0  0.61122  0.45342  0.35197  1.0000
  H   H1042     1.0  0.61404  0.44155  0.37029  1.0000
  H   H1043     1.0  0.54663  0.39921  0.35584  1.0000
  H   H1044     1.0  0.57441  0.41514  0.34430  1.0000
  H   H1045     1.0  0.57733  0.39968  0.36123  1.0000
  H   H1046     1.0  0.54576  0.38911  0.38052  1.0000
  H   H1047     1.0  0.58431  0.47385  0.38642  1.0000
  H   H1048     1.0  0.80016  0.24384  0.48129  1.0000
  S   S250      1.0  0.51124  0.37797  0.44321  1.0000
  H   H1049     1.0  0.65732  0.48405  0.29696  1.0000
  N   N60       1.0  0.62185  0.24364  0.40570  1.0000
  C   C907      1.0  0.64453  0.24511  0.41457  1.0000
  C   C908      1.0  0.61011  0.25781  0.41443  1.0000
  C   C909      1.0  0.60256  0.21561  0.40456  1.0000
  C   C910      1.0  0.62883  0.25497  0.39037  1.0000
  C   C911      1.0  0.60916  0.25438  0.38032  1.0000
  C   C912      1.0  0.65489  0.26657  0.38490  1.0000
  C   C913      1.0  0.61510  0.26423  0.36563  1.0000
  C   C914      1.0  0.66062  0.27664  0.37025  1.0000
  C   C915      1.0  0.64077  0.27525  0.36060  1.0000
  H   H1050     1.0  0.65958  0.26569  0.41637  1.0000
  H   H1051     1.0  0.63858  0.23660  0.42602  1.0000
  H   H1052     1.0  0.65382  0.23396  0.40900  1.0000
  H   H1053     1.0  0.62381  0.27907  0.41529  1.0000
  H   H1054     1.0  0.60520  0.25009  0.42619  1.0000
  H   H1055     1.0  0.59168  0.25593  0.40922  1.0000
  H   H1056     1.0  0.60997  0.20460  0.39727  1.0000
  H   H1057     1.0  0.59819  0.20602  0.41587  1.0000
  H   H1058     1.0  0.58358  0.21281  0.39971  1.0000
  H   H1059     1.0  0.58893  0.24581  0.38365  1.0000
  H   H1060     1.0  0.67117  0.26738  0.39148  1.0000
  H   H1061     1.0  0.59966  0.26275  0.35797  1.0000
  H   H1062     1.0  0.68046  0.28452  0.36612  1.0000
  H   H1063     1.0  0.64521  0.28197  0.34903  1.0000
  H   H1064     1.0  0.55027  0.31350  0.27963  1.0000
  H   H1065     1.0  0.73029  0.26168  0.28069  1.0000
  H   H1066     1.0  0.74540  0.12191  0.45264  1.0000
  C   C916      1.0  0.56272  0.17662  0.24395  1.0000
  H   H1067     1.0  0.57942  0.38841  0.47009  1.0000
  H   H1068     1.0  0.52684  0.35711  0.25751  1.0000
  H   H1069     1.0  0.69225  0.43434  0.26694  1.0000
  C   C917      1.0  0.84440  0.46010  0.47197  1.0000
  H   H1070     1.0  0.60998  0.15353  0.48803  1.0000
  H   H1071     1.0  0.78159  0.16556  0.45384  1.0000
  C   C918      1.0  0.67063  0.20323  0.24963  1.0000
  N   N61       1.0  0.78115  0.21129  0.46565  1.0000
  H   H1072     1.0  0.62335  0.13314  0.48019  1.0000
  H   H1073     1.0  0.63432  0.39907  0.30076  1.0000
  H   H1074     1.0  0.73329  0.28674  0.26781  1.0000
  C   C919      1.0  0.78628  0.45281  0.38370  1.0000
  C   C920      1.0  0.60942  0.20413  0.48018  1.0000
  N   N62       1.0  0.64766  0.36034  0.30972  1.0000
  H   H1075     1.0  0.54032  0.19900  0.48630  1.0000
  H   H1076     1.0  0.72284  0.21925  0.25909  1.0000
  H   H1077     1.0  0.82262  0.23442  0.46232  1.0000
  H   H1078     1.0  0.60960  0.33326  0.31829  1.0000
  Fe  Fe123     1.0  0.51285  0.41652  0.44992  1.0000
  C   C921      1.0  0.59728  0.18881  0.26237  1.0000
  H   H1079     1.0  0.59272  0.14962  0.24616  1.0000
  H   H1080     1.0  0.65447  0.43211  0.28147  1.0000
  C   C922      1.0  0.68263  0.41881  0.27506  1.0000
  C   C923      1.0  0.64983  0.39832  0.29426  1.0000
  C   C924      1.0  0.76031  0.18388  0.46563  1.0000
  H   H1081     1.0  0.61872  0.19865  0.26445  1.0000
  C   C925      1.0  0.77686  0.44535  0.36892  1.0000
  C   C926      1.0  0.68114  0.38183  0.28906  1.0000
  C   C927      1.0  0.55957  0.12052  0.48313  1.0000
  H   H1082     1.0  0.60486  0.43326  0.46731  1.0000
  H   H1083     1.0  0.75699  0.43048  0.36687  1.0000
  H   H1084     1.0  0.77779  0.27279  0.27743  1.0000
  H   H1085     1.0  0.55893  0.08178  0.46607  1.0000
  C   C928      1.0  0.60488  0.38578  0.24783  1.0000
  C   C929      1.0  0.57721  0.09251  0.47278  1.0000
  H   H1086     1.0  0.62887  0.20616  0.47861  1.0000
  C   C930      1.0  0.71473  0.15246  0.47065  1.0000
  C   C931      1.0  0.55952  0.20031  0.48463  1.0000
  C   C932      1.0  0.61880  0.35004  0.31038  1.0000
  H   H1087     1.0  0.79041  0.27585  0.25852  1.0000
  H   H1088     1.0  0.67415  0.16743  0.24785  1.0000
  C   C933      1.0  0.80717  0.21376  0.46136  1.0000
  H   H1089     1.0  0.81367  0.49719  0.42188  1.0000
  H   H1090     1.0  0.69560  0.14850  0.47488  1.0000
  C   C934      1.0  0.62926  0.46537  0.48109  1.0000
  C   C935      1.0  0.85330  0.48651  0.46811  1.0000
  C   C936      1.0  0.53464  0.36909  0.24758  1.0000
  C   C937      1.0  0.72966  0.26597  0.26845  1.0000
  H   H1091     1.0  0.59158  0.00676  0.39636  1.0000
  S   S251      1.0  0.77017  0.45913  0.26390  1.0000
  H   H1092     1.0  0.70945  0.25358  0.26430  1.0000
  H   H1093     1.0  0.80747  0.20794  0.44936  1.0000
  C   C938      1.0  0.77124  0.28201  0.46855  1.0000
  Fe  Fe124     1.0  0.77451  0.47569  0.28785  1.0000
  C   C939      1.0  0.61392  0.23678  0.24611  1.0000
  C   C940      1.0  0.74672  0.26662  0.24344  1.0000
  C   C941      1.0  0.81933  0.45590  0.41067  1.0000
  C   C942      1.0  0.76347  0.16289  0.45885  1.0000
  H   H1094     1.0  0.54465  0.37362  0.47127  1.0000
  N   N63       1.0  0.59131  0.18692  0.24588  1.0000
  H   H1095     1.0  0.64308  0.47448  0.47206  1.0000
  C   C943      1.0  0.66139  0.41751  0.28321  1.0000
  C   C944      1.0  0.77531  0.27780  0.26553  1.0000
  H   H1096     1.0  0.76653  0.22530  0.48447  1.0000
  H   H1097     1.0  0.83149  0.44490  0.46433  1.0000
  S   S252      1.0  0.75843  0.48752  0.32922  1.0000
  C   C945      1.0  0.54093  0.46730  0.47876  1.0000
  C   C946      1.0  0.66970  0.22392  0.24154  1.0000
  H   H1098     1.0  0.69059  0.36959  0.29131  1.0000
  H   H1099     1.0  0.65113  0.36021  0.33404  1.0000
  H   H1100     1.0  0.57211  0.12506  0.45270  1.0000
  H   H1101     1.0  0.60564  0.13249  0.45534  1.0000
  H   H1102     1.0  0.62412  0.40335  0.24895  1.0000
  C   C947      1.0  0.78160  0.47862  0.24756  1.0000
  H   H1103     1.0  0.64237  0.37301  0.25792  1.0000
  H   H1104     1.0  0.55760  0.20196  0.46028  1.0000
  H   H1105     1.0  0.58955  0.16925  0.26782  1.0000
  C   C948      1.0  0.65910  0.37360  0.32425  1.0000
  H   H1106     1.0  0.59453  0.15490  0.46218  1.0000
  C   C949      1.0  0.71948  0.33279  0.24880  1.0000
  C   C950      1.0  0.73523  0.17780  0.47148  1.0000
  H   H1107     1.0  0.80828  0.31376  0.46210  1.0000
  C   C951      1.0  0.56938  0.20210  0.46991  1.0000
  H   H1108     1.0  0.64230  0.32195  0.31653  1.0000
  C   C952      1.0  0.60569  0.13286  0.48555  1.0000
  H   H1109     1.0  0.79871  0.44097  0.41185  1.0000
  H   H1110     1.0  0.65523  0.39074  0.32624  1.0000
  H   H1111     1.0  0.96745  0.47221  0.48398  1.0000
  H   H1112     1.0  0.56940  0.33816  0.25324  1.0000
  S   S253      1.0  0.55599  0.41190  0.26708  1.0000
  H   H1113     1.0  0.57001  0.46778  0.41282  1.0000
  H   H1114     1.0  0.73086  0.19273  0.47628  1.0000
  H   H1115     1.0  0.75693  0.22789  0.25608  1.0000
  H   H1116     1.0  0.77304  0.44331  0.39286  1.0000
  H   H1117     1.0  0.83008  0.44646  0.40484  1.0000
  H   H1118     1.0  0.75528  0.22664  0.45759  1.0000
  C   C953      1.0  0.77401  0.22650  0.45464  1.0000
  Fe  Fe125     1.0  0.74379  0.49576  0.30739  1.0000
  H   H1119     1.0  0.68901  0.29357  0.24538  1.0000
  H   H1120     1.0  0.86272  0.49225  0.39770  1.0000
  C   C954      1.0  0.67342  0.18346  0.24174  1.0000
  H   H1121     1.0  0.58141  0.01563  0.37898  1.0000
  C   C955      1.0  0.72465  0.49277  0.25388  1.0000
  H   H1122     1.0  0.83064  0.48554  0.34937  1.0000
  H   H1123     1.0  0.78540  0.47604  0.41121  1.0000
  C   C956      1.0  0.80441  0.31228  0.48636  1.0000
  H   H1124     1.0  0.60102  0.49235  0.46283  1.0000
  C   C957      1.0  0.85197  0.45319  0.48576  1.0000
  H   H1125     1.0  0.84488  0.43278  0.48871  1.0000
  C   C958      1.0  0.84971  0.49919  0.40338  1.0000
  H   H1126     1.0  0.70376  0.48989  0.27446  1.0000
  C   C959      1.0  0.73574  0.35668  0.24201  1.0000
  C   C960      1.0  0.68365  0.49480  0.25500  1.0000
  H   H1127     1.0  0.53918  0.00874  0.39264  1.0000
  N   N64       1.0  0.60784  0.36188  0.24419  1.0000
  H   H1128     1.0  0.52296  0.38863  0.48934  1.0000
  H   H1129     1.0  0.66761  0.49437  0.26163  1.0000
  C   C961      1.0  0.70398  0.49224  0.26227  1.0000
  C   C962      1.0  0.58127  0.33969  0.24301  1.0000
  H   H1130     1.0  0.58164  0.32054  0.24163  1.0000
  C   C963      1.0  0.58836  0.42944  0.49009  1.0000
  H   H1131     1.0  0.84766  0.49950  0.37467  1.0000
  H   H1132     1.0  0.78816  0.21179  0.48968  1.0000
  Fe  Fe126     1.0  0.79546  0.39485  0.68394  1.0000
  S   S254      1.0  0.81010  0.37170  0.66954  1.0000
  S   S255      1.0  0.81130  0.41603  0.70630  1.0000
  Fe  Fe127     1.0  0.75156  0.38659  0.66192  1.0000
  S   S256      1.0  0.76123  0.36180  0.64593  1.0000
  S   S257      1.0  0.71567  0.39219  0.65806  1.0000
  Fe  Fe128     1.0  0.76740  0.34377  0.66707  1.0000
  S   S258      1.0  0.75227  0.30044  0.66919  1.0000
  Fe  Fe129     1.0  0.80292  0.39167  0.64925  1.0000
  S   S259      1.0  0.83031  0.41129  0.62950  1.0000
  S   S260      1.0  0.75344  0.36540  0.68278  1.0000
  S   S261      1.0  0.79267  0.41789  0.66400  1.0000
  H   H1133     1.0  0.52127  0.19651  0.68552  1.0000
  S   S262      1.0  0.59916  0.42789  0.66813  1.0000
  Fe  Fe130     1.0  0.60515  0.25377  0.65659  1.0000
  S   S263      1.0  0.59014  0.26248  0.63502  1.0000
  S   S264      1.0  0.63172  0.23481  0.65537  1.0000
  Fe  Fe131     1.0  0.57219  0.27039  0.67661  1.0000
  Fe  Fe132     1.0  0.55095  0.24295  0.64596  1.0000
  Fe  Fe133     1.0  0.59435  0.29864  0.64716  1.0000
  S   S265      1.0  0.61425  0.33741  0.63537  1.0000
  S   S266      1.0  0.56572  0.23156  0.66699  1.0000
  S   S267      1.0  0.61306  0.29165  0.66784  1.0000
  C   C964      1.0  0.57539  0.21280  0.60711  1.0000
  C   C965      1.0  0.67239  0.39292  0.69251  1.0000
  Fe  Fe134     1.0  0.85470  0.36705  0.50951  1.0000
  S   S268      1.0  0.83317  0.38629  0.52143  1.0000
  H   H1134     1.0  0.52214  0.25878  0.58677  1.0000
  Fe  Fe135     1.0  0.90638  0.39966  0.52777  1.0000
  S   S269      1.0  0.88706  0.41991  0.54081  1.0000
  S   S270      1.0  0.94824  0.41482  0.53726  1.0000
  Fe  Fe136     1.0  0.85211  0.38093  0.54276  1.0000
  S   S271      1.0  0.82988  0.36210  0.56439  1.0000
  Fe  Fe137     1.0  0.87028  0.42366  0.51850  1.0000
  S   S272      1.0  0.66367  0.48309  0.68045  1.0000
  S   S273      1.0  0.87201  0.35975  0.53101  1.0000
  S   S274      1.0  0.89108  0.40538  0.50527  1.0000
  C   C966      1.0  0.98088  0.42773  0.53033  1.0000
  C   C967      1.0  0.64499  0.48843  0.72203  1.0000
  C   C968      1.0  0.59315  0.44289  0.50419  1.0000
  H   H1135     1.0  0.97118  0.40878  0.50853  1.0000
  H   H1136     1.0  0.72495  0.47123  0.70704  1.0000
  C   C969      1.0  0.59968  0.21406  0.61041  1.0000
  H   H1137     1.0  0.55981  0.09683  0.50242  1.0000
  H   H1138     1.0  0.49947  0.12088  0.50390  1.0000
  Fe  Fe138     1.0  0.63043  0.46871  0.66391  1.0000
  C   C970      1.0  0.51527  0.23971  0.59193  1.0000
  S   S275      1.0  0.65540  0.48666  0.64353  1.0000
  C   C971      1.0  0.51124  0.21354  0.61431  1.0000
  H   H1139     1.0  0.63458  0.21479  0.60131  1.0000
  C   C972      1.0  0.55658  0.23817  0.71739  1.0000
  H   H1140     1.0  0.55559  0.22809  0.70685  1.0000
  C   C973      1.0  0.60264  0.40293  0.65830  1.0000
  C   C974      1.0  0.58682  0.37681  0.66220  1.0000
  C   C975      1.0  0.58980  0.35654  0.65489  1.0000
  C   C976      1.0  0.60838  0.36229  0.64351  1.0000
  C   C977      1.0  0.62393  0.38841  0.63943  1.0000
  C   C978      1.0  0.62124  0.40873  0.64693  1.0000
  H   H1141     1.0  0.57238  0.37223  0.67097  1.0000
  H   H1142     1.0  0.57786  0.33651  0.65818  1.0000
  H   H1143     1.0  0.63850  0.39298  0.63073  1.0000
  H   H1144     1.0  0.63350  0.42883  0.64385  1.0000
  C   C979      1.0  0.82865  0.39744  0.61125  1.0000
  C   C980      1.0  0.81516  0.37046  0.60862  1.0000
  C   C981      1.0  0.81562  0.36008  0.59419  1.0000
  C   C982      1.0  0.82947  0.37649  0.58220  1.0000
  C   C983      1.0  0.84274  0.40353  0.58477  1.0000
  C   C984      1.0  0.84243  0.41389  0.59925  1.0000
  H   H1145     1.0  0.80472  0.35754  0.61778  1.0000
  H   H1146     1.0  0.80537  0.33914  0.59234  1.0000
  H   H1147     1.0  0.85331  0.41644  0.57564  1.0000
  H   H1148     1.0  0.85300  0.43479  0.60118  1.0000
  C   C985      1.0  0.71983  0.42449  0.65798  1.0000
  C   C986      1.0  0.69813  0.42890  0.65515  1.0000
  C   C987      1.0  0.70057  0.45436  0.65551  1.0000
  C   C988      1.0  0.72490  0.47560  0.65833  1.0000
  C   C989      1.0  0.74671  0.47133  0.66102  1.0000
  C   C990      1.0  0.74410  0.44574  0.66098  1.0000
  H   H1149     1.0  0.67944  0.41265  0.65249  1.0000
  H   H1150     1.0  0.68363  0.45747  0.65339  1.0000
  H   H1151     1.0  0.85007  0.42493  0.73070  1.0000
  H   H1152     1.0  0.76091  0.44256  0.66324  1.0000
  C   C991      1.0  0.71863  0.28290  0.66564  1.0000
  C   C992      1.0  0.70777  0.25584  0.66337  1.0000
  C   C993      1.0  0.68106  0.24137  0.66031  1.0000
  C   C994      1.0  0.66489  0.25374  0.65983  1.0000
  C   C995      1.0  0.67555  0.28076  0.66248  1.0000
  C   C996      1.0  0.70255  0.29544  0.66511  1.0000
  H   H1153     1.0  0.72014  0.24610  0.66376  1.0000
  H   H1154     1.0  0.67291  0.22049  0.65829  1.0000
  H   H1155     1.0  0.66312  0.29033  0.66232  1.0000
  H   H1156     1.0  0.71094  0.31638  0.66681  1.0000
  C   C997      1.0  0.80324  0.39946  0.72377  1.0000
  C   C998      1.0  0.78879  0.36344  0.72477  1.0000
  C   C999      1.0  0.61588  0.21433  0.59867  1.0000
  H   H1157     1.0  0.50328  0.22893  0.66441  1.0000
  C   C1000     1.0  0.54777  0.48086  0.49262  1.0000
  H   H1158     1.0  0.78409  0.35189  0.71445  1.0000
  S   S276      1.0  0.55374  0.28003  0.65646  1.0000
  C   C1001     1.0  0.57457  0.20022  0.49713  1.0000
  S   S277      1.0  0.50907  0.22041  0.52419  1.0000
  H   H1159     1.0  0.57964  0.43522  0.51345  1.0000
  C   C1002     1.0  0.87740  0.49912  0.49188  1.0000
  S   S278      1.0  0.50192  0.16548  0.53927  1.0000
  H   H1160     1.0  0.82439  0.35267  0.72916  1.0000
  H   H1161     1.0  0.76557  0.48771  0.66323  1.0000
  H   H1162     1.0  0.63224  0.45240  0.73447  1.0000
  C   C1003     1.0  0.67604  0.34271  0.69119  1.0000
  H   H1163     1.0  0.66952  0.40995  0.68858  1.0000
  H   H1164     1.0  0.53123  0.47246  0.70853  1.0000
  H   H1165     1.0  0.61798  0.47710  0.51728  1.0000
  H   H1166     1.0  0.50394  0.24815  0.70357  1.0000
  H   H1167     1.0  0.62385  0.38602  0.68955  1.0000
  H   H1168     1.0  0.53531  0.46402  0.68940  1.0000
  C   C1004     1.0  0.51600  0.12069  0.49812  1.0000
  H   H1169     1.0  0.57543  0.45935  0.68279  1.0000
  C   C1005     1.0  0.56396  0.44745  0.72774  1.0000
  H   H1170     1.0  0.92580  0.48748  0.49683  1.0000
  H   H1171     1.0  0.55480  0.23494  0.56690  1.0000
  H   H1172     1.0  0.60581  0.21452  0.62212  1.0000
  N   N65       1.0  0.91878  0.38990  0.58136  1.0000
  C   C1006     1.0  0.89644  0.38276  0.57080  1.0000
  C   C1007     1.0  0.93594  0.41852  0.58029  1.0000
  C   C1008     1.0  0.93409  0.37632  0.57610  1.0000
  C   C1009     1.0  0.90883  0.38303  0.59697  1.0000
  C   C1010     1.0  0.89526  0.39567  0.60390  1.0000
  C   C1011     1.0  0.91155  0.36338  0.60556  1.0000
  C   C1012     1.0  0.88537  0.38935  0.61853  1.0000
  C   C1013     1.0  0.90138  0.35708  0.62017  1.0000
  C   C1014     1.0  0.88832  0.37004  0.62663  1.0000
  H   H1173     1.0  0.88557  0.39434  0.57288  1.0000
  H   H1174     1.0  0.90293  0.38620  0.55883  1.0000
  H   H1175     1.0  0.88208  0.36174  0.57185  1.0000
  H   H1176     1.0  0.94482  0.42408  0.56887  1.0000
  H   H1177     1.0  0.95211  0.42502  0.58876  1.0000
  H   H1178     1.0  0.92517  0.43027  0.58208  1.0000
  H   H1179     1.0  0.92181  0.35474  0.57543  1.0000
  H   H1180     1.0  0.94177  0.38250  0.56445  1.0000
  H   H1181     1.0  0.95130  0.38085  0.58356  1.0000
  H   H1182     1.0  0.89177  0.41028  0.59795  1.0000
  H   H1183     1.0  0.92121  0.35240  0.60120  1.0000
  H   H1184     1.0  0.87499  0.39926  0.62356  1.0000
  H   H1185     1.0  0.90342  0.34188  0.62650  1.0000
  H   H1186     1.0  0.88021  0.36498  0.63789  1.0000
  N   N66       1.0  0.67973  0.32569  0.62390  1.0000
  C   C1015     1.0  0.65974  0.32640  0.61349  1.0000
  C   C1016     1.0  0.67558  0.29812  0.62489  1.0000
  C   C1017     1.0  0.67545  0.33359  0.63926  1.0000
  C   C1018     1.0  0.70597  0.34392  0.61828  1.0000
  C   C1019     1.0  0.72261  0.33508  0.61096  1.0000
  C   C1020     1.0  0.71515  0.37146  0.61939  1.0000
  C   C1021     1.0  0.74720  0.35278  0.60567  1.0000
  C   C1022     1.0  0.73996  0.38895  0.61430  1.0000
  C   C1023     1.0  0.75600  0.37963  0.60751  1.0000
  H   H1187     1.0  0.66259  0.32133  0.60171  1.0000
  H   H1188     1.0  0.63963  0.31247  0.61703  1.0000
  H   H1189     1.0  0.66040  0.34616  0.61325  1.0000
  H   H1190     1.0  0.67496  0.28942  0.61355  1.0000
  H   H1191     1.0  0.65662  0.28513  0.63031  1.0000
  H   H1192     1.0  0.69121  0.29676  0.63184  1.0000
  H   H1193     1.0  0.67373  0.35217  0.63925  1.0000
  H   H1194     1.0  0.65678  0.31901  0.64420  1.0000
  H   H1195     1.0  0.69170  0.33611  0.64709  1.0000
  H   H1196     1.0  0.71728  0.31460  0.60931  1.0000
  H   H1197     1.0  0.70343  0.37980  0.62440  1.0000
  H   H1198     1.0  0.75976  0.34567  0.60030  1.0000
  H   H1199     1.0  0.74694  0.40985  0.61584  1.0000
  H   H1200     1.0  0.77540  0.39321  0.60378  1.0000
  H   H1201     1.0  0.53391  0.20003  0.56671  1.0000
  C   C1024     1.0  0.62578  0.36888  0.69425  1.0000
  H   H1202     1.0  0.93677  0.45314  0.49314  1.0000
  H   H1203     1.0  0.79420  0.30513  0.50985  1.0000
  C   C1025     1.0  0.63332  0.47799  0.49506  1.0000
  H   H1204     1.0  0.62603  0.37054  0.70680  1.0000
  C   C1026     1.0  0.56174  0.26452  0.71723  1.0000
  C   C1027     1.0  0.50040  0.21708  0.58330  1.0000
  H   H1205     1.0  0.69059  0.39513  0.68692  1.0000
  H   H1206     1.0  0.72106  0.49534  0.50043  1.0000
  C   C1028     1.0  0.59957  0.20230  0.49486  1.0000
  H   H1207     1.0  0.60040  0.46631  0.69685  1.0000
  H   H1208     1.0  0.56152  0.18228  0.54598  1.0000
  C   C1029     1.0  0.52104  0.23796  0.60728  1.0000
  H   H1209     1.0  0.53230  0.25559  0.61380  1.0000
  C   C1030     1.0  0.65327  0.34547  0.69473  1.0000
  C   C1031     1.0  0.49781  0.29553  0.49145  1.0000
  C   C1032     1.0  0.57897  0.45855  0.69515  1.0000
  N   N67       1.0  0.57505  0.21129  0.56380  1.0000
  H   H1210     1.0  0.77172  0.41404  0.72811  1.0000
  H   H1211     1.0  0.69120  0.35680  0.68415  1.0000
  C   C1033     1.0  0.53999  0.46232  0.70149  1.0000
  H   H1212     1.0  0.50271  0.26390  0.50202  1.0000
  H   H1213     1.0  0.62988  0.34695  0.66849  1.0000
  H   H1214     1.0  0.95485  0.49648  0.52763  1.0000
  H   H1215     1.0  0.65091  0.24477  0.72827  1.0000
  C   C1034     1.0  0.61522  0.46683  0.50656  1.0000
  C   C1035     1.0  0.71756  0.48525  0.70331  1.0000
  H   H1216     1.0  0.52979  0.44112  0.70422  1.0000
  C   C1036     1.0  0.52882  0.10732  0.50436  1.0000
  H   H1217     1.0  0.53288  0.47741  0.50097  1.0000
  H   H1218     1.0  0.83439  0.38214  0.71801  1.0000
  C   C1037     1.0  0.64093  0.47353  0.73526  1.0000
  H   H1219     1.0  0.79256  0.48097  0.49703  1.0000
  H   H1220     1.0  0.56378  0.39054  0.51086  1.0000
  C   C1038     1.0  0.55175  0.21597  0.56176  1.0000
  H   H1221     1.0  0.54696  0.21663  0.54957  1.0000
  C   C1039     1.0  0.76368  0.27691  0.49543  1.0000
  H   H1222     1.0  0.54053  0.41585  0.50159  1.0000
  C   C1040     1.0  0.69057  0.26965  0.73339  1.0000
  C   C1041     1.0  0.56735  0.21229  0.59209  1.0000
  H   H1223     1.0  0.85452  0.37796  0.73038  1.0000
  H   H1224     1.0  0.58942  0.23116  0.54254  1.0000
  S   S279      1.0  0.87715  0.46508  0.51355  1.0000
  H   H1225     1.0  0.56255  0.21206  0.61628  1.0000
  C   C1042     1.0  0.95794  0.46601  0.49519  1.0000
  H   H1226     1.0  0.56662  0.29761  0.73101  1.0000
  H   H1227     1.0  0.66228  0.28465  0.70799  1.0000
  N   N68       1.0  0.56857  0.47366  0.70415  1.0000
  C   C1043     1.0  0.57384  0.47213  0.72046  1.0000
  C   C1044     1.0  0.56844  0.18473  0.55794  1.0000
  H   H1228     1.0  0.93002  0.46681  0.51951  1.0000
  H   H1229     1.0  0.55284  0.42945  0.72155  1.0000
  H   H1230     1.0  0.60764  0.35133  0.69064  1.0000
  C   C1045     1.0  0.65999  0.30168  0.70463  1.0000
  C   C1046     1.0  0.55123  0.22446  0.73118  1.0000
  C   C1047     1.0  0.73564  0.39393  0.73553  1.0000
  H   H1231     1.0  0.66436  0.36458  0.66663  1.0000
  H   H1232     1.0  0.69682  0.31947  0.69322  1.0000
  C   C1048     1.0  0.95148  0.47976  0.51997  1.0000
  C   C1049     1.0  0.60790  0.21351  0.58359  1.0000
  C   C1050     1.0  0.98680  0.42153  0.51598  1.0000
  C   C1051     1.0  0.67936  0.32125  0.69620  1.0000
  C   C1052     1.0  0.58837  0.49467  0.72959  1.0000
  H   H1233     1.0  0.62079  0.21286  0.57493  1.0000
  H   H1234     1.0  0.54823  0.21111  0.59042  1.0000
  H   H1235     1.0  0.54616  0.20381  0.73116  1.0000
  H   H1236     1.0  0.50218  0.24800  0.73088  1.0000
  H   H1237     1.0  0.55261  0.16943  0.56469  1.0000
  C   C1053     1.0  0.63746  0.30379  0.70838  1.0000
  N   N69       1.0  0.96225  0.48906  0.50471  1.0000
  C   C1054     1.0  0.58355  0.21299  0.57981  1.0000
  H   H1238     1.0  0.82716  0.49604  0.49708  1.0000
  H   H1239     1.0  0.60329  0.12274  0.49654  1.0000
  C   C1055     1.0  0.83370  0.37452  0.72973  1.0000
  H   H1240     1.0  0.63966  0.47875  0.71115  1.0000
  H   H1241     1.0  0.62207  0.28827  0.71464  1.0000
  N   N70       1.0  0.64959  0.36767  0.68862  1.0000
  H   H1242     1.0  0.61144  0.20262  0.50449  1.0000
  H   H1243     1.0  0.61312  0.22662  0.55316  1.0000
  S   S280      1.0  0.51606  0.21086  0.63397  1.0000
  H   H1244     1.0  0.69764  0.47865  0.70799  1.0000
  H   H1245     1.0  0.75148  0.26652  0.50484  1.0000
  H   H1246     1.0  0.60954  0.23747  0.73492  1.0000
  H   H1247     1.0  0.60321  0.25096  0.55917  1.0000
  H   H1248     1.0  0.58553  0.18048  0.55825  1.0000
  C   C1056     1.0  0.59618  0.23088  0.55438  1.0000
  C   C1057     1.0  0.78797  0.29889  0.49833  1.0000
  H   H1249     1.0  0.56989  0.43742  0.69801  1.0000
  S   S281      1.0  0.56286  0.19762  0.51572  1.0000
  C   C1058     1.0  0.64722  0.36519  0.67196  1.0000
  C   C1059     1.0  0.63412  0.32539  0.70363  1.0000
  H   H1250     1.0  0.96035  0.46816  0.52545  1.0000
  H   H1251     1.0  0.64518  0.38190  0.66685  1.0000
  S   S282      1.0  0.56510  0.28187  0.70016  1.0000
  Fe  Fe139     1.0  0.52079  0.18904  0.51872  1.0000
  H   H1252     1.0  0.61594  0.32542  0.70669  1.0000
  C   C1060     1.0  0.86826  0.47272  0.49582  1.0000
  C   C1061     1.0  0.56277  0.27727  0.73102  1.0000
  H   H1253     1.0  0.67597  0.39482  0.70493  1.0000
  H   H1254     1.0  0.50563  0.18972  0.66719  1.0000
  C   C1062     1.0  0.54102  0.40751  0.49032  1.0000
  H   H1255     1.0  0.72097  0.49487  0.61635  1.0000
  H   H1256     1.0  0.52199  0.24125  0.68146  1.0000
  H   H1257     1.0  0.65020  0.49679  0.49685  1.0000
  H   H1258     1.0  0.69672  0.26892  0.72187  1.0000
  H   H1259     1.0  0.71524  0.48351  0.69076  1.0000
  H   H1260     1.0  0.52211  0.09724  0.51502  1.0000
  H   H1261     1.0  0.54796  0.36509  0.49724  1.0000
  H   H1262     1.0  0.73066  0.40765  0.72959  1.0000
  C   C1063     1.0  0.56499  0.38471  0.49900  1.0000
  C   C1064     1.0  0.57379  0.49855  0.49578  1.0000
  C   C1065     1.0  0.50201  0.18889  0.67963  1.0000
  C   C1066     1.0  0.76123  0.39690  0.73508  1.0000
  H   H1263     1.0  0.75864  0.49029  0.49124  1.0000
  H   H1264     1.0  0.51567  0.31057  0.49626  1.0000
  H   H1265     1.0  0.96570  0.45338  0.50057  1.0000
  H   H1266     1.0  0.58309  0.38225  0.49799  1.0000
  C   C1067     1.0  0.66421  0.25576  0.73726  1.0000
  C   C1068     1.0  0.55032  0.10721  0.49703  1.0000
  C   C1069     1.0  0.50173  0.23039  0.67693  1.0000
  C   C1070     1.0  0.81007  0.49859  0.50107  1.0000
  H   H1267     1.0  0.81030  0.49815  0.51366  1.0000
  Fe  Fe140     1.0  0.79402  0.37700  0.80002  1.0000
  S   S283      1.0  0.78416  0.36250  0.82406  1.0000
  S   S284      1.0  0.78729  0.35177  0.77906  1.0000
  Fe  Fe141     1.0  0.80859  0.43292  0.80859  1.0000
  S   S285      1.0  0.79965  0.42413  0.83310  1.0000
  S   S286      1.0  0.82460  0.47328  0.79898  1.0000
  Fe  Fe142     1.0  0.82018  0.39887  0.83099  1.0000
  S   S287      1.0  0.85075  0.40476  0.84915  1.0000
  Fe  Fe143     1.0  0.76459  0.38875  0.82468  1.0000
  S   S288      1.0  0.72524  0.37785  0.83461  1.0000
  S   S289      1.0  0.83214  0.41073  0.80678  1.0000
  S   S290      1.0  0.77140  0.40014  0.80034  1.0000
  H   H1268     1.0  0.58206  0.44777  0.85885  1.0000
  S   S291      1.0  0.65885  0.41749  0.82935  1.0000
  Fe  Fe144     1.0  0.60171  0.26424  0.80514  1.0000
  S   S292      1.0  0.58075  0.27041  0.82485  1.0000
  S   S293      1.0  0.64393  0.27373  0.80292  1.0000
  Fe  Fe145     1.0  0.55318  0.23854  0.78524  1.0000
  Fe  Fe146     1.0  0.56010  0.28229  0.80711  1.0000
  S   S294      1.0  0.55528  0.31905  0.80877  1.0000
  Fe  Fe147     1.0  0.54951  0.22963  0.82016  1.0000
  S   S295      1.0  0.58405  0.27990  0.78781  1.0000
  S   S296      1.0  0.57248  0.22259  0.80161  1.0000
  Fe  Fe148     1.0  0.85410  0.36664  0.93582  1.0000
  S   S297      1.0  0.87462  0.34890  0.95036  1.0000
  S   S298      1.0  0.83251  0.34971  0.91363  1.0000
  Fe  Fe149     1.0  0.85350  0.40208  0.96127  1.0000
  S   S299      1.0  0.87311  0.38666  0.97769  1.0000
  S   S300      1.0  0.83791  0.43162  0.96490  1.0000
  Fe  Fe150     1.0  0.90030  0.39052  0.95831  1.0000
  S   S301      1.0  0.94362  0.40988  0.96585  1.0000
  Fe  Fe151     1.0  0.84611  0.34650  0.96856  1.0000
  S   S302      1.0  0.50007  0.21376  0.94248  1.0000
  S   S303      1.0  0.88160  0.40816  0.94236  1.0000
  S   S304      1.0  0.82463  0.36191  0.95369  1.0000
  S   S305      1.0  0.55477  0.19539  0.95482  1.0000
  H   H1269     1.0  0.74754  0.34227  0.75596  1.0000
  Fe  Fe152     1.0  0.66665  0.45466  0.81716  1.0000
  Fe  Fe153     1.0  0.51237  0.18316  0.94928  1.0000
  H   H1270     1.0  0.85155  0.42682  0.75126  1.0000
  H   H1271     1.0  0.60111  0.20154  0.87111  1.0000
  S   S306      1.0  0.63556  0.46633  0.81098  1.0000
  C   C1071     1.0  0.56299  0.18847  0.97293  1.0000
  H   H1272     1.0  0.69760  0.40935  0.87482  1.0000
  C   C1072     1.0  0.73494  0.44858  0.84676  1.0000
  H   H1273     1.0  0.58048  0.20190  0.92085  1.0000
  C   C1073     1.0  0.64498  0.45831  0.85666  1.0000
  C   C1074     1.0  0.68562  0.42079  0.76905  1.0000
  H   H1274     1.0  0.60402  0.20472  0.96793  1.0000
  H   H1275     1.0  0.59589  0.11295  0.97735  1.0000
  H   H1276     1.0  0.99444  0.44357  0.97799  1.0000
  H   H1277     1.0  0.65817  0.45159  0.86241  1.0000
  H   H1278     1.0  0.68880  0.44861  0.75184  1.0000
  H   H1279     1.0  0.81531  0.42084  0.86522  1.0000
  C   C1075     1.0  0.67519  0.27146  0.76309  1.0000
  C   C1076     1.0  0.77321  0.38056  0.74266  1.0000
  C   C1077     1.0  0.74847  0.35903  0.74980  1.0000
  H   H1280     1.0  0.65456  0.48003  0.85631  1.0000
  H   H1281     1.0  0.63520  0.24171  0.88223  1.0000
  S   S307      1.0  0.64010  0.46599  0.76588  1.0000
  C   C1078     1.0  0.97854  0.42297  0.94166  1.0000
  H   H1282     1.0  0.66262  0.48192  0.88167  1.0000
  H   H1283     1.0  0.59548  0.27345  0.86696  1.0000
  C   C1079     1.0  0.97485  0.42614  0.95702  1.0000
  H   H1284     1.0  0.83840  0.38738  0.76620  1.0000
  C   C1080     1.0  0.72301  0.35643  0.75028  1.0000
  H   H1285     1.0  0.96186  0.41136  0.93454  1.0000
  C   C1081     1.0  0.59715  0.44752  0.88867  1.0000
  C   C1082     1.0  0.62943  0.39050  0.82412  1.0000
  C   C1083     1.0  0.62385  0.36571  0.82972  1.0000
  C   C1084     1.0  0.60124  0.34364  0.82496  1.0000
  C   C1085     1.0  0.58375  0.34639  0.81487  1.0000
  C   C1086     1.0  0.58904  0.37130  0.80956  1.0000
  C   C1087     1.0  0.61199  0.39326  0.81402  1.0000
  H   H1286     1.0  0.63714  0.36350  0.83763  1.0000
  H   H1287     1.0  0.59710  0.32462  0.82933  1.0000
  H   H1288     1.0  0.57558  0.37352  0.80175  1.0000
  H   H1289     1.0  0.61621  0.41215  0.80944  1.0000
  C   C1088     1.0  0.84492  0.38969  0.86718  1.0000
  C   C1089     1.0  0.82103  0.36855  0.87078  1.0000
  C   C1090     1.0  0.81747  0.35674  0.88512  1.0000
  C   C1091     1.0  0.83755  0.36618  0.89607  1.0000
  C   C1092     1.0  0.86124  0.38766  0.89259  1.0000
  C   C1093     1.0  0.86493  0.39922  0.87817  1.0000
  H   H1290     1.0  0.80549  0.36101  0.86242  1.0000
  H   H1291     1.0  0.79912  0.34006  0.88767  1.0000
  H   H1292     1.0  0.87699  0.39491  0.90082  1.0000
  H   H1293     1.0  0.88352  0.41549  0.87545  1.0000
  H   H1294     1.0  0.63334  0.21035  0.76693  1.0000
  C   C1094     1.0  0.77621  0.47257  0.79918  1.0000
  H   H1295     1.0  0.63182  0.27144  0.88228  1.0000
  H   H1296     1.0  0.52371  0.17053  0.98135  1.0000
  C   C1095     1.0  0.55088  0.23413  0.90337  1.0000
  H   H1297     1.0  0.57838  0.43443  0.88386  1.0000
  H   H1298     1.0  0.76790  0.45154  0.80023  1.0000
  H   H1299     1.0  0.73924  0.47363  0.80104  1.0000
  C   C1096     1.0  0.59244  0.49244  0.74502  1.0000
  H   H1300     1.0  0.73538  0.44827  0.83453  1.0000
  C   C1097     1.0  0.70251  0.34866  0.82611  1.0000
  C   C1098     1.0  0.71079  0.33565  0.81565  1.0000
  C   C1099     1.0  0.69263  0.31246  0.80875  1.0000
  C   C1100     1.0  0.66606  0.30251  0.81201  1.0000
  C   C1101     1.0  0.65763  0.31577  0.82225  1.0000
  C   C1102     1.0  0.67594  0.33870  0.82943  1.0000
  H   H1301     1.0  0.73120  0.34331  0.81291  1.0000
  H   H1302     1.0  0.69923  0.30229  0.80083  1.0000
  H   H1303     1.0  0.63711  0.30830  0.82472  1.0000
  H   H1304     1.0  0.66956  0.34880  0.83750  1.0000
  C   C1103     1.0  0.79217  0.36766  0.76137  1.0000
  H   H1305     1.0  0.57976  0.44898  0.91008  1.0000
  H   H1306     1.0  0.80912  0.41482  0.77037  1.0000
  C   C1104     1.0  0.99298  0.38201  0.97194  1.0000
  H   H1307     1.0  0.60732  0.41197  0.85120  1.0000
  H   H1308     1.0  0.59791  0.25097  0.76522  1.0000
  S   S308      1.0  0.68674  0.46594  0.79487  1.0000
  H   H1309     1.0  0.60244  0.45227  0.84283  1.0000
  N   N71       1.0  0.80460  0.27107  0.93959  1.0000
  C   C1105     1.0  0.80627  0.29760  0.94091  1.0000
  C   C1106     1.0  0.82829  0.27190  0.94701  1.0000
  C   C1107     1.0  0.80545  0.26501  0.92333  1.0000
  C   C1108     1.0  0.77984  0.25170  0.94631  1.0000
  C   C1109     1.0  0.77896  0.23576  0.95884  1.0000
  C   C1110     1.0  0.75551  0.24866  0.94045  1.0000
  C   C1111     1.0  0.75517  0.21792  0.96497  1.0000
  C   C1112     1.0  0.73186  0.23095  0.94679  1.0000
  C   C1113     1.0  0.73170  0.21563  0.95904  1.0000
  H   H1310     1.0  0.80503  0.30266  0.95293  1.0000
  H   H1311     1.0  0.82501  0.31275  0.93641  1.0000
  H   H1312     1.0  0.79067  0.29973  0.93446  1.0000
  H   H1313     1.0  0.82954  0.27763  0.95917  1.0000
  H   H1314     1.0  0.84655  0.28673  0.94172  1.0000
  H   H1315     1.0  0.82874  0.25271  0.94616  1.0000
  H   H1316     1.0  0.78982  0.26664  0.91661  1.0000
  H   H1317     1.0  0.82419  0.27895  0.91806  1.0000
  H   H1318     1.0  0.80329  0.24482  0.92176  1.0000
  H   H1319     1.0  0.79634  0.23711  0.96438  1.0000
  H   H1320     1.0  0.75464  0.26032  0.93108  1.0000
  H   H1321     1.0  0.75488  0.20644  0.97478  1.0000
  H   H1322     1.0  0.71353  0.22937  0.94240  1.0000
  C   C1114     1.0  0.59716  0.49954  0.98195  1.0000
  N   N72       1.0  0.61907  0.44784  0.86401  1.0000
  H   H1323     1.0  0.61027  0.47853  0.85613  1.0000
  C   C1115     1.0  0.49884  0.07676  0.97252  1.0000
  C   C1116     1.0  0.60733  0.41884  0.86304  1.0000
  C   C1117     1.0  0.62032  0.45630  0.88000  1.0000
  C   C1118     1.0  0.64403  0.47373  0.88733  1.0000
  H   H1324     1.0  0.67022  0.27294  0.77473  1.0000
  C   C1119     1.0  0.78579  0.34780  0.74348  1.0000
  C   C1120     1.0  0.58428  0.23239  0.88675  1.0000
  H   H1325     1.0  0.58669  0.40920  0.86678  1.0000
  H   H1326     1.0  0.54641  0.21601  0.92516  1.0000
  H   H1327     1.0  0.63560  0.23517  0.78015  1.0000
  H   H1328     1.0  0.83037  0.47570  0.97480  1.0000
  C   C1121     1.0  0.54339  0.09373  0.98294  1.0000
  C   C1122     1.0  0.85218  0.45425  0.97983  1.0000
  C   C1123     1.0  0.59211  0.25440  0.86182  1.0000
  C   C1124     1.0  0.57616  0.21264  0.91207  1.0000
  H   H1329     1.0  0.86780  0.41394  0.74103  1.0000
  H   H1330     1.0  0.58981  0.21449  0.74862  1.0000
  H   H1331     1.0  0.77607  0.30546  0.97206  1.0000
  H   H1332     1.0  0.53532  0.23965  0.90525  1.0000
  C   C1125     1.0  0.71313  0.42613  0.86948  1.0000
  H   H1333     1.0  0.71604  0.29626  0.76764  1.0000
  H   H1334     1.0  0.85654  0.38039  0.75372  1.0000
  H   H1335     1.0  0.61996  0.27448  0.75226  1.0000
  C   C1126     1.0  0.59768  0.45574  0.90366  1.0000
  H   H1336     1.0  0.74108  0.39665  0.88627  1.0000
  C   C1127     1.0  0.69897  0.43962  0.75809  1.0000
  H   H1337     1.0  0.99207  0.37661  0.94789  1.0000
  H   H1338     1.0  0.73576  0.46227  0.74717  1.0000
  Fe  Fe154     1.0  0.65764  0.48073  0.78917  1.0000
  H   H1339     1.0  0.63913  0.25925  0.86508  1.0000
  H   H1340     1.0  0.55827  0.27366  0.75530  1.0000
  C   C1128     1.0  0.62120  0.47288  0.91047  1.0000
  C   C1129     1.0  0.54395  0.17633  0.98394  1.0000
  C   C1130     1.0  0.62751  0.25330  0.87568  1.0000
  N   N73       1.0  0.81364  0.42203  0.91839  1.0000
  C   C1131     1.0  0.80815  0.44136  0.92694  1.0000
  C   C1132     1.0  0.80262  0.39697  0.92676  1.0000
  C   C1133     1.0  0.84245  0.43197  0.91816  1.0000
  C   C1134     1.0  0.80149  0.41779  0.90314  1.0000
  C   C1135     1.0  0.81603  0.42221  0.88958  1.0000
  C   C1136     1.0  0.77410  0.40867  0.90153  1.0000
  C   C1137     1.0  0.80381  0.41782  0.87538  1.0000
  C   C1138     1.0  0.76206  0.40414  0.88727  1.0000
  C   C1139     1.0  0.77689  0.40868  0.87421  1.0000
  H   H1341     1.0  0.78704  0.43418  0.92921  1.0000
  H   H1342     1.0  0.81801  0.44584  0.93824  1.0000
  H   H1343     1.0  0.81518  0.46014  0.92068  1.0000
  H   H1344     1.0  0.81167  0.39942  0.93821  1.0000
  H   H1345     1.0  0.80608  0.38181  0.92059  1.0000
  C   C1140     1.0  0.83590  0.37723  0.75501  1.0000
  H   H1346     1.0  0.85227  0.45099  0.91215  1.0000
  H   H1347     1.0  0.85092  0.43538  0.92983  1.0000
  H   H1348     1.0  0.84801  0.41763  0.91274  1.0000
  H   H1349     1.0  0.83683  0.42850  0.88954  1.0000
  C   C1141     1.0  0.58574  0.48480  0.96891  1.0000
  H   H1350     1.0  0.60420  0.21144  0.89691  1.0000
  H   H1351     1.0  0.77889  0.32686  0.74419  1.0000
  H   H1352     1.0  0.76746  0.40467  0.86316  1.0000
  N   N74       1.0  0.68550  0.39018  0.79004  1.0000
  C   C1142     1.0  0.68798  0.36581  0.78723  1.0000
  C   C1143     1.0  0.69807  0.40153  0.80479  1.0000
  C   C1144     1.0  0.65722  0.38272  0.79136  1.0000
  C   C1145     1.0  0.69857  0.40933  0.77788  1.0000
  H   H1353     1.0  0.82677  0.35562  0.75697  1.0000
  C   C1146     1.0  0.56844  0.44546  0.74315  1.0000
  H   H1354     1.0  0.78129  0.38895  0.92857  1.0000
  H   H1355     1.0  0.51004  0.23140  0.84896  1.0000
  H   H1356     1.0  0.55386  0.44967  0.96013  1.0000
  H   H1357     1.0  0.70851  0.36885  0.78815  1.0000
  H   H1358     1.0  0.67688  0.35048  0.79569  1.0000
  H   H1359     1.0  0.68034  0.35756  0.77583  1.0000
  H   H1360     1.0  0.71858  0.40455  0.80553  1.0000
  H   H1361     1.0  0.68760  0.38862  0.81443  1.0000
  H   H1362     1.0  0.69818  0.42077  0.80689  1.0000
  C   C1147     1.0  0.70149  0.28509  0.75912  1.0000
  H   H1363     1.0  0.64786  0.36797  0.80043  1.0000
  H   H1364     1.0  0.69687  0.37178  0.74358  1.0000
  C   C1148     1.0  0.58964  0.21831  0.89837  1.0000
  H   H1365     1.0  0.73657  0.41008  0.78124  1.0000
  C   C1149     1.0  0.58260  0.46792  0.75177  1.0000
  C   C1150     1.0  0.58918  0.19538  0.97639  1.0000
  H   H1366     1.0  0.97194  0.37430  0.97277  1.0000
  C   C1151     1.0  0.54979  0.11686  0.97446  1.0000
  C   C1152     1.0  0.59414  0.21369  0.86453  1.0000
  C   C1153     1.0  0.71501  0.42710  0.85379  1.0000
  C   C1154     1.0  0.51836  0.18446  0.86835  1.0000
  C   C1155     1.0  0.74618  0.27060  0.98234  1.0000
  C   C1156     1.0  0.55688  0.22059  0.91456  1.0000
  C   C1157     1.0  0.50902  0.21845  0.85810  1.0000
  C   C1158     1.0  0.84470  0.47420  0.98221  1.0000
  H   H1367     1.0  0.57135  0.24381  0.85806  1.0000
  N   N75       1.0  0.59911  0.23843  0.87243  1.0000
  H   H1368     1.0  0.64325  0.45172  0.84467  1.0000
  H   H1369     1.0  0.57289  0.20155  0.86240  1.0000
  S   S309      1.0  0.69291  0.49265  0.82844  1.0000
  C   C1159     1.0  0.62536  0.22429  0.76977  1.0000
  S   S310      1.0  0.53608  0.19991  0.83945  1.0000
  C   C1160     1.0  0.73121  0.44668  0.87824  1.0000
  C   C1161     1.0  0.73860  0.43654  0.76394  1.0000
  C   C1162     1.0  0.60270  0.45691  0.85511  1.0000
  C   C1163     1.0  0.56280  0.46116  0.97018  1.0000
  C   C1164     1.0  0.75131  0.46830  0.87132  1.0000
  H   H1370     1.0  0.64637  0.37382  0.78071  1.0000
  H   H1371     1.0  0.75928  0.44288  0.76212  1.0000
  H   H1372     1.0  0.52953  0.22035  0.97512  1.0000
  C   C1165     1.0  0.72539  0.44745  0.75553  1.0000
  H   H1373     1.0  0.81698  0.44054  0.74095  1.0000
  C   C1166     1.0  0.61865  0.26101  0.76163  1.0000
  C   C1167     1.0  0.80495  0.40330  0.76008  1.0000
  H   H1374     1.0  0.76174  0.40458  0.91133  1.0000
  C   C1168     1.0  0.64744  0.48573  0.74955  1.0000
  H   H1375     1.0  0.62986  0.27312  0.77145  1.0000
  H   H1376     1.0  0.60392  0.25894  0.85131  1.0000
  S   S311      1.0  0.54337  0.21885  0.76195  1.0000
  C   C1169     1.0  0.50603  0.18499  0.88201  1.0000
  H   H1377     1.0  0.56120  0.42642  0.74844  1.0000
  N   N76       1.0  0.62802  0.24188  0.75687  1.0000
  H   H1378     1.0  0.70098  0.41102  0.84697  1.0000
  H   H1379     1.0  0.53311  0.28489  0.97936  1.0000
  H   H1380     1.0  0.61847  0.41121  0.87013  1.0000
  H   H1381     1.0  0.60455  0.21267  0.77312  1.0000
  H   H1382     1.0  0.55796  0.24980  0.88133  1.0000
  H   H1383     1.0  0.66535  0.41619  0.77067  1.0000
  C   C1170     1.0  0.52955  0.23894  0.97894  1.0000
  C   C1171     1.0  0.79302  0.28705  0.98665  1.0000
  C   C1172     1.0  0.51722  0.07367  0.98171  1.0000
  C   C1173     1.0  0.80328  0.48750  0.79787  1.0000
  S   S312      1.0  0.52710  0.24177  0.80341  1.0000
  C   C1174     1.0  0.72542  0.41772  0.77491  1.0000
  H   H1384     1.0  0.65395  0.39989  0.79446  1.0000
  H   H1385     1.0  0.60381  0.21735  0.85328  1.0000
  C   C1175     1.0  0.65573  0.25614  0.75232  1.0000
  H   H1386     1.0  0.70788  0.34007  0.75618  1.0000
  H   H1387     1.0  0.58661  0.46631  0.76363  1.0000
  C   C1176     1.0  0.56420  0.23991  0.88962  1.0000
  H   H1388     1.0  0.72961  0.44589  0.89046  1.0000
  C   C1177     1.0  0.55804  0.26373  0.74482  1.0000
  C   C1178     1.0  0.52003  0.20123  0.85634  1.0000
  H   H1389     1.0  0.52672  0.17098  0.86711  1.0000
  H   H1390     1.0  0.66254  0.49543  0.90764  1.0000
  C   C1179     1.0  0.53131  0.11960  0.96522  1.0000
  C   C1180     1.0  0.77220  0.28928  0.97958  1.0000
  H   H1391     1.0  0.76457  0.48352  0.87878  1.0000
  C   C1181     1.0  0.76001  0.48508  0.79961  1.0000
  C   C1182     1.0  0.80958  0.41949  0.74160  1.0000
  H   H1392     1.0  0.73033  0.27248  0.97670  1.0000
  H   H1393     1.0  0.62148  0.47942  0.92206  1.0000
  C   C1183     1.0  0.75377  0.46988  0.85530  1.0000
  C   C1184     1.0  0.71661  0.37393  0.74325  1.0000
  H   H1394     1.0  0.53383  0.43387  0.98524  1.0000
  C   C1185     1.0  0.55141  0.45218  0.98439  1.0000
  N   N77       1.0  0.82114  0.38635  0.74227  1.0000
  H   H1395     1.0  0.51161  0.23906  0.97411  1.0000
  H   H1396     1.0  0.72956  0.29474  0.74124  1.0000
  S   S313      1.0  0.82641  0.30994  0.98361  1.0000
  C   C1186     1.0  0.64430  0.48177  0.90234  1.0000
  H   H1397     1.0  0.53668  0.13738  0.95877  1.0000
  C   C1187     1.0  0.84808  0.41351  0.74129  1.0000
  H   H1398     1.0  0.87676  0.43732  0.98767  1.0000
  C   C1188     1.0  0.70915  0.28422  0.74429  1.0000
  C   C1189     1.0  0.87073  0.45248  0.98945  1.0000
  H   H1399     1.0  0.54705  0.25488  0.97370  1.0000
  C   C1190     1.0  0.55169  0.23711  0.74495  1.0000
  H   H1400     1.0  0.57817  0.07852  0.97312  1.0000
  C   C1191     1.0  0.61032  0.22543  0.74461  1.0000
  H   H1401     1.0  0.56918  0.13310  0.97494  1.0000
  H   H1402     1.0  0.50547  0.17236  0.89121  1.0000
  S   S314      1.0  0.59947  0.49529  0.95086  1.0000
  H   H1403     1.0  0.51041  0.05539  0.98770  1.0000
  H   H1404     1.0  0.77825  0.46868  0.82950  1.0000
  H   H1405     1.0  0.71340  0.20247  0.96425  1.0000
  C   C1192     1.0  0.58535  0.09322  0.98246  1.0000
  C   C1193     1.0  0.50588  0.09964  0.96429  1.0000
  H   H1406     1.0  0.80012  0.47451  0.84506  1.0000
  H   H1407     1.0  0.74924  0.49144  0.82893  1.0000
  H   H1408     1.0  0.53115  0.32335  0.98943  1.0000
  H   H1409     1.0  0.60033  0.08995  0.98894  1.0000
  N   N78       1.0  0.77450  0.49255  0.84750  1.0000
  C   C1194     1.0  0.79022  0.48355  0.83804  1.0000
  H   H1410     1.0  0.61619  0.21048  0.74046  1.0000
  C   C1195     1.0  0.52485  0.91267  0.11652  1.0000
  C   C1196     1.0  0.51352  0.81069  0.99742  1.0000
  H   H1411     1.0  0.57958  0.86491  0.02062  1.0000
  H   H1412     1.0  0.96266  0.60786  0.01540  1.0000
  S   S315      1.0  0.51095  0.86269  0.06742  1.0000
  H   H1413     1.0  0.58787  0.82652  0.05279  1.0000
  H   H1414     1.0  0.99412  0.68554  0.03404  1.0000
  H   H1415     1.0  0.53294  0.83886  0.02549  1.0000
  C   C1197     1.0  0.70743  0.69337  0.99139  1.0000
  S   S316      1.0  0.80040  0.53159  0.16105  1.0000
  H   H1416     1.0  0.85961  0.51078  0.04433  1.0000
  C   C1198     1.0  0.58385  0.85960  0.03208  1.0000
  S   S317      1.0  0.51862  0.91562  0.00532  1.0000
  C   C1199     1.0  0.56173  0.98174  0.08140  1.0000
  S   S318      1.0  0.54978  0.90525  0.03368  1.0000
  H   H1417     1.0  0.52977  0.78117  0.03972  1.0000
  Fe  Fe155     1.0  0.53598  0.93542  0.02768  1.0000
  S   S319      1.0  0.55637  0.97876  0.03537  1.0000
  Fe  Fe156     1.0  0.52913  0.88344  0.01240  1.0000
  H   H1418     1.0  0.87850  0.54639  0.12801  1.0000
  S   S320      1.0  0.81464  0.52491  0.20399  1.0000
  H   H1419     1.0  0.52205  0.96193  0.06099  1.0000
  Fe  Fe157     1.0  0.85324  0.56736  0.04522  1.0000
  S   S321      1.0  0.86554  0.60470  0.03185  1.0000
  S   S322      1.0  0.82660  0.55816  0.06580  1.0000
  Fe  Fe158     1.0  0.87754  0.54520  0.02259  1.0000
  S   S323      1.0  0.89112  0.58002  0.00745  1.0000
  H   H1420     1.0  0.72014  0.69435  0.00067  1.0000
  Fe  Fe159     1.0  0.90438  0.60373  0.02883  1.0000
  S   S324      1.0  0.94338  0.64121  0.03091  1.0000
  Fe  Fe160     1.0  0.85144  0.57848  0.01128  1.0000
  C   C1200     1.0  0.55565  0.76908  0.00820  1.0000
  S   S325      1.0  0.89296  0.56880  0.04401  1.0000
  S   S326      1.0  0.83704  0.54133  0.02471  1.0000
  H   H1421     1.0  0.89657  0.62384  0.14272  1.0000
  H   H1422     1.0  0.88494  0.61189  0.07596  1.0000
  S   S327      1.0  0.54632  0.86457  0.99574  1.0000
  H   H1423     1.0  0.79186  0.58638  0.01119  1.0000
  C   C1201     1.0  0.88299  0.59200  0.11859  1.0000
  C   C1202     1.0  0.68579  0.50944  0.20765  1.0000
  C   C1203     1.0  0.86129  0.59324  0.11144  1.0000
  C   C1204     1.0  0.54855  0.93849  0.07164  1.0000
  H   H1424     1.0  0.84302  0.58799  0.11714  1.0000
  H   H1425     1.0  0.56840  0.98939  0.06978  1.0000
  Fe  Fe161     1.0  0.75687  0.51020  0.15908  1.0000
  H   H1426     1.0  0.59468  0.50205  0.00621  1.0000
  H   H1427     1.0  0.74923  0.58679  0.00654  1.0000
  Fe  Fe162     1.0  0.79523  0.50696  0.18174  1.0000
  C   C1205     1.0  0.78421  0.58431  0.99978  1.0000
  C   C1206     1.0  0.53821  0.83508  0.03702  1.0000
  C   C1207     1.0  0.97515  0.64600  0.02536  1.0000
  H   H1428     1.0  0.84532  0.60088  0.09094  1.0000
  H   H1429     1.0  0.73218  0.52676  0.19648  1.0000
  S   S328      1.0  0.82795  0.50360  0.12856  1.0000
  H   H1430     1.0  0.58527  0.79782  0.99443  1.0000
  C   C1208     1.0  0.88466  0.60691  0.08782  1.0000
  H   H1431     1.0  0.85691  0.56844  0.15367  1.0000
  H   H1432     1.0  0.60347  0.86013  0.03196  1.0000
  C   C1209     1.0  0.80121  0.50710  0.22066  1.0000
  H   H1433     1.0  0.74787  0.51735  0.21081  1.0000
  C   C1210     1.0  0.89051  0.56287  0.13576  1.0000
  H   H1434     1.0  0.92190  0.61430  0.13937  1.0000
  H   H1435     1.0  0.91130  0.56926  0.13292  1.0000
  S   S329      1.0  0.88796  0.51196  0.01917  1.0000
  H   H1436     1.0  0.87824  0.63078  0.99552  1.0000
  N   N79       1.0  0.56332  0.83358  0.03685  1.0000
  H   H1437     1.0  0.50345  0.73681  0.16112  1.0000
  C   C1211     1.0  0.75998  0.58459  0.99709  1.0000
  C   C1212     1.0  0.82720  0.54247  0.08303  1.0000
  C   C1213     1.0  0.80684  0.53653  0.09342  1.0000
  C   C1214     1.0  0.80678  0.52467  0.10740  1.0000
  C   C1215     1.0  0.82697  0.51830  0.11105  1.0000
  C   C1216     1.0  0.84728  0.52413  0.10064  1.0000
  C   C1217     1.0  0.84760  0.53647  0.08681  1.0000
  H   H1438     1.0  0.66757  0.49988  0.23439  1.0000
  H   H1439     1.0  0.92309  0.59902  0.11439  1.0000
  H   H1440     1.0  0.70042  0.50507  0.12518  1.0000
  H   H1441     1.0  0.86390  0.54186  0.07923  1.0000
  C   C1218     1.0  0.85678  0.57500  0.14182  1.0000
  C   C1219     1.0  0.53308  0.92190  0.10190  1.0000
  H   H1442     1.0  0.96012  0.64392  0.99041  1.0000
  H   H1443     1.0  0.68795  0.51314  0.19524  1.0000
  H   H1444     1.0  0.79115  0.54142  0.09071  1.0000
  H   H1445     1.0  0.92369  0.61100  0.08780  1.0000
  H   H1446     1.0  0.90166  0.60231  0.15567  1.0000
  H   H1447     1.0  0.57882  0.98224  0.08769  1.0000
  C   C1220     1.0  0.68698  0.52954  0.16254  1.0000
  C   C1221     1.0  0.69948  0.71319  0.99078  1.0000
  C   C1222     1.0  0.54259  0.78561  0.03012  1.0000
  C   C1223     1.0  0.53225  0.94491  0.09647  1.0000
  H   H1448     1.0  0.83809  0.51452  0.05742  1.0000
  H   H1449     1.0  0.56594  0.93763  0.07670  1.0000
  H   H1450     1.0  0.50730  0.95868  0.12869  1.0000
  H   H1451     1.0  0.59028  0.83477  0.00992  1.0000
  H   H1452     1.0  0.82689  0.53825  0.23543  1.0000
  C   C1224     1.0  0.53998  0.76467  0.02087  1.0000
  H   H1453     1.0  0.86310  0.51948  0.10341  1.0000
  C   C1225     1.0  0.56970  0.82898  0.05252  1.0000
  C   C1226     1.0  0.56098  0.81177  0.02685  1.0000
  C   C1227     1.0  0.90570  0.59908  0.10969  1.0000
  H   H1454     1.0  0.65060  0.52830  0.16959  1.0000
  S   S330      1.0  0.73349  0.53176  0.15430  1.0000
  N   N80       1.0  0.88275  0.58432  0.13461  1.0000
  H   H1455     1.0  0.53945  0.91025  0.09503  1.0000
  C   C1228     1.0  0.86234  0.60077  0.09632  1.0000
  H   H1456     1.0  0.53265  0.91823  0.07021  1.0000
  C   C1229     1.0  0.52309  0.95813  0.10665  1.0000
  H   H1457     1.0  0.85035  0.59064  0.14246  1.0000
  H   H1458     1.0  0.88779  0.55461  0.14739  1.0000
  C   C1230     1.0  0.90636  0.60619  0.09450  1.0000
  H   H1459     1.0  0.52534  0.74492  0.02329  1.0000
  H   H1460     1.0  0.52204  0.97581  0.10336  1.0000
  N   N81       1.0  0.53990  0.95483  0.08089  1.0000
  C   C1231     1.0  0.53473  0.83097  0.99033  1.0000
  C   C1232     1.0  0.57647  0.81561  0.01371  1.0000
  C   C1233     1.0  0.57384  0.79446  0.00464  1.0000
  H   H1461     1.0  0.73695  0.54156  0.21497  1.0000
  C   C1234     1.0  0.66133  0.51709  0.16782  1.0000
  C   C1235     1.0  0.97914  0.62663  0.01777  1.0000
  C   C1236     1.0  0.90156  0.60717  0.14346  1.0000
  H   H1462     1.0  0.69595  0.55031  0.16018  1.0000
  C   C1237     1.0  0.70120  0.51536  0.16057  1.0000
  H   H1463     1.0  0.57257  0.84555  0.06022  1.0000
  H   H1464     1.0  0.84165  0.55788  0.13559  1.0000
  H   H1465     1.0  0.55386  0.81123  0.05760  1.0000
  H   H1466     1.0  0.55425  0.94646  0.06003  1.0000
  H   H1467     1.0  0.53922  0.85119  0.04450  1.0000
  H   H1468     1.0  0.50830  0.91799  0.13722  1.0000
  H   H1469     1.0  0.58515  0.87554  0.03983  1.0000
  H   H1470     1.0  0.79113  0.52048  0.11534  1.0000
  C   C1238     1.0  0.81118  0.51852  0.23484  1.0000
  C   C1239     1.0  0.51735  0.95549  0.07295  1.0000
  C   C1240     1.0  0.51466  0.94855  0.12118  1.0000
  C   C1241     1.0  0.51536  0.92575  0.12606  1.0000
  H   H1471     1.0  0.67250  0.62799  0.99492  1.0000
  H   H1472     1.0  0.52518  0.89484  0.12036  1.0000
  Fe  Fe163     1.0  0.51094  0.88279  0.04508  1.0000
  H   H1473     1.0  0.50295  0.81513  0.00610  1.0000
  H   H1474     1.0  0.51115  0.96936  0.07827  1.0000
  C   C1242     1.0  0.50606  0.78435  0.99339  1.0000
  C   C1243     1.0  0.94152  0.67655  0.99314  1.0000
  H   H1475     1.0  0.93863  0.69374  0.99669  1.0000
  C   C1244     1.0  0.84769  0.50204  0.05452  1.0000
  C   C1245     1.0  0.73176  0.52279  0.20887  1.0000
  H   H1476     1.0  0.68736  0.52770  0.21304  1.0000
  H   H1477     1.0  0.70612  0.72849  0.99935  1.0000
  H   H1478     1.0  0.58708  0.99656  0.00726  1.0000
  H   H1479     1.0  0.71753  0.65398  0.00446  1.0000
  H   H1480     1.0  0.55617  0.99595  0.08692  1.0000
  H   H1481     1.0  0.50796  0.83833  0.09614  1.0000
  H   H1482     1.0  0.94855  0.67047  0.00347  1.0000
  H   H1483     1.0  0.73591  0.51561  0.10674  1.0000
  N   N82       1.0  0.70587  0.50217  0.21372  1.0000
  H   H1484     1.0  0.55299  0.75290  0.00077  1.0000
  H   H1485     1.0  0.52175  0.81688  0.04120  1.0000
  H   H1486     1.0  0.50020  0.93577  0.07281  1.0000
  S   S331      1.0  0.49812  0.91367  0.04033  1.0000
  H   H1487     1.0  0.86136  0.50374  0.06392  1.0000
  H   H1488     1.0  0.90414  0.63817  0.00894  1.0000
  H   H1489     1.0  0.84992  0.50764  0.99593  1.0000
  H   H1490     1.0  0.89426  0.66273  0.00390  1.0000
  C   C1246     1.0  0.72512  0.65389  0.99292  1.0000
  H   H1491     1.0  0.74365  0.67206  0.99130  1.0000
  C   C1247     1.0  0.89755  0.64633  0.99934  1.0000
  H   H1492     1.0  0.73023  0.63719  0.99274  1.0000
  Fe  Fe164     1.0  0.85394  0.53741  0.44690  1.0000
  S   S332      1.0  0.87593  0.57232  0.46193  1.0000
  C   C1248     1.0  0.50484  0.94686  0.34893  1.0000
  Fe  Fe165     1.0  0.84505  0.56953  0.42201  1.0000
  S   S333      1.0  0.86631  0.60732  0.43516  1.0000
  S   S334      1.0  0.82008  0.56224  0.40074  1.0000
  Fe  Fe166     1.0  0.89646  0.59300  0.44062  1.0000
  S   S335      1.0  0.94049  0.61133  0.43558  1.0000
  Fe  Fe167     1.0  0.84419  0.58384  0.45551  1.0000
  S   S336      1.0  0.82513  0.59784  0.47398  1.0000
  S   S337      1.0  0.87596  0.55671  0.42604  1.0000
  S   S338      1.0  0.82124  0.54748  0.44193  1.0000
  Fe  Fe168     1.0  0.51318  0.91176  0.42808  1.0000
  S   S339      1.0  0.55965  0.94052  0.46289  1.0000
  H   H1493     1.0  0.72975  0.54278  0.46795  1.0000
  S   S340      1.0  0.55528  0.92014  0.42806  1.0000
  H   H1494     1.0  0.73604  0.54813  0.35212  1.0000
  Fe  Fe169     1.0  0.54742  0.90137  0.45127  1.0000
  S   S341      1.0  0.56142  0.87047  0.45709  1.0000
  Fe  Fe170     1.0  0.56326  0.95848  0.43980  1.0000
  C   C1249     1.0  0.73829  0.61595  0.46002  1.0000
  C   C1250     1.0  0.78527  0.63345  0.45814  1.0000
  S   S342      1.0  0.52128  0.95070  0.43847  1.0000
  C   C1251     1.0  0.80231  0.53590  0.37400  1.0000
  H   H1495     1.0  0.95366  0.50861  0.48620  1.0000
  S   S343      1.0  0.83217  0.53198  0.33277  1.0000
  H   H1496     1.0  0.50470  0.73112  0.44879  1.0000
  H   H1497     1.0  0.52149  0.85180  0.48085  1.0000
  C   C1252     1.0  0.50909  0.95405  0.37601  1.0000
  H   H1498     1.0  0.95619  0.65207  0.45947  1.0000
  H   H1499     1.0  0.99281  0.62161  0.42825  1.0000
  C   C1253     1.0  0.81638  0.58988  0.34689  1.0000
  H   H1500     1.0  0.56805  0.98430  0.35818  1.0000
  S   S344      1.0  0.50119  0.87963  0.33868  1.0000
  H   H1501     1.0  0.78902  0.54647  0.32793  1.0000
  C   C1254     1.0  0.97359  0.65231  0.45469  1.0000
  C   C1255     1.0  0.56697  0.83134  0.47267  1.0000
  C   C1256     1.0  0.53650  0.96969  0.37491  1.0000
  H   H1502     1.0  0.53312  0.94349  0.40095  1.0000
  C   C1257     1.0  0.50818  0.78030  0.45366  1.0000
  C   C1258     1.0  0.80135  0.50437  0.24827  1.0000
  H   H1503     1.0  0.78731  0.51725  0.35260  1.0000
  H   H1504     1.0  0.50216  0.84069  0.42013  1.0000
  H   H1505     1.0  0.80823  0.54007  0.47424  1.0000
  C   C1259     1.0  0.51339  0.89416  0.38399  1.0000
  C   C1260     1.0  0.51680  0.89081  0.36848  1.0000
  H   H1506     1.0  0.85283  0.51823  0.39836  1.0000
  C   C1261     1.0  0.75809  0.58452  0.33142  1.0000
  C   C1262     1.0  0.74789  0.54360  0.34383  1.0000
  H   H1507     1.0  0.52959  0.89968  0.39181  1.0000
  H   H1508     1.0  0.53585  0.89437  0.36441  1.0000
  Fe  Fe171     1.0  0.79740  0.50494  0.31809  1.0000
  H   H1509     1.0  0.61294  0.51706  0.48713  1.0000
  C   C1263     1.0  0.54176  0.99313  0.39881  1.0000
  C   C1264     1.0  0.55288  0.84605  0.47149  1.0000
  H   H1510     1.0  0.54037  0.96419  0.33632  1.0000
  H   H1511     1.0  0.85505  0.60803  0.35669  1.0000
  C   C1265     1.0  0.55291  0.95732  0.39695  1.0000
  C   C1266     1.0  0.53168  0.96188  0.34743  1.0000
  C   C1267     1.0  0.97128  0.63448  0.44320  1.0000
  C   C1268     1.0  0.59286  0.50327  0.48483  1.0000
  H   H1512     1.0  0.70140  0.66503  0.47811  1.0000
  H   H1513     1.0  0.49952  0.94914  0.38686  1.0000
  C   C1269     1.0  0.82658  0.60868  0.37209  1.0000
  C   C1270     1.0  0.82455  0.55098  0.38278  1.0000
  C   C1271     1.0  0.84924  0.55852  0.37649  1.0000
  C   C1272     1.0  0.85145  0.55215  0.36126  1.0000
  C   C1273     1.0  0.82906  0.53769  0.35233  1.0000
  C   C1274     1.0  0.80458  0.52894  0.35902  1.0000
  C   C1275     1.0  0.51071  0.74457  0.47785  1.0000
  H   H1514     1.0  0.86658  0.57037  0.38308  1.0000
  H   H1515     1.0  0.87057  0.55895  0.35628  1.0000
  C   C1276     1.0  0.78843  0.65353  0.46814  1.0000
  H   H1516     1.0  0.76176  0.58373  0.36537  1.0000
  C   C1277     1.0  0.74081  0.63625  0.47023  1.0000
  C   C1278     1.0  0.76028  0.61480  0.45404  1.0000
  C   C1279     1.0  0.78472  0.59921  0.49019  1.0000
  C   C1280     1.0  0.77982  0.55900  0.32420  1.0000
  Fe  Fe172     1.0  0.51713  0.93079  0.46077  1.0000
  N   N83       1.0  0.71806  0.63791  0.47704  1.0000
  C   C1281     1.0  0.56199  0.81294  0.48439  1.0000
  H   H1517     1.0  0.87746  0.52637  0.47505  1.0000
  H   H1518     1.0  0.57597  0.58959  0.48261  1.0000
  H   H1519     1.0  0.59703  0.89798  0.48886  1.0000
  H   H1520     1.0  0.77355  0.60272  0.32643  1.0000
  H   H1521     1.0  0.79457  0.57593  0.31787  1.0000
  H   H1522     1.0  0.74845  0.59050  0.34045  1.0000
  H   H1523     1.0  0.82404  0.58537  0.33676  1.0000
  H   H1524     1.0  0.77615  0.55650  0.46142  1.0000
  C   C1282     1.0  0.51190  0.82291  0.40128  1.0000
  H   H1525     1.0  0.74308  0.57433  0.32244  1.0000
  C   C1283     1.0  0.50521  0.81292  0.38655  1.0000
  H   H1526     1.0  0.80796  0.66763  0.47153  1.0000
  H   H1527     1.0  0.51113  0.72641  0.48193  1.0000
  C   C1284     1.0  0.79147  0.58674  0.47844  1.0000
  C   C1285     1.0  0.53284  0.84113  0.48182  1.0000
  C   C1286     1.0  0.74504  0.55853  0.47425  1.0000
  H   H1528     1.0  0.51144  0.75647  0.48797  1.0000
  H   H1529     1.0  0.73385  0.53103  0.33500  1.0000
  N   N84       1.0  0.76929  0.56748  0.33728  1.0000
  C   C1287     1.0  0.83463  0.60309  0.35831  1.0000
  H   H1530     1.0  0.57390  0.80280  0.48550  1.0000
  C   C1288     1.0  0.76661  0.65503  0.47409  1.0000
  C   C1289     1.0  0.50943  0.80390  0.44849  1.0000
  C   C1290     1.0  0.78188  0.58871  0.36301  1.0000
  H   H1531     1.0  0.51763  0.80582  0.38113  1.0000
  H   H1532     1.0  0.76424  0.54740  0.31584  1.0000
  H   H1533     1.0  0.71919  0.66667  0.46107  1.0000
  H   H1534     1.0  0.50725  0.83866  0.35431  1.0000
  H   H1535     1.0  0.56583  0.96383  0.40708  1.0000
  H   H1536     1.0  0.84065  0.61778  0.38116  1.0000
  H   H1537     1.0  0.75575  0.53147  0.34968  1.0000
  C   C1291     1.0  0.77141  0.56624  0.47053  1.0000
  C   C1292     1.0  0.54739  0.97327  0.36017  1.0000
  C   C1293     1.0  0.78928  0.58190  0.34900  1.0000
  C   C1294     1.0  0.80028  0.60160  0.37442  1.0000
  C   C1295     1.0  0.50028  0.81712  0.35339  1.0000
  H   H1538     1.0  0.71961  0.60020  0.45683  1.0000
  H   H1539     1.0  0.85655  0.50337  0.41537  1.0000
  H   H1540     1.0  0.75800  0.59873  0.44664  1.0000
  C   C1296     1.0  0.58027  0.99870  0.38567  1.0000
  H   H1541     1.0  0.78314  0.52991  0.37874  1.0000
  H   H1542     1.0  0.53558  0.54669  0.48514  1.0000
  N   N85       1.0  0.55272  0.97974  0.38875  1.0000
  H   H1543     1.0  0.58243  0.83478  0.46472  1.0000
  S   S345      1.0  0.78304  0.51595  0.29649  1.0000
  H   H1544     1.0  0.52379  0.77571  0.45044  1.0000
  S   S346      1.0  0.70450  0.56082  0.48970  1.0000
  H   H1545     1.0  0.80689  0.50765  0.40396  1.0000
  H   H1546     1.0  0.79212  0.50489  0.47429  1.0000
  C   C1297     1.0  0.69247  0.61718  0.47163  1.0000
  H   H1547     1.0  0.79415  0.60555  0.38531  1.0000
  C   C1298     1.0  0.80930  0.52241  0.47873  1.0000
  H   H1548     1.0  0.52264  0.97945  0.40367  1.0000
  H   H1549     1.0  0.52923  0.82375  0.40675  1.0000
  H   H1550     1.0  0.56006  0.94612  0.38959  1.0000
  H   H1551     1.0  0.77012  0.67072  0.48200  1.0000
  H   H1552     1.0  0.52580  0.81696  0.44170  1.0000
  H   H1553     1.0  0.52910  0.75560  0.47154  1.0000
  S   S347      1.0  0.50472  0.89089  0.45055  1.0000
  H   H1554     1.0  0.80957  0.51314  0.25912  1.0000
  H   H1555     1.0  0.80223  0.63183  0.45393  1.0000
  C   C1299     1.0  0.71878  0.66358  0.47351  1.0000
  H   H1556     1.0  0.69024  0.61803  0.45916  1.0000
  H   H1557     1.0  0.59083  0.98929  0.37962  1.0000
  H   H1558     1.0  0.82672  0.52173  0.47369  1.0000
  C   C1300     1.0  0.73828  0.57108  0.48594  1.0000
  C   C1301     1.0  0.99430  0.63532  0.43711  1.0000
  C   C1302     1.0  0.87010  0.50600  0.47803  1.0000
  H   H1559     1.0  0.51693  0.81309  0.35633  1.0000
  S   S348      1.0  0.71214  0.50845  0.30565  1.0000
  S   S349      1.0  0.49963  0.93990  0.48141  1.0000
  S   S350      1.0  0.59241  0.99829  0.43007  1.0000
  H   H1560     1.0  0.51681  0.89454  0.48677  1.0000
  H   H1561     1.0  0.67582  0.61912  0.47691  1.0000
  H   H1562     1.0  0.68995  0.59729  0.47467  1.0000
  H   H1563     1.0  0.73610  0.68026  0.47855  1.0000
  H   H1564     1.0  0.56318  0.91235  0.49018  1.0000
  H   H1565     1.0  0.69802  0.50592  0.60952  1.0000
  C   C1303     1.0  0.76230  0.50720  0.49817  1.0000
  H   H1566     1.0  0.63124  0.67282  0.49752  1.0000
  C   C1304     1.0  0.52627  0.63001  0.55354  1.0000
  S   S351      1.0  0.63950  0.54520  0.63105  1.0000
  H   H1567     1.0  0.55246  0.64266  0.58195  1.0000
  S   S352      1.0  0.65870  0.53488  0.70671  1.0000
  H   H1568     1.0  0.71925  0.55213  0.63731  1.0000
  S   S353      1.0  0.68322  0.54081  0.66461  1.0000
  H   H1569     1.0  0.73647  0.55042  0.70740  1.0000
  Fe  Fe173     1.0  0.66606  0.56798  0.54159  1.0000
  S   S354      1.0  0.69206  0.60063  0.52600  1.0000
  S   S355      1.0  0.68111  0.55839  0.56351  1.0000
  Fe  Fe174     1.0  0.62326  0.54438  0.51772  1.0000
  S   S356      1.0  0.64600  0.57422  0.50050  1.0000
  C   C1305     1.0  0.52810  0.82303  0.49369  1.0000
  Fe  Fe175     1.0  0.68101  0.56917  0.50812  1.0000
  N   N86       1.0  0.52371  0.89892  0.51092  1.0000
  Fe  Fe176     1.0  0.65492  0.60331  0.51950  1.0000
  S   S357      1.0  0.65018  0.63876  0.51097  1.0000
  S   S358      1.0  0.65694  0.53655  0.52392  1.0000
  S   S359      1.0  0.63015  0.57336  0.53651  1.0000
  Fe  Fe177     1.0  0.55277  0.70681  0.52702  1.0000
  H   H1570     1.0  0.94786  0.51807  0.50490  1.0000
  S   S360      1.0  0.58031  0.69115  0.53686  1.0000
  Fe  Fe178     1.0  0.53543  0.74908  0.51673  1.0000
  C   C1306     1.0  0.53930  0.63142  0.50654  1.0000
  S   S361      1.0  0.53993  0.79065  0.51208  1.0000
  N   N87       1.0  0.81073  0.52332  0.49548  1.0000
  H   H1571     1.0  0.51466  0.72822  0.57694  1.0000
  C   C1307     1.0  0.75963  0.54282  0.62285  1.0000
  S   S362      1.0  0.54316  0.73603  0.53973  1.0000
  S   S363      1.0  0.54911  0.72292  0.50425  1.0000
  H   H1572     1.0  0.72250  0.53060  0.69078  1.0000
  H   H1573     1.0  0.77174  0.56730  0.52250  1.0000
  C   C1308     1.0  0.54065  0.54681  0.49733  1.0000
  C   C1309     1.0  0.53543  0.68848  0.56899  1.0000
  C   C1310     1.0  0.71989  0.56293  0.62718  1.0000
  C   C1311     1.0  0.75834  0.59148  0.49393  1.0000
  C   C1312     1.0  0.71983  0.59169  0.60175  1.0000
  H   H1574     1.0  0.56641  0.85023  0.52800  1.0000
  C   C1313     1.0  0.72891  0.57281  0.60059  1.0000
  C   C1314     1.0  0.66197  0.52791  0.73725  1.0000
  H   H1575     1.0  0.49732  0.66111  0.58750  1.0000
  H   H1576     1.0  0.75145  0.51695  0.59671  1.0000
  H   H1577     1.0  0.75707  0.51962  0.68713  1.0000
  H   H1578     1.0  0.54654  0.63424  0.55458  1.0000
  S   S364      1.0  0.62111  0.50235  0.66783  1.0000
  N   N88       1.0  0.73562  0.51239  0.70806  1.0000
  C   C1315     1.0  0.76919  0.55027  0.51592  1.0000
  C   C1316     1.0  0.55244  0.61597  0.50749  1.0000
  H   H1579     1.0  0.56912  0.66929  0.56883  1.0000
  H   H1580     1.0  0.70921  0.51149  0.62876  1.0000
  H   H1581     1.0  0.78130  0.52540  0.72563  1.0000
  Fe  Fe179     1.0  0.50154  0.70511  0.53876  1.0000
  C   C1317     1.0  0.56381  0.89971  0.49904  1.0000
  H   H1582     1.0  0.70426  0.52376  0.70776  1.0000
  C   C1318     1.0  0.62929  0.65176  0.51805  1.0000
  C   C1319     1.0  0.62338  0.66846  0.50882  1.0000
  C   C1320     1.0  0.60765  0.67991  0.51415  1.0000
  C   C1321     1.0  0.59808  0.67528  0.52894  1.0000
  C   C1322     1.0  0.60387  0.65845  0.53813  1.0000
  C   C1323     1.0  0.61902  0.64647  0.53267  1.0000
  H   H1583     1.0  0.59363  0.60624  0.49934  1.0000
  H   H1584     1.0  0.60366  0.69300  0.50697  1.0000
  H   H1585     1.0  0.59695  0.65494  0.54964  1.0000
  H   H1586     1.0  0.62355  0.63390  0.53998  1.0000
  N   N89       1.0  0.73722  0.53655  0.61240  1.0000
  H   H1587     1.0  0.51736  0.68951  0.56546  1.0000
  C   C1324     1.0  0.71075  0.58177  0.62819  1.0000
  C   C1325     1.0  0.51415  0.62107  0.50048  1.0000
  H   H1588     1.0  0.53262  0.86433  0.53023  1.0000
  C   C1326     1.0  0.64819  0.54619  0.61173  1.0000
  H   H1589     1.0  0.70247  0.60981  0.61615  1.0000
  C   C1327     1.0  0.51488  0.64250  0.56275  1.0000
  C   C1328     1.0  0.66542  0.55175  0.58135  1.0000
  C   C1329     1.0  0.65216  0.56554  0.58658  1.0000
  C   C1330     1.0  0.64367  0.56281  0.60172  1.0000
  H   H1590     1.0  0.51970  0.93476  0.51147  1.0000
  C   C1331     1.0  0.99060  0.50684  0.50597  1.0000
  H   H1591     1.0  0.64941  0.57912  0.57917  1.0000
  H   H1592     1.0  0.63413  0.57414  0.60580  1.0000
  C   C1332     1.0  0.50201  0.59519  0.49542  1.0000
  C   C1333     1.0  0.73909  0.51349  0.72473  1.0000
  H   H1593     1.0  0.75361  0.60133  0.50297  1.0000
  C   C1334     1.0  0.54650  0.87286  0.52125  1.0000
  H   H1594     1.0  0.66370  0.51854  0.61385  1.0000
  H   H1595     1.0  0.54541  0.70393  0.57772  1.0000
  H   H1596     1.0  0.76675  0.52764  0.62239  1.0000
  H   H1597     1.0  0.80982  0.56397  0.51336  1.0000
  C   C1335     1.0  0.74541  0.53292  0.59701  1.0000
  H   H1598     1.0  0.51871  0.73404  0.60491  1.0000
  H   H1599     1.0  0.57290  0.51320  0.70410  1.0000
  H   H1600     1.0  0.51340  0.82042  0.50201  1.0000
  H   H1601     1.0  0.77621  0.56208  0.62007  1.0000
  H   H1602     1.0  0.83929  0.54665  0.51231  1.0000
  N   N90       1.0  0.55545  0.57390  0.50334  1.0000
  H   H1603     1.0  0.72911  0.52745  0.58866  1.0000
  H   H1604     1.0  0.73477  0.56992  0.58944  1.0000
  S   S365      1.0  0.58173  0.51423  0.51355  1.0000
  H   H1605     1.0  0.89015  0.51431  0.49958  1.0000
  C   C1336     1.0  0.53496  0.92791  0.51022  1.0000
  C   C1337     1.0  0.56606  0.86470  0.52021  1.0000
  H   H1606     1.0  0.80004  0.61511  0.49638  1.0000
  C   C1338     1.0  0.71057  0.59600  0.61548  1.0000
  C   C1339     1.0  0.55521  0.66241  0.57847  1.0000
  S   S366      1.0  0.72786  0.50740  0.65891  1.0000
  N   N91       1.0  0.52986  0.66214  0.57455  1.0000
  C   C1340     1.0  0.54481  0.89074  0.51064  1.0000
  C   C1341     1.0  0.58337  0.89158  0.49818  1.0000
  C   C1342     1.0  0.76034  0.52036  0.69961  1.0000
  H   H1607     1.0  0.73651  0.65148  0.49895  1.0000
  Fe  Fe180     1.0  0.50700  0.69283  0.50537  1.0000
  H   H1608     1.0  0.54866  0.65158  0.51054  1.0000
  H   H1609     1.0  0.67929  0.52369  0.58727  1.0000
  C   C1343     1.0  0.66041  0.53156  0.60630  1.0000
  S   S367      1.0  0.51122  0.67546  0.52719  1.0000
  C   C1344     1.0  0.66908  0.53442  0.59122  1.0000
  Fe  Fe181     1.0  0.64886  0.52174  0.64869  1.0000
  H   H1610     1.0  0.54809  0.69371  0.55887  1.0000
  H   H1611     1.0  0.70279  0.58468  0.63873  1.0000
  C   C1345     1.0  0.51174  0.61200  0.54227  1.0000
  C   C1346     1.0  0.65508  0.51567  0.72299  1.0000
  H   H1612     1.0  0.52085  0.60280  0.53536  1.0000
  C   C1347     1.0  0.71738  0.50726  0.73436  1.0000
  H   H1613     1.0  0.54445  0.56341  0.52652  1.0000
  H   H1614     1.0  0.50442  0.55974  0.49210  1.0000
  H   H1615     1.0  0.59893  0.86688  0.50763  1.0000
  H   H1616     1.0  0.57229  0.55936  0.52061  1.0000
  H   H1617     1.0  0.54416  0.93582  0.49913  1.0000
  H   H1618     1.0  0.52252  0.53542  0.50386  1.0000
  C   C1348     1.0  0.72884  0.55751  0.61329  1.0000
  H   H1619     1.0  0.71877  0.60214  0.59175  1.0000
  H   H1620     1.0  0.56535  0.67625  0.58794  1.0000
  H   H1621     1.0  0.75444  0.54378  0.63485  1.0000
  H   H1622     1.0  0.70170  0.63581  0.49922  1.0000
  C   C1349     1.0  0.51500  0.57955  0.49631  1.0000
  C   C1350     1.0  0.50734  0.89040  0.52471  1.0000
  C   C1351     1.0  0.50630  0.88748  0.49763  1.0000
  H   H1623     1.0  0.54994  0.93741  0.51924  1.0000
  C   C1352     1.0  0.72427  0.53002  0.70334  1.0000
  C   C1353     1.0  0.94693  0.50152  0.49784  1.0000
  H   H1624     1.0  0.50409  0.63316  0.49965  1.0000
  H   H1625     1.0  0.71923  0.61666  0.49672  1.0000
  C   C1354     1.0  0.58442  0.87402  0.50870  1.0000
  C   C1355     1.0  0.79101  0.54805  0.51057  1.0000
  C   C1356     1.0  0.51452  0.65714  0.58872  1.0000
  C   C1357     1.0  0.71895  0.63542  0.49369  1.0000
  C   C1358     1.0  0.76364  0.52045  0.73192  1.0000
  C   C1359     1.0  0.54291  0.80910  0.49523  1.0000
  H   H1626     1.0  0.76240  0.55099  0.59305  1.0000
  H   H1627     1.0  0.83875  0.56420  0.49530  1.0000
  H   H1628     1.0  0.77469  0.54087  0.70238  1.0000
  H   H1629     1.0  0.50744  0.63650  0.59244  1.0000
  Fe  Fe182     1.0  0.65615  0.51781  0.68323  1.0000
  H   H1630     1.0  0.55224  0.53564  0.49810  1.0000
  H   H1631     1.0  0.51941  0.89793  0.53516  1.0000
  H   H1632     1.0  0.85295  0.54217  0.49511  1.0000
  H   H1633     1.0  0.66987  0.54899  0.73809  1.0000
  H   H1634     1.0  0.72727  0.53364  0.51602  1.0000
  C   C1360     1.0  0.54082  0.58961  0.50234  1.0000
  C   C1361     1.0  0.56222  0.57200  0.51938  1.0000
  C   C1362     1.0  0.71544  0.51117  0.61693  1.0000
  H   H1635     1.0  0.57578  0.59135  0.52431  1.0000
  C   C1363     1.0  0.78819  0.52630  0.50152  1.0000
  H   H1636     1.0  0.52618  0.67016  0.59817  1.0000
  H   H1637     1.0  0.76933  0.50705  0.70190  1.0000
  C   C1364     1.0  0.83646  0.54508  0.49982  1.0000
  C   C1365     1.0  0.50053  0.71980  0.59994  1.0000
  C   C1366     1.0  0.49833  0.71643  0.58406  1.0000
  Fe  Fe183     1.0  0.68782  0.50451  0.66070  1.0000
  H   H1638     1.0  0.59738  0.51427  0.72507  1.0000
  H   H1639     1.0  0.60221  0.51034  0.69950  1.0000
  H   H1640     1.0  0.99036  0.54268  0.49714  1.0000
  H   H1641     1.0  0.49770  0.86574  0.49760  1.0000
  C   C1367     1.0  0.58001  0.58673  0.49462  1.0000
  H   H1642     1.0  0.57188  0.62486  0.51227  1.0000
  H   H1643     1.0  0.59102  0.57489  0.49472  1.0000
  C   C1368     1.0  0.74408  0.53130  0.51229  1.0000
  H   H1644     1.0  0.69812  0.50173  0.72976  1.0000
  C   C1369     1.0  0.74064  0.50981  0.50343  1.0000
  H   H1645     1.0  0.57636  0.50138  0.68595  1.0000
  C   C1370     1.0  0.58053  0.50084  0.69824  1.0000
  C   C1371     1.0  0.55168  0.78078  0.78624  1.0000
  C   C1372     1.0  0.90751  0.66582  0.97458  1.0000
  H   H1646     1.0  0.96337  0.60540  0.98177  1.0000
  H   H1647     1.0  0.53415  0.71051  0.84117  1.0000
  C   C1373     1.0  0.89967  0.61115  0.97387  1.0000
  H   H1648     1.0  0.68585  0.60931  0.98506  1.0000
  H   H1649     1.0  0.54209  0.52706  0.97586  1.0000
  C   C1374     1.0  0.77101  0.51246  0.79885  1.0000
  H   H1650     1.0  0.55260  0.79575  0.77843  1.0000
  H   H1651     1.0  0.62661  0.52856  0.86753  1.0000
  H   H1652     1.0  0.52454  0.71501  0.78853  1.0000
  H   H1653     1.0  0.79933  0.57784  0.96346  1.0000
  H   H1654     1.0  0.78264  0.52171  0.86499  1.0000
  C   C1375     1.0  0.53705  0.72615  0.83284  1.0000
  H   H1655     1.0  0.80327  0.50522  0.86547  1.0000
  H   H1656     1.0  0.80823  0.52962  0.85159  1.0000
  C   C1376     1.0  0.51917  0.77779  0.98198  1.0000
  S   S368      1.0  0.52095  0.68354  0.96799  1.0000
  Fe  Fe184     1.0  0.52267  0.70656  0.92681  1.0000
  S   S369      1.0  0.55313  0.73057  0.94449  1.0000
  H   H1657     1.0  0.88734  0.65215  0.97086  1.0000
  Fe  Fe185     1.0  0.55269  0.69196  0.95094  1.0000
  S   S370      1.0  0.58459  0.68238  0.96066  1.0000
  Fe  Fe186     1.0  0.51895  0.72010  0.96012  1.0000
  H   H1658     1.0  0.57932  0.54170  0.95838  1.0000
  S   S371      1.0  0.52516  0.66920  0.93214  1.0000
  H   H1659     1.0  0.66065  0.69350  0.95949  1.0000
  Fe  Fe187     1.0  0.68024  0.55801  0.92542  1.0000
  S   S372      1.0  0.69789  0.59635  0.93816  1.0000
  S   S373      1.0  0.69953  0.55311  0.90403  1.0000
  Fe  Fe188     1.0  0.63687  0.53270  0.94838  1.0000
  S   S374      1.0  0.65087  0.56889  0.96284  1.0000
  N   N92       1.0  0.91704  0.65494  0.98706  1.0000
  Fe  Fe189     1.0  0.65653  0.59054  0.94093  1.0000
  S   S375      1.0  0.64588  0.62280  0.93337  1.0000
  Fe  Fe190     1.0  0.69137  0.57195  0.95914  1.0000
  S   S376      1.0  0.71958  0.58410  0.97957  1.0000
  S   S377      1.0  0.63973  0.55401  0.92662  1.0000
  S   S378      1.0  0.67645  0.53388  0.94620  1.0000
  H   H1660     1.0  0.75633  0.57743  0.95885  1.0000
  H   H1661     1.0  0.67626  0.72837  0.97899  1.0000
  H   H1662     1.0  0.56076  0.60098  0.94096  1.0000
  C   C1377     1.0  0.90208  0.58909  0.96897  1.0000
  H   H1663     1.0  0.60410  0.50980  0.75171  1.0000
  H   H1664     1.0  0.73343  0.66663  0.96302  1.0000
  C   C1378     1.0  0.65839  0.51304  0.75049  1.0000
  H   H1665     1.0  0.92045  0.67034  0.96456  1.0000
  C   C1379     1.0  0.52815  0.69412  0.81327  1.0000
  H   H1666     1.0  0.58037  0.71963  0.80931  1.0000
  H   H1667     1.0  0.78502  0.52704  0.75304  1.0000
  C   C1380     1.0  0.79873  0.58204  0.98769  1.0000
  C   C1381     1.0  0.62571  0.63608  0.94098  1.0000
  C   C1382     1.0  0.61934  0.63429  0.95633  1.0000
  C   C1383     1.0  0.60617  0.64806  0.96212  1.0000
  C   C1384     1.0  0.59834  0.66295  0.95257  1.0000
  C   C1385     1.0  0.60344  0.66351  0.93710  1.0000
  C   C1386     1.0  0.61740  0.65050  0.93139  1.0000
  H   H1668     1.0  0.62537  0.62313  0.96386  1.0000
  H   H1669     1.0  0.60235  0.64751  0.97413  1.0000
  H   H1670     1.0  0.59773  0.67504  0.92964  1.0000
  H   H1671     1.0  0.62221  0.65211  0.91951  1.0000
  C   C1387     1.0  0.54597  0.54337  0.96834  1.0000
  C   C1388     1.0  0.76388  0.57928  0.97027  1.0000
  C   C1389     1.0  0.69877  0.67298  0.98035  1.0000
  C   C1390     1.0  0.53991  0.79809  0.97458  1.0000
  H   H1672     1.0  0.95730  0.68343  0.98456  1.0000
  H   H1673     1.0  0.90664  0.68413  0.97807  1.0000
  C   C1391     1.0  0.53249  0.61886  0.95953  1.0000
  H   H1674     1.0  0.67422  0.65886  0.96009  1.0000
  H   H1675     1.0  0.54521  0.62790  0.94967  1.0000
  H   H1676     1.0  0.51377  0.54825  0.97632  1.0000
  C   C1392     1.0  0.68161  0.62646  0.98412  1.0000
  C   C1393     1.0  0.74958  0.58205  0.98234  1.0000
  C   C1394     1.0  0.54772  0.82446  0.97882  1.0000
  C   C1395     1.0  0.56258  0.76844  0.81045  1.0000
  C   C1396     1.0  0.92507  0.58713  0.97170  1.0000
  H   H1677     1.0  0.80645  0.54824  0.79630  1.0000
  C   C1397     1.0  0.78834  0.57955  0.97293  1.0000
  H   H1678     1.0  0.71858  0.54607  0.87545  1.0000
  C   C1398     1.0  0.66119  0.53061  0.85690  1.0000
  C   C1399     1.0  0.64667  0.53226  0.86925  1.0000
  C   C1400     1.0  0.65792  0.53852  0.88384  1.0000
  C   C1401     1.0  0.68398  0.54379  0.88612  1.0000
  C   C1402     1.0  0.69840  0.54199  0.87379  1.0000
  C   C1403     1.0  0.94359  0.62947  0.98422  1.0000
  C   C1404     1.0  0.53783  0.75447  0.78226  1.0000
  H   H1679     1.0  0.64644  0.53907  0.89334  1.0000
  S   S379      1.0  0.50898  0.74398  0.97778  1.0000
  C   C1405     1.0  0.94575  0.60726  0.97931  1.0000
  C   C1406     1.0  0.56701  0.55160  0.95850  1.0000
  C   C1407     1.0  0.53442  0.57715  0.95866  1.0000
  C   C1408     1.0  0.79287  0.51308  0.85794  1.0000
  H   H1680     1.0  0.57190  0.70750  0.82831  1.0000
  C   C1409     1.0  0.54803  0.74138  0.80693  1.0000
  C   C1410     1.0  0.71644  0.64802  0.96629  1.0000
  H   H1681     1.0  0.74650  0.51663  0.76902  1.0000
  H   H1682     1.0  0.61486  0.51772  0.98111  1.0000
  N   N93       1.0  0.65964  0.61054  0.88836  1.0000
  C   C1411     1.0  0.67925  0.60968  0.89911  1.0000
  C   C1412     1.0  0.66112  0.63705  0.88938  1.0000
  C   C1413     1.0  0.63346  0.59109  0.89350  1.0000
  C   C1414     1.0  0.66373  0.60488  0.87250  1.0000
  C   C1415     1.0  0.68538  0.60078  0.86796  1.0000
  C   C1416     1.0  0.64566  0.60330  0.86100  1.0000
  C   C1417     1.0  0.68825  0.59494  0.85292  1.0000
  C   C1418     1.0  0.64856  0.59707  0.84604  1.0000
  C   C1419     1.0  0.66973  0.59274  0.84203  1.0000
  H   H1683     1.0  0.69938  0.62465  0.89644  1.0000
  H   H1684     1.0  0.67555  0.61371  0.91093  1.0000
  H   H1685     1.0  0.67879  0.59004  0.89917  1.0000
  H   H1686     1.0  0.68034  0.65222  0.88536  1.0000
  H   H1687     1.0  0.65858  0.64213  0.90126  1.0000
  H   H1688     1.0  0.64569  0.63878  0.88251  1.0000
  H   H1689     1.0  0.63042  0.59361  0.90571  1.0000
  H   H1690     1.0  0.61730  0.59270  0.88737  1.0000
  H   H1691     1.0  0.63084  0.57076  0.89189  1.0000
  H   H1692     1.0  0.70001  0.60118  0.87585  1.0000
  H   H1693     1.0  0.62892  0.60649  0.86353  1.0000
  H   H1694     1.0  0.70444  0.59108  0.84977  1.0000
  H   H1695     1.0  0.63413  0.59516  0.83751  1.0000
  H   H1696     1.0  0.67154  0.58712  0.83053  1.0000
  H   H1697     1.0  0.69859  0.53452  0.84985  1.0000
  H   H1698     1.0  0.55017  0.79345  0.96576  1.0000
  C   C1420     1.0  0.68705  0.53529  0.85927  1.0000
  Fe  Fe191     1.0  0.70960  0.50530  0.80538  1.0000
  C   C1421     1.0  0.56417  0.78778  0.80027  1.0000
  H   H1699     1.0  0.50807  0.69188  0.81125  1.0000
  H   H1700     1.0  0.58853  0.57882  0.94114  1.0000
  H   H1701     1.0  0.50786  0.67182  0.89167  1.0000
  C   C1422     1.0  0.52981  0.55583  0.96848  1.0000
  C   C1423     1.0  0.50284  0.68261  0.88331  1.0000
  C   C1424     1.0  0.53606  0.73495  0.79235  1.0000
  H   H1702     1.0  0.88092  0.61102  0.97216  1.0000
  S   S380      1.0  0.68186  0.52131  0.79852  1.0000
  C   C1425     1.0  0.50693  0.70813  0.88660  1.0000
  H   H1703     1.0  0.92658  0.56966  0.96825  1.0000
  Fe  Fe192     1.0  0.66303  0.50535  0.82107  1.0000
  H   H1704     1.0  0.52792  0.74906  0.77136  1.0000
  C   C1426     1.0  0.76233  0.50505  0.83768  1.0000
  H   H1705     1.0  0.88565  0.57300  0.96353  1.0000
  H   H1706     1.0  0.77719  0.52214  0.83145  1.0000
  C   C1427     1.0  0.92043  0.63216  0.98155  1.0000
  H   H1707     1.0  0.56406  0.83990  0.97318  1.0000
  N   N94       1.0  0.54630  0.72131  0.81804  1.0000
  C   C1428     1.0  0.68189  0.67382  0.96877  1.0000
  S   S381      1.0  0.75232  0.52935  0.80147  1.0000
  H   H1708     1.0  0.70328  0.50381  0.75727  1.0000
  H   H1709     1.0  0.66339  0.52265  0.76143  1.0000
  H   H1710     1.0  0.51795  0.72660  0.83157  1.0000
  C   C1429     1.0  0.79789  0.52710  0.79696  1.0000
  C   C1430     1.0  0.50052  0.72193  0.87551  1.0000
  N   N95       1.0  0.70557  0.65090  0.98100  1.0000
  H   H1711     1.0  0.50741  0.81526  0.94069  1.0000
  H   H1712     1.0  0.57493  0.80830  0.80333  1.0000
  C   C1431     1.0  0.68271  0.71324  0.97931  1.0000
  S   S382      1.0  0.64664  0.52290  0.83864  1.0000
  C   C1432     1.0  0.57250  0.72268  0.82023  1.0000
  H   H1713     1.0  0.50592  0.58501  0.98145  1.0000
  C   C1433     1.0  0.55607  0.58503  0.94879  1.0000
  H   H1714     1.0  0.83487  0.52620  0.79529  1.0000
  H   H1715     1.0  0.57268  0.77489  0.82116  1.0000
  C   C1434     1.0  0.67398  0.69362  0.96832  1.0000
  H   H1716     1.0  0.58677  0.74197  0.82489  1.0000
  C   C1435     1.0  0.72011  0.50839  0.75012  1.0000
  S   S383      1.0  0.52195  0.72444  0.90379  1.0000
  H   H1717     1.0  0.66665  0.62180  0.97504  1.0000
  C   C1436     1.0  0.57207  0.57241  0.94876  1.0000
  H   H1718     1.0  0.51975  0.62886  0.96034  1.0000
  H   H1719     1.0  0.52614  0.67956  0.82216  1.0000
  H   H1720     1.0  0.70185  0.64217  0.95693  1.0000
  C   C1437     1.0  0.50340  0.58414  0.94310  1.0000
  H   H1721     1.0  0.55084  0.74480  0.83831  1.0000
  H   H1722     1.0  0.53485  0.68810  0.80285  1.0000
  H   H1723     1.0  0.75032  0.51209  0.84437  1.0000
  H   H1724     1.0  0.72314  0.63252  0.96673  1.0000
  C   C1438     1.0  0.74444  0.51559  0.75679  1.0000
  C   C1439     1.0  0.81396  0.51465  0.79639  1.0000
  H   H1725     1.0  0.51723  0.59192  0.93352  1.0000
  N   N96       1.0  0.51705  0.59002  0.95796  1.0000
  H   H1726     1.0  0.50364  0.74169  0.87791  1.0000
  C   C1440     1.0  0.76612  0.52147  0.74772  1.0000
  H   H1727     1.0  0.54514  0.62426  0.96984  1.0000
  H   H1728     1.0  0.80554  0.49991  0.83156  1.0000
  S   S384      1.0  0.83049  0.58376  0.99019  1.0000
