data_image0
_chemical_formula_structural       FeS2FeS2FeCFeS3FeS2FeSFeHFeS3HSCSHFeS2FeS2FeSFeS3C3H2C6H3CFeHC6H4C6H4C7H4C6H5CHC6H2CNC6HCH12S2CH3NHCHCH4CHC2H4CHSH2NC5H4CH2CH11CH2CH2C2HC3HNHCH3CHC4H2N2C3HC2H2C2HCH5CH3CH2C3HCH3CHCN2CH4CH2C2H3C4SHCH8CH5CHCFeSHFeS2FeHFeS3FeS2FeSCFeSFeS4FeCSFeS2FeS2FeSFeS3CH3C6H8C5H3C6H4C6H4C6H5C5H3CH6NC9H14NC5HNH13CFeC2HSC4HSNH2CHCHCH2C2H3C2H3C2HC3H2C2H2C5H3C3HSCH4CH2CH2CNCH3CHC2NHCSHC2HC4HC2H5C3HCHCH2CFeC2SHNCH2NFeS2FeSHFeS2FeS2FeSFeS3FeS2CHC10H4C7H6C7H4CHCHCS2C6H5C2FeC2HNC6HCFeH11SC2HCSH3SHFeC2H2C2NC2HCH2CH3C2HC2HCHNHSCHSH3CFeCH4CHCH7CH2CH2CNCH5C3HCFeH2FeH6C2H2SH4C2H2SCH2C2SH3C2HC4HSCNH3C4H3CH5CHCH3CHCHSC2HC2FeHCHCSCSCSFeSHC2HFeS2FeS2FeSFeS3HCH3C3FeS2H2C3H3C6H4C6H4NFeHCHC6H3CHNC6H4FeH3C2NC2H6CH5CNC5H2C2HCH2C2H2C3SH2FeH6CHCHCHNH3CHSCH2CHCHC2SH2CHC2HCSCH2CH6CFeH2SHC3H3CHC2H2CSHCH2C2H5CHNHCH2C2HC2HCS2NCHFeSCFeS2Fe2S3FeSHFeSCFeSFeS2HSFeS2FeSFeS3C2HSFeS2HCHC2H4C6H4C7H4C6H4S2HNS2H2CH4CHCH7FeNC9H14NC9H14NC3H5CHSCHCH3SCH3CH2C2H2NHC2H2CHC3HCH4C3FeS2FeCHFeSFeS3FeSHFeS2FeSFeS3FeSFeS2FeSFeS3HSC2FeS2C4HCH2C6H5C6H4C6H8CHCH2CHCNHC2NHCH2CHCH2CH9C2H2SH8CHCHNHNCH2C3HC2HC3SH2CH2CHC2HC3HCSC3H2CHCSCHCHC3H4SNH3C2H3FeH3CH2CH2C2HCH8NSFeS2FeS2FeSFeS3FeHSFeS2C5HC6H5C6H8C3HC4SH3CH2C6H5NC3H9C4H4CHNC10SH2CH2CH7SCSC2HCH2C3HFeHNH3C2H3C2H3SCHCHC3H7C3FeH2C2FeCH4CH2NHC2H2C2H4C2FeS2FeS2FeSFeS3HCHCFeCSFeS2HCH2CHSHNCH5SC6H4C6H7C2H3C6HCH3C4H4CH2C3HC3H2CNC9H10FeCNFeHNCFeCH4SCH2CH8CH2CH2NHC2HCHCH2CSHCHCHCSH2NCH2SH8C4HC2S2C2H3CFeH2CHCHC2HCH2NFeSHFeSNFeHSCHSCHSCH3C4H2C2HC2HC2H5C4H2C2HCH4CHC3H2SCFeH2C2HC3H5SC7H2NH2CH4CSCH10CNHC3H3CHCH3CSHSH2CH2Fe2H2C2SCHC2H2C2HC3HSC2HC2HFeSCH3CFeS2C2H2CSFeSCHC2HCH3SHFeH3CH2C2H4SC2HC2H2CHC2H3C4HCH2CHCNHSH2CSCFeH6NHNH3C3HCHCH2CH4S2C2H3NC9H14C4HC4SH2SFeCHCH3SCSC3H3CH2CHC3FeSHFeS2FeSFeS2FeSFeS3CSHS2FeS2FeS2FeSFeS3HNC2HC6H5C2H2C6H5C5H3C6H4FeC6H4CHNHCHCHCHCSHCH2CHCHCHC3H5CHCNHSH4C3H2CHCH3C2FeHC2H2CNCH2CH2CHCSH3C2HNHC5HCH3SH8CHCNC8H10NH4C2H2NC2H5CHC2H2C2H8CH2CH2S2FeSCFeCSHSFeS2FeS2FeSFeS3FeS2FeS2FeSFeS2FeS2CSC3HCHCHCH2C6H4CH2CHC6H6C4H3C7H4C6H6CHCHNC9HCH5CH6SNHC3H2C2H4C4H2SH2CH2C2H2SCH2CH2C2HSHCHCHCH3NC2HCH2FeH4CHC2H2C2H4CHNFeH2CHCH3NC9HCHCH2C2H2NCHC2H2C2H3FeHCHCH9SHCSH5CHC2FeCSHSCSCFe2HSHCSCFeS2FeS2FeSFeS3FeS2FeSFeSFeHS2C2FeS2C2HCHCFeHSC6H4C2HC7H5C5H3C6H4C6H5SC2H3NHC8H12C2H7NCH3CHNHC3SNC2HSCH2CH2CH2NH3C2HCH2FeCHCHNCHCHCH8CH3CHCHCHCHC4HSC2HCH3SCHCHC2H4CHCH3C2H3CHCHCH2CH3NCHFeHCHCH2CFeSHSFeS2FeS2FeS2FeSFeS3C2FeS2FeSFeHS2HCFeS2HCNH5C7H4C3HC6H5C5H3C6H4C6H6NC2H2C2H5C2HFeSH2CHC2H2CHCNCHCHCHSHCH4SHC3FeCH2CH2C3HC2H3SCH3CH4C2HC3SC2H5C2H2C2H2C7HCH3NC4HC2HCH4CH4N2H2C2H2NC2FeH8C2H3CH4CH2CNHCHC2H3CH3SH2CH2FeSHCHSCFeSHFeS2H5FeCHCH2C2SH4SHC2H7C4HCHCHCHC6H7CH2SCH2CH6CH4C3HCNCNH2CH2CHC2HNC10FeHCSCHSH4C4HC2H2C3HCFeCH2SCS2FeSH3S2FeSCHSH2SC2FeHFeH2SHC2HSHC2H3SHC2H4C2HC7H3SH5CHCHCH3CNCHC3HC2H6CH3NH3CHC2HCHC2NC3HCH2C3HCH3FeC2H2SCHCH3CFeH2SHNHC2FeS2FeS2FeSFeS3CHSC2FeHFeS2HC3HCHSCH4C6H4C6H4CH4C7H4C5H3C2FeHSH2CH6CHC2HCH3NC9H12NC3H2CSHC2HC2H2FeSHC2SH2CHC4H2CHCH3SHCHCHNH2C2HSHC2HC2H3CSFeS2FeS2FeSFeS3FeH2SFeS2H3CH4C8H4C8H4FeCHC6H4C6H6CHNC7H13CHFeC2SC2HSCHCH6C2H3NCFeCHCHC2HSH4C3HCHCHSH2CHCH2CHCNH3C6HC2H3C3H2FeH2CH2CHCNCS2HSHCHFeS2FeSFeSFeHS2FeS2FeS2FeCFeS3FeSFeS2FeSFeHS2H2SHFeS2CHCH2C6H4FeH2C6H5SNCH2C6H4CH2C2H2NC9H14SHCHCH3C2SH3CH2CHC2HCH2CH3CHSNH3C2HC2H3SH3CH2CHCH2C5HCHCHCS2HNCH7C4H2CH2CH2NFeSHFeSHFeSFeS2FeS2FeSCFeSFeS3FeS2HSHCFeS2FeS2FeSHS2C3HC6H6CHC7H6C7H4CHCH2CHSNCH2C3SCHCHC2HCH3NHCHCNC9H15CH3CSHCHFeNHCSHCH5C2HNHCHCHCHCHC2H2C2H4SH2CHCHC2H3CHCHC4HCH2CSHFeSHFeSCH4S2FeS2FeS2FeSFeS3FeS2HNC2H2SHCHC2HC8H4C6H4C4FeC5H3C6H6FeCHCH2CH3SH2CSC3SC2NCHCH2CHCHC3H4CHSH2C3NC9H14CHCHC2SHCFeCH3CHCH2CH5FeCHCHC2HC2HCH2FeH2CSCH3NSCHSHCHCH4CH3CNH2SHFeH3NCHCHFeS2CHFeSFeS2FeS2FeSFeS3CFeS2H4C6H5C6H6C6H3C6H4C4HC2HCH2C2NHNSCHCHC3SH3C2H3SHSH4CH2FeH2C2HCNCH2NC7HCH4SHFeH3CHCH2CHCH6C2H2CHC2HC2H2C2H2CH3C5H2NCH7C2HCH2SC2S2C2H2CHCH2NCH3FeHCHCHCH2C2H3FeSFeS2FeSHFeSFeS3FeS2FeSFeSFeS3CH2SHCHNFeS2FeS2FeSFeS3CH2C7H4C6HCHCHC6H4C2HC8H4C6H7CH4CNH3CH2CH4CHCHC3HC2HC2H4CH3NH2CH4C3HSHCH2CHC2HCH2CH2CH2C3HCH2SC3HC2H2C3HNCHC2HNCH2C4HCNH2CHCHCHCH3CH2FeH3C2HC2HCH4CH2CHCH5CH2C2HC2SH4CFeS2FeSHFeSFeS3FeS2FeSFeSFeCS2CNH2C2FeSFeS2FeS2FeSFeS3H3C6H4C2HCH2C6H6CH2C6H4C2HCH2C6H4C6H4CHC2H3CHC2HCH3CHC2HCH2SHC9H3C3H5CH2NCNC3H2CNCH6CH3C2NH2CH2CH3NH4CH2CH2CH2C3HC2HC3H3CHCHSHSNH3CHCH5C3H2CH2CHCHCH2NHCHCHCHC2HCH5CHC3H4C2SCH5CH2CHC2FeH2CHCHS
_chemical_formula_sum              "Fe272 S544 C2040 H2448 N136"
_cell_length_a       61.5268
_cell_length_b       61.1235
_cell_length_c       94.1228
_cell_angle_alpha    91.6374
_cell_angle_beta     91.2902
_cell_angle_gamma    118.01

_space_group_name_H-M_alt    "P 1"
_space_group_IT_number       1

loop_
  _space_group_symop_operation_xyz
  'x, y, z'

loop_
  _atom_site_type_symbol
  _atom_site_label
  _atom_site_symmetry_multiplicity
  _atom_site_fract_x
  _atom_site_fract_y
  _atom_site_fract_z
  _atom_site_occupancy
  Fe  Fe1       1.0  0.27681  0.32417  0.03989  1.0000
  S   S1        1.0  0.29061  0.31509  0.06012  1.0000
  S   S2        1.0  0.30204  0.33184  0.02098  1.0000
  Fe  Fe2       1.0  0.23211  0.32363  0.05488  1.0000
  S   S3        1.0  0.24304  0.31400  0.07587  1.0000
  S   S4        1.0  0.20178  0.33516  0.05173  1.0000
  Fe  Fe3       1.0  0.28184  0.34301  0.07128  1.0000
  C   C1        1.0  0.02917  0.22254  0.05992  1.0000
  Fe  Fe4       1.0  0.25109  0.28708  0.06304  1.0000
  S   S5        1.0  0.23906  0.24582  0.06577  1.0000
  S   S6        1.0  0.27065  0.35396  0.05099  1.0000
  S   S7        1.0  0.23762  0.29487  0.04213  1.0000
  Fe  Fe5       1.0  0.05807  0.30230  0.06268  1.0000
  S   S8        1.0  0.06120  0.33739  0.05389  1.0000
  S   S9        1.0  0.08738  0.28934  0.06620  1.0000
  Fe  Fe6       1.0  0.00251  0.28194  0.06775  1.0000
  S   S10       1.0  0.00204  0.31615  0.05942  1.0000
  Fe  Fe7       1.0  0.02500  0.31316  0.04180  1.0000
  H   H1        1.0  0.04001  0.43462  0.15755  1.0000
  Fe  Fe8       1.0  0.03803  0.33827  0.07196  1.0000
  S   S11       1.0  0.05288  0.37426  0.08609  1.0000
  S   S12       1.0  0.02353  0.27793  0.04936  1.0000
  S   S13       1.0  0.03681  0.30421  0.08156  1.0000
  H   H2        1.0  0.99998  0.01171  0.21692  1.0000
  S   S14       1.0  0.03631  0.46919  0.09852  1.0000
  C   C2        1.0  0.30832  0.09471  0.15954  1.0000
  S   S15       1.0  0.06750  0.01734  0.17060  1.0000
  H   H3        1.0  0.26453  0.07554  0.12490  1.0000
  Fe  Fe9       1.0  0.23662  0.09682  0.11225  1.0000
  S   S16       1.0  0.21667  0.07596  0.13112  1.0000
  S   S17       1.0  0.25438  0.08344  0.09543  1.0000
  Fe  Fe10      1.0  0.23093  0.14306  0.12069  1.0000
  S   S18       1.0  0.21030  0.12499  0.14017  1.0000
  S   S19       1.0  0.24140  0.18420  0.11919  1.0000
  Fe  Fe11      1.0  0.23904  0.11243  0.14351  1.0000
  S   S20       1.0  0.25548  0.11439  0.16581  1.0000
  Fe  Fe12      1.0  0.18975  0.09032  0.12625  1.0000
  S   S21       1.0  0.14803  0.06587  0.12352  1.0000
  S   S22       1.0  0.26079  0.13230  0.12498  1.0000
  S   S23       1.0  0.20850  0.10924  0.10642  1.0000
  C   C3        1.0  0.28596  0.13339  0.17294  1.0000
  C   C4        1.0  0.29061  0.13385  0.18768  1.0000
  C   C5        1.0  0.06645  0.46373  0.06074  1.0000
  H   H4        1.0  0.27561  0.12297  0.19442  1.0000
  H   H5        1.0  0.27104  0.22097  0.14600  1.0000
  C   C6        1.0  0.08957  0.02999  0.15725  1.0000
  C   C7        1.0  0.11471  0.04353  0.16140  1.0000
  C   C8        1.0  0.13287  0.05434  0.15124  1.0000
  C   C9        1.0  0.12606  0.05177  0.13676  1.0000
  C   C10       1.0  0.10092  0.03814  0.13260  1.0000
  C   C11       1.0  0.08276  0.02729  0.14277  1.0000
  H   H6        1.0  0.12019  0.04569  0.17257  1.0000
  H   H7        1.0  0.15210  0.06475  0.15461  1.0000
  H   H8        1.0  0.09546  0.03608  0.12144  1.0000
  C   C12       1.0  0.00618  0.31511  0.99040  1.0000
  Fe  Fe13      1.0  0.02545  0.99698  0.16814  1.0000
  H   H9        1.0  0.24566  0.20167  0.02902  1.0000
  C   C13       1.0  0.24641  0.18308  0.16132  1.0000
  C   C14       1.0  0.18171  0.40280  0.09192  1.0000
  C   C15       1.0  0.23894  0.03458  0.10253  1.0000
  C   C16       1.0  0.25093  0.05306  0.09285  1.0000
  C   C17       1.0  0.26082  0.04746  0.08079  1.0000
  C   C18       1.0  0.25857  0.02360  0.07833  1.0000
  H   H10       1.0  0.19987  0.36643  0.07354  1.0000
  H   H11       1.0  0.23093  0.03845  0.11175  1.0000
  H   H12       1.0  0.27015  0.06162  0.07324  1.0000
  H   H13       1.0  0.26607  0.01949  0.06894  1.0000
  C   C19       1.0  0.04690  0.39974  0.08990  1.0000
  C   C20       1.0  0.06287  0.41885  0.09963  1.0000
  C   C21       1.0  0.05975  0.44000  0.10257  1.0000
  C   C22       1.0  0.04057  0.44241  0.09577  1.0000
  C   C23       1.0  0.02431  0.42310  0.08625  1.0000
  C   C24       1.0  0.02738  0.40189  0.08335  1.0000
  H   H14       1.0  0.07804  0.41744  0.10478  1.0000
  H   H15       1.0  0.07248  0.45463  0.10989  1.0000
  H   H16       1.0  0.00938  0.42468  0.08091  1.0000
  H   H17       1.0  0.01478  0.38737  0.07595  1.0000
  C   C25       1.0  0.23709  0.01088  0.10020  1.0000
  C   C26       1.0  0.16993  0.32184  0.05581  1.0000
  C   C27       1.0  0.15658  0.33447  0.05214  1.0000
  C   C28       1.0  0.13144  0.32495  0.05525  1.0000
  C   C29       1.0  0.11922  0.30256  0.06210  1.0000
  C   C30       1.0  0.13261  0.29002  0.06586  1.0000
  C   C31       1.0  0.15777  0.29956  0.06277  1.0000
  H   H18       1.0  0.16571  0.35171  0.04675  1.0000
  H   H19       1.0  0.12149  0.33484  0.05224  1.0000
  H   H20       1.0  0.12346  0.27271  0.07117  1.0000
  H   H21       1.0  0.16769  0.28961  0.06571  1.0000
  C   C32       1.0  0.24017  0.22923  0.08079  1.0000
  C   C33       1.0  0.24878  0.24074  0.09429  1.0000
  C   C34       1.0  0.24905  0.22667  0.10587  1.0000
  C   C35       1.0  0.24083  0.20097  0.10413  1.0000
  C   C36       1.0  0.23236  0.18949  0.09062  1.0000
  C   C37       1.0  0.23201  0.20354  0.07905  1.0000
  H   H22       1.0  0.25508  0.26044  0.09581  1.0000
  H   H23       1.0  0.25561  0.23578  0.11626  1.0000
  H   H24       1.0  0.22595  0.16977  0.08909  1.0000
  H   H25       1.0  0.22524  0.19440  0.06868  1.0000
  H   H26       1.0  0.28876  0.08560  0.16121  1.0000
  C   C38       1.0  0.17319  0.03505  0.09594  1.0000
  H   H27       1.0  0.02437  0.18427  0.09454  1.0000
  C   C39       1.0  0.28057  0.26404  0.03335  1.0000
  C   C40       1.0  0.27306  0.29906  0.99869  1.0000
  C   C41       1.0  0.29650  0.31707  0.00363  1.0000
  C   C42       1.0  0.99451  0.49061  0.19708  1.0000
  C   C43       1.0  0.09381  0.08888  0.14639  1.0000
  C   C44       1.0  0.30022  0.25312  0.99174  1.0000
  H   H28       1.0  0.07699  0.38989  0.04367  1.0000
  H   H29       1.0  0.23755  0.20396  0.00485  1.0000
  C   C45       1.0  0.05198  0.45836  0.04824  1.0000
  N   N1        1.0  0.24609  0.39285  0.08620  1.0000
  C   C46       1.0  0.23999  0.36701  0.08941  1.0000
  C   C47       1.0  0.25324  0.39703  0.07118  1.0000
  C   C48       1.0  0.26797  0.40965  0.09537  1.0000
  C   C49       1.0  0.22431  0.39671  0.08829  1.0000
  C   C50       1.0  0.30560  0.14743  0.16436  1.0000
  C   C51       1.0  0.22484  0.41583  0.09751  1.0000
  H   H30       1.0  0.02630  0.46406  0.12799  1.0000
  C   C52       1.0  0.28105  0.18281  0.15044  1.0000
  H   H31       1.0  0.20342  0.05794  0.08322  1.0000
  H   H32       1.0  0.22592  0.35310  0.08174  1.0000
  H   H33       1.0  0.25643  0.36394  0.08885  1.0000
  H   H34       1.0  0.23280  0.36244  0.10026  1.0000
  H   H35       1.0  0.23858  0.38350  0.06363  1.0000
  H   H36       1.0  0.27003  0.39500  0.06930  1.0000
  H   H37       1.0  0.25711  0.41593  0.06813  1.0000
  H   H38       1.0  0.26393  0.40729  0.10685  1.0000
  H   H39       1.0  0.28370  0.40568  0.09381  1.0000
  H   H40       1.0  0.27482  0.42944  0.09286  1.0000
  H   H41       1.0  0.05679  0.07903  0.16573  1.0000
  H   H42       1.0  0.24129  0.42882  0.10349  1.0000
  S   S24       1.0  0.02260  0.32319  0.01862  1.0000
  S   S25       1.0  0.00615  0.01274  0.18181  1.0000
  C   C53       1.0  0.04594  0.06391  0.15764  1.0000
  H   H43       1.0  0.06356  0.01673  0.13940  1.0000
  H   H44       1.0  0.05248  0.04976  0.15798  1.0000
  H   H45       1.0  0.06225  0.37374  0.02748  1.0000
  N   N2        1.0  0.30246  0.09114  0.13248  1.0000
  H   H46       1.0  0.01071  0.24415  0.07734  1.0000
  C   C54       1.0  0.07740  0.09515  0.12413  1.0000
  H   H47       1.0  0.07070  0.48030  0.06724  1.0000
  C   C55       1.0  0.10111  0.10627  0.11886  1.0000
  H   H48       1.0  0.13306  0.10188  0.14746  1.0000
  H   H49       1.0  0.02505  0.24162  0.09355  1.0000
  H   H50       1.0  0.04927  0.10788  0.15050  1.0000
  H   H51       1.0  0.16352  0.37165  0.07697  1.0000
  C   C56       1.0  0.30621  0.07222  0.12424  1.0000
  H   H52       1.0  0.99432  0.45265  0.13053  1.0000
  C   C57       1.0  0.25515  0.21806  0.00154  1.0000
  C   C58       1.0  0.23881  0.24103  0.02443  1.0000
  H   H53       1.0  0.07428  0.41268  0.06156  1.0000
  H   H54       1.0  0.22368  0.22331  0.01990  1.0000
  H   H55       1.0  0.00462  0.40123  0.14269  1.0000
  H   H56       1.0  0.06251  0.09362  0.11717  1.0000
  C   C59       1.0  0.26175  0.21572  0.98767  1.0000
  H   H57       1.0  0.10406  0.11272  0.10812  1.0000
  S   S26       1.0  0.30698  0.36980  0.08931  1.0000
  H   H58       1.0  0.04552  0.46644  0.15682  1.0000
  H   H59       1.0  0.23773  0.18267  0.15070  1.0000
  N   N3        1.0  0.04586  0.39505  0.03674  1.0000
  C   C60       1.0  0.28614  0.19760  0.17500  1.0000
  C   C61       1.0  0.02913  0.37500  0.04573  1.0000
  C   C62       1.0  0.05365  0.41921  0.04444  1.0000
  C   C63       1.0  0.04565  0.43648  0.04013  1.0000
  C   C64       1.0  0.07488  0.44740  0.06511  1.0000
  H   H60       1.0  0.27737  0.23281  0.16421  1.0000
  H   H61       1.0  0.25498  0.22126  0.04479  1.0000
  H   H62       1.0  0.05380  0.22381  0.09265  1.0000
  H   H63       1.0  0.04627  0.23897  0.05670  1.0000
  C   C65       1.0  0.31223  0.21101  0.17669  1.0000
  H   H64       1.0  0.09238  0.08198  0.15695  1.0000
  H   H65       1.0  0.02206  0.35649  0.04017  1.0000
  C   C66       1.0  0.27574  0.08039  0.13506  1.0000
  H   H66       1.0  0.23289  0.24385  0.03513  1.0000
  H   H67       1.0  0.23932  0.16330  0.16400  1.0000
  H   H68       1.0  0.28299  0.28082  0.02779  1.0000
  H   H69       1.0  0.03899  0.03861  0.13248  1.0000
  H   H70       1.0  0.27390  0.16312  0.15316  1.0000
  H   H71       1.0  0.01849  0.08266  0.14776  1.0000
  H   H72       1.0  0.13937  0.11665  0.12307  1.0000
  H   H73       1.0  0.02968  0.05763  0.12253  1.0000
  H   H74       1.0  0.27779  0.21863  0.03431  1.0000
  H   H75       1.0  0.03589  0.09762  0.13284  1.0000
  H   H76       1.0  0.27526  0.17663  0.20896  1.0000
  C   C67       1.0  0.03742  0.09121  0.14356  1.0000
  H   H77       1.0  0.25333  0.17388  0.18674  1.0000
  H   H78       1.0  0.31704  0.41036  0.06999  1.0000
  C   C68       1.0  0.00616  0.19805  0.07958  1.0000
  H   H79       1.0  0.27352  0.18282  0.13961  1.0000
  H   H80       1.0  0.05118  0.45163  0.14184  1.0000
  C   C69       1.0  0.00215  0.43924  0.17138  1.0000
  C   C70       1.0  0.26021  0.21967  0.03368  1.0000
  H   H81       1.0  0.01636  0.47575  0.14290  1.0000
  C   C71       1.0  0.06280  0.00370  0.23423  1.0000
  C   C72       1.0  0.19008  0.03909  0.08544  1.0000
  C   C73       1.0  0.18066  0.38406  0.08273  1.0000
  H   H82       1.0  0.01243  0.04189  0.13725  1.0000
  N   N4        1.0  0.27375  0.19623  0.16106  1.0000
  H   H83       1.0  0.08134  0.40687  0.02778  1.0000
  C   C74       1.0  0.20161  0.38111  0.08087  1.0000
  H   H84       1.0  0.05987  0.00137  0.22276  1.0000
  H   H85       1.0  0.03843  0.37439  0.05587  1.0000
  H   H86       1.0  0.02782  0.37428  0.01719  1.0000
  C   C75       1.0  0.24672  0.00517  0.08805  1.0000
  H   H87       1.0  0.08565  0.45133  0.07502  1.0000
  C   C76       1.0  0.27072  0.23850  0.01084  1.0000
  C   C77       1.0  0.99483  0.43434  0.15669  1.0000
  C   C78       1.0  0.12108  0.10871  0.12729  1.0000
  C   C79       1.0  0.03154  0.05203  0.13341  1.0000
  H   H88       1.0  0.29889  0.26488  0.03507  1.0000
  H   H89       1.0  0.05376  0.20592  0.07686  1.0000
  N   N5        1.0  0.04752  0.07345  0.14316  1.0000
  N   N6        1.0  0.02822  0.22081  0.07563  1.0000
  C   C80       1.0  0.05187  0.22225  0.08083  1.0000
  C   C81       1.0  0.00148  0.30586  0.00417  1.0000
  C   C82       1.0  0.02679  0.24261  0.08182  1.0000
  H   H90       1.0  0.30134  0.19104  0.14969  1.0000
  C   C83       1.0  0.00557  0.41660  0.13622  1.0000
  C   C84       1.0  0.00725  0.18156  0.08961  1.0000
  H   H91       1.0  0.29433  0.06586  0.11427  1.0000
  H   H92       1.0  0.27159  0.09375  0.14118  1.0000
  C   C85       1.0  0.99283  0.00172  0.22647  1.0000
  C   C86       1.0  0.19028  0.01905  0.07798  1.0000
  H   H93       1.0  0.06806  0.23909  0.07711  1.0000
  C   C87       1.0  0.31107  0.20007  0.20127  1.0000
  H   H94       1.0  0.29662  0.10832  0.11402  1.0000
  H   H95       1.0  0.20451  0.43335  0.10637  1.0000
  H   H96       1.0  0.01376  0.22494  0.05519  1.0000
  H   H97       1.0  0.02271  0.33221  0.98874  1.0000
  H   H98       1.0  0.30254  0.14677  0.15297  1.0000
  C   C88       1.0  0.11747  0.10036  0.14107  1.0000
  H   H99       1.0  0.99096  0.43963  0.19292  1.0000
  H   H100      1.0  0.99456  0.48845  0.20845  1.0000
  H   H101      1.0  0.02864  0.20569  0.05475  1.0000
  C   C89       1.0  0.30917  0.11296  0.12363  1.0000
  H   H102      1.0  0.25751  0.29420  0.00534  1.0000
  H   H103      1.0  0.02113  0.44691  0.17512  1.0000
  C   C90       1.0  0.29366  0.25592  0.00555  1.0000
  C   C91       1.0  0.15635  0.01093  0.09906  1.0000
  C   C92       1.0  0.03257  0.39235  0.02288  1.0000
  H   H104      1.0  0.23982  0.25617  0.01774  1.0000
  C   C93       1.0  0.06842  0.42535  0.05721  1.0000
  H   H105      1.0  0.01291  0.37743  0.04857  1.0000
  H   H106      1.0  0.03409  0.43332  0.03070  1.0000
  H   H107      1.0  0.01470  0.39242  0.02428  1.0000
  C   C94       1.0  0.20376  0.41870  0.09927  1.0000
  H   H108      1.0  0.01906  0.41980  0.12776  1.0000
  C   C95       1.0  0.07294  0.08578  0.13801  1.0000
  N   N7        1.0  0.01259  0.43940  0.14528  1.0000
  N   N8        1.0  0.26290  0.24094  0.02532  1.0000
  C   C96       1.0  0.06758  0.39137  0.03382  1.0000
  H   H109      1.0  0.27406  0.26545  0.04410  1.0000
  H   H110      1.0  0.26885  0.06293  0.14088  1.0000
  H   H111      1.0  0.02665  0.05467  0.16119  1.0000
  H   H112      1.0  0.17321  0.05065  0.10175  1.0000
  C   C97       1.0  0.03839  0.44835  0.15069  1.0000
  H   H113      1.0  0.14335  0.00802  0.10733  1.0000
  H   H114      1.0  0.04349  0.26019  0.07970  1.0000
  C   C98       1.0  0.28118  0.22154  0.15612  1.0000
  C   C99       1.0  0.27308  0.18520  0.18706  1.0000
  H   H115      1.0  0.16539  0.40501  0.09333  1.0000
  H   H116      1.0  0.23955  0.19227  0.16906  1.0000
  H   H117      1.0  0.20432  0.02366  0.07025  1.0000
  C   C100      1.0  0.31815  0.09877  0.14574  1.0000
  C   C101      1.0  0.01233  0.45877  0.13629  1.0000
  C   C102      1.0  0.28548  0.18660  0.19998  1.0000
  C   C103      1.0  0.31638  0.32355  0.99459  1.0000
  S   S27       1.0  0.00150  0.99215  0.14870  1.0000
  H   H118      1.0  0.10167  0.02782  0.23339  1.0000
  C   C104      1.0  0.31451  0.14836  0.19382  1.0000
  H   H119      1.0  0.30158  0.05557  0.13056  1.0000
  H   H120      1.0  0.31775  0.14862  0.20518  1.0000
  H   H121      1.0  0.31581  0.10119  0.18218  1.0000
  H   H122      1.0  0.30658  0.27235  0.01164  1.0000
  H   H123      1.0  0.22784  0.99675  0.10778  1.0000
  H   H124      1.0  0.04401  0.40722  0.01567  1.0000
  H   H125      1.0  0.98635  0.24352  0.10038  1.0000
  H   H126      1.0  0.04527  0.47105  0.04497  1.0000
  C   C105      1.0  0.17318  0.99415  0.08079  1.0000
  H   H127      1.0  0.30103  0.23168  0.15379  1.0000
  H   H128      1.0  0.30817  0.12828  0.12977  1.0000
  H   H129      1.0  0.31180  0.11099  0.98748  1.0000
  H   H130      1.0  0.98690  0.14908  0.10172  1.0000
  H   H131      1.0  0.98744  0.40999  0.13052  1.0000
  C   C106      1.0  0.30150  0.99181  0.99729  1.0000
  H   H132      1.0  0.31736  0.26708  0.98770  1.0000
  C   C107      1.0  0.98581  0.16117  0.09384  1.0000
  Fe  Fe14      1.0  0.01966  0.32083  0.43941  1.0000
  S   S28       1.0  0.01750  0.28547  0.42996  1.0000
  H   H133      1.0  0.29571  0.23061  0.32856  1.0000
  Fe  Fe15      1.0  0.04289  0.35043  0.41270  1.0000
  S   S29       1.0  0.04232  0.31703  0.40145  1.0000
  S   S30       1.0  0.06298  0.38924  0.40334  1.0000
  Fe  Fe16      1.0  0.00420  0.29477  0.40963  1.0000
  H   H134      1.0  0.05067  0.38316  0.45084  1.0000
  Fe  Fe17      1.0  0.05601  0.30980  0.42228  1.0000
  S   S31       1.0  0.08342  0.29397  0.42254  1.0000
  S   S32       1.0  0.00384  0.32873  0.41947  1.0000
  S   S33       1.0  0.05902  0.34442  0.43315  1.0000
  Fe  Fe18      1.0  0.26937  0.32110  0.43605  1.0000
  S   S34       1.0  0.23041  0.29471  0.42805  1.0000
  S   S35       1.0  0.28402  0.32610  0.45940  1.0000
  Fe  Fe19      1.0  0.28308  0.34994  0.40807  1.0000
  S   S36       1.0  0.24498  0.32518  0.39871  1.0000
  C   C108      1.0  0.29154  0.01357  0.36199  1.0000
  Fe  Fe20      1.0  0.22962  0.32848  0.41954  1.0000
  S   S37       1.0  0.20120  0.34293  0.42061  1.0000
  Fe  Fe21      1.0  0.24844  0.29306  0.40753  1.0000
  S   S38       1.0  0.23542  0.26165  0.39034  1.0000
  S   S39       1.0  0.26758  0.35516  0.42855  1.0000
  S   S40       1.0  0.28753  0.31753  0.41592  1.0000
  S   S41       1.0  0.04224  0.47419  0.37708  1.0000
  Fe  Fe22      1.0  0.01836  0.99619  0.31708  1.0000
  C   C109      1.0  0.03484  0.45985  0.42265  1.0000
  S   S42       1.0  0.00914  0.02495  0.30893  1.0000
  Fe  Fe23      1.0  0.23526  0.13531  0.36287  1.0000
  S   S43       1.0  0.22820  0.14160  0.34030  1.0000
  S   S44       1.0  0.24334  0.16152  0.38237  1.0000
  Fe  Fe24      1.0  0.23516  0.08567  0.35469  1.0000
  S   S45       1.0  0.22789  0.08871  0.33128  1.0000
  S   S46       1.0  0.25065  0.06127  0.36387  1.0000
  Fe  Fe25      1.0  0.25595  0.12917  0.33407  1.0000
  S   S47       1.0  0.29187  0.15325  0.32297  1.0000
  Fe  Fe26      1.0  0.20034  0.10076  0.33925  1.0000
  S   S48       1.0  0.16341  0.09465  0.32937  1.0000
  S   S49       1.0  0.26456  0.12534  0.35689  1.0000
  S   S50       1.0  0.20607  0.09529  0.36241  1.0000
  C   C110      1.0  0.28253  0.14610  0.29357  1.0000
  H   H135      1.0  0.22952  0.30072  0.47513  1.0000
  H   H136      1.0  0.27637  0.14075  0.27076  1.0000
  H   H137      1.0  0.26325  0.13531  0.29579  1.0000
  C   C111      1.0  0.08536  0.02755  0.32681  1.0000
  C   C112      1.0  0.08929  0.05107  0.32304  1.0000
  C   C113      1.0  0.11330  0.07131  0.32387  1.0000
  C   C114      1.0  0.13362  0.06841  0.32862  1.0000
  C   C115      1.0  0.12968  0.04494  0.33248  1.0000
  C   C116      1.0  0.10569  0.02466  0.33155  1.0000
  H   H138      1.0  0.07385  0.05370  0.31953  1.0000
  H   H139      1.0  0.11614  0.08939  0.32087  1.0000
  H   H140      1.0  0.14512  0.04239  0.33611  1.0000
  H   H141      1.0  0.28127  0.09673  0.31237  1.0000
  H   H142      1.0  0.10661  0.04789  0.28173  1.0000
  H   H143      1.0  0.25859  0.00294  0.39574  1.0000
  H   H144      1.0  0.99441  0.06657  0.31002  1.0000
  H   H145      1.0  0.06016  0.02568  0.29757  1.0000
  C   C117      1.0  0.21296  0.01757  0.37380  1.0000
  C   C118      1.0  0.23814  0.03438  0.37419  1.0000
  C   C119      1.0  0.25440  0.02892  0.38225  1.0000
  C   C120      1.0  0.99731  0.07360  0.29904  1.0000
  C   C121      1.0  0.30001  0.15681  0.30483  1.0000
  H   H146      1.0  0.20024  0.02142  0.36760  1.0000
  H   H147      1.0  0.27386  0.04193  0.38278  1.0000
  H   H148      1.0  0.99133  0.06636  0.27156  1.0000
  C   C122      1.0  0.23823  0.23410  0.38841  1.0000
  C   C123      1.0  0.24789  0.22573  0.39931  1.0000
  C   C124      1.0  0.24955  0.20362  0.39721  1.0000
  C   C125      1.0  0.24187  0.18982  0.38418  1.0000
  C   C126      1.0  0.23252  0.19836  0.37321  1.0000
  C   C127      1.0  0.23051  0.22024  0.37539  1.0000
  H   H149      1.0  0.25388  0.23617  0.40938  1.0000
  H   H150      1.0  0.25675  0.19713  0.40577  1.0000
  H   H151      1.0  0.22671  0.18812  0.36310  1.0000
  H   H152      1.0  0.22315  0.22668  0.36687  1.0000
  C   C128      1.0  0.05616  0.41156  0.39509  1.0000
  C   C129      1.0  0.03264  0.40987  0.39484  1.0000
  C   C130      1.0  0.02873  0.42894  0.38906  1.0000
  C   C131      1.0  0.04807  0.44983  0.38322  1.0000
  C   C132      1.0  0.07145  0.45121  0.38315  1.0000
  C   C133      1.0  0.07544  0.43232  0.38912  1.0000
  H   H153      1.0  0.01750  0.39407  0.39923  1.0000
  H   H154      1.0  0.01057  0.42758  0.38921  1.0000
  H   H155      1.0  0.08658  0.46710  0.37879  1.0000
  H   H156      1.0  0.09372  0.43394  0.38922  1.0000
  C   C134      1.0  0.11619  0.30806  0.42184  1.0000
  C   C135      1.0  0.12766  0.29279  0.42160  1.0000
  C   C136      1.0  0.15355  0.30301  0.42114  1.0000
  C   C137      1.0  0.16837  0.32872  0.42097  1.0000
  C   C138      1.0  0.15689  0.34398  0.42115  1.0000
  C   C139      1.0  0.13100  0.33376  0.42155  1.0000
  H   H157      1.0  0.11646  0.27290  0.42188  1.0000
  H   H158      1.0  0.16202  0.29100  0.42103  1.0000
  H   H159      1.0  0.16807  0.36388  0.42108  1.0000
  H   H160      1.0  0.12254  0.34578  0.42175  1.0000
  H   H161      1.0  0.04387  0.27983  0.38050  1.0000
  C   C140      1.0  0.04504  0.42970  0.43376  1.0000
  C   C141      1.0  0.99298  0.31056  0.47546  1.0000
  C   C142      1.0  0.29005  0.14923  0.27938  1.0000
  C   C143      1.0  0.27950  0.28222  0.47062  1.0000
  C   C144      1.0  0.28503  0.30700  0.47317  1.0000
  H   H162      1.0  0.27373  0.27383  0.46001  1.0000
  H   H163      1.0  0.26559  0.18612  0.35691  1.0000
  H   H164      1.0  0.23319  0.36952  0.39857  1.0000
  C   C145      1.0  0.29084  0.05481  0.47842  1.0000
  H   H165      1.0  0.01231  0.41337  0.45536  1.0000
  H   H166      1.0  0.09288  0.47202  0.41499  1.0000
  H   H167      1.0  0.07332  0.41516  0.45045  1.0000
  H   H168      1.0  0.29349  0.19074  0.36573  1.0000
  H   H169      1.0  0.26288  0.03502  0.33925  1.0000
  H   H170      1.0  0.22392  0.42160  0.41067  1.0000
  N   N9        1.0  0.16243  0.13114  0.37563  1.0000
  C   C146      1.0  0.13873  0.13146  0.37283  1.0000
  C   C147      1.0  0.17557  0.14917  0.38771  1.0000
  C   C148      1.0  0.17765  0.13999  0.36300  1.0000
  C   C149      1.0  0.15783  0.10556  0.37829  1.0000
  C   C150      1.0  0.14345  0.08577  0.36832  1.0000
  C   C151      1.0  0.16794  0.09960  0.39041  1.0000
  C   C152      1.0  0.13894  0.06150  0.37053  1.0000
  C   C153      1.0  0.16348  0.07527  0.39244  1.0000
  C   C154      1.0  0.14896  0.05626  0.38255  1.0000
  H   H171      1.0  0.12593  0.12295  0.38159  1.0000
  H   H172      1.0  0.14147  0.15070  0.37182  1.0000
  H   H173      1.0  0.12922  0.12123  0.36272  1.0000
  H   H174      1.0  0.16510  0.14359  0.39761  1.0000
  H   H175      1.0  0.17862  0.16820  0.38548  1.0000
  H   H176      1.0  0.19428  0.15115  0.38987  1.0000
  H   H177      1.0  0.16864  0.12798  0.35330  1.0000
  H   H178      1.0  0.18148  0.15913  0.36052  1.0000
  H   H179      1.0  0.19568  0.14019  0.36480  1.0000
  H   H180      1.0  0.13600  0.08894  0.35854  1.0000
  H   H181      1.0  0.17975  0.11343  0.39837  1.0000
  H   H182      1.0  0.12793  0.04674  0.36273  1.0000
  H   H183      1.0  0.17169  0.07120  0.40164  1.0000
  H   H184      1.0  0.14579  0.03750  0.38409  1.0000
  N   N10       1.0  0.03863  0.24572  0.38988  1.0000
  C   C155      1.0  0.05535  0.23651  0.39570  1.0000
  C   C156      1.0  0.05435  0.26995  0.38361  1.0000
  C   C157      1.0  0.02566  0.24974  0.40192  1.0000
  C   C158      1.0  0.01997  0.22840  0.37922  1.0000
  C   C159      1.0  0.26711  0.02186  0.34454  1.0000
  H   H185      1.0  0.28562  0.17641  0.34835  1.0000
  N   N11       1.0  0.24941  0.40888  0.40363  1.0000
  H   H186      1.0  0.29762  0.05016  0.35680  1.0000
  H   H187      1.0  0.27655  0.24688  0.34323  1.0000
  H   H188      1.0  0.10102  0.02999  0.29713  1.0000
  H   H189      1.0  0.06519  0.23243  0.38709  1.0000
  H   H190      1.0  0.04527  0.21971  0.40195  1.0000
  H   H191      1.0  0.06339  0.26755  0.37402  1.0000
  H   H192      1.0  0.06912  0.28296  0.39135  1.0000
  H   H193      1.0  0.00018  0.38881  0.43264  1.0000
  H   H194      1.0  0.01348  0.23196  0.40683  1.0000
  H   H195      1.0  0.03874  0.26217  0.41043  1.0000
  H   H196      1.0  0.01412  0.25842  0.39859  1.0000
  H   H197      1.0  0.29813  0.09669  0.26876  1.0000
  H   H198      1.0  0.00559  0.25379  0.37356  1.0000
  C   C160      1.0  0.07509  0.46319  0.41980  1.0000
  Fe  Fe27      1.0  0.99027  0.99870  0.29011  1.0000
  C   C161      1.0  0.28397  0.03987  0.46589  1.0000
  C   C162      1.0  0.26205  0.45070  0.39269  1.0000
  H   H199      1.0  0.06282  0.48724  0.41023  1.0000
  S   S51       1.0  0.30663  0.37853  0.39179  1.0000
  C   C163      1.0  0.28519  0.19128  0.35523  1.0000
  C   C164      1.0  0.98534  0.21909  0.36235  1.0000
  C   C165      1.0  0.28678  0.03036  0.35446  1.0000
  C   C166      1.0  0.20434  0.99531  0.38110  1.0000
  H   H200      1.0  0.06329  0.39567  0.43430  1.0000
  S   S52       1.0  0.00781  0.32979  0.46096  1.0000
  N   N12       1.0  0.03728  0.40713  0.44203  1.0000
  H   H201      1.0  0.02155  0.46625  0.42013  1.0000
  H   H202      1.0  0.21687  0.40657  0.39300  1.0000
  C   C167      1.0  0.98774  0.28566  0.47568  1.0000
  H   H203      1.0  0.29633  0.04468  0.45714  1.0000
  C   C168      1.0  0.05711  0.40013  0.44451  1.0000
  H   H204      1.0  0.28796  0.19855  0.32756  1.0000
  C   C169      1.0  0.25237  0.99649  0.34185  1.0000
  H   H205      1.0  0.30861  0.07117  0.47888  1.0000
  H   H206      1.0  0.30660  0.02152  0.36982  1.0000
  C   C170      1.0  0.09017  0.02170  0.25508  1.0000
  C   C171      1.0  0.24776  0.38751  0.39490  1.0000
  H   H207      1.0  0.25972  0.42355  0.42520  1.0000
  H   H208      1.0  0.00981  0.43017  0.43465  1.0000
  H   H209      1.0  0.24362  0.44858  0.39274  1.0000
  C   C172      1.0  0.09941  0.02858  0.28527  1.0000
  C   C173      1.0  0.30450  0.47702  0.38686  1.0000
  H   H210      1.0  0.25684  0.00609  0.45526  1.0000
  H   H211      1.0  0.03861  0.01214  0.28298  1.0000
  H   H212      1.0  0.24343  0.38879  0.38352  1.0000
  C   C174      1.0  0.07030  0.00983  0.26430  1.0000
  C   C175      1.0  0.30630  0.23925  0.37237  1.0000
  H   H213      1.0  0.27796  0.24937  0.47958  1.0000
  C   C176      1.0  0.08632  0.01860  0.24027  1.0000
  C   C177      1.0  0.01543  0.20349  0.37680  1.0000
  C   C178      1.0  0.28497  0.24914  0.35371  1.0000
  H   H214      1.0  0.06404  0.04223  0.28146  1.0000
  H   H215      1.0  0.02215  0.38273  0.42354  1.0000
  C   C179      1.0  0.22427  0.40656  0.40389  1.0000
  C   C180      1.0  0.02832  0.43915  0.43089  1.0000
  H   H216      1.0  0.31487  0.22879  0.37660  1.0000
  H   H217      1.0  0.22839  0.26103  0.48079  1.0000
  C   C181      1.0  0.00425  0.23563  0.37172  1.0000
  C   C182      1.0  0.01655  0.38590  0.43426  1.0000
  C   C183      1.0  0.28752  0.09484  0.29006  1.0000
  C   C184      1.0  0.26793  0.43232  0.39777  1.0000
  C   C185      1.0  0.25702  0.40716  0.41846  1.0000
  H   H218      1.0  0.26514  0.38619  0.39543  1.0000
  H   H219      1.0  0.01252  0.03397  0.24063  1.0000
  H   H220      1.0  0.24298  0.39030  0.42348  1.0000
  C   C186      1.0  0.28197  0.26840  0.48177  1.0000
  C   C187      1.0  0.30464  0.25674  0.38156  1.0000
  C   C188      1.0  0.29286  0.43733  0.39706  1.0000
  H   H221      1.0  0.27443  0.40586  0.41907  1.0000
  S   S53       1.0  0.05572  0.00108  0.32545  1.0000
  C   C189      1.0  0.31506  0.16307  0.27624  1.0000
  H   H222      1.0  0.06975  0.25052  0.40325  1.0000
  H   H223      1.0  0.29865  0.42414  0.40062  1.0000
  H   H224      1.0  0.26826  0.08790  0.28693  1.0000
  H   H225      1.0  0.11177  0.02099  0.28173  1.0000
  C   C190      1.0  0.24580  0.00675  0.38959  1.0000
  H   H226      1.0  0.21089  0.38875  0.40841  1.0000
  H   H227      1.0  0.01029  0.36847  0.44010  1.0000
  C   C191      1.0  0.05850  0.02365  0.28575  1.0000
  H   H228      1.0  0.00839  0.06584  0.29375  1.0000
  H   H229      1.0  0.29121  0.28334  0.38418  1.0000
  C   C192      1.0  0.28018  0.47268  0.38732  1.0000
  N   N13       1.0  0.07354  0.01255  0.28001  1.0000
  C   C193      1.0  0.29645  0.23483  0.35815  1.0000
  H   H230      1.0  0.10287  0.00655  0.33450  1.0000
  H   H231      1.0  0.27388  0.27676  0.35967  1.0000
  H   H232      1.0  0.98887  0.09408  0.27570  1.0000
  C   C194      1.0  0.06873  0.44239  0.42793  1.0000
  H   H233      1.0  0.02602  0.19610  0.38222  1.0000
  C   C195      1.0  0.04656  0.99486  0.25776  1.0000
  C   C196      1.0  0.99987  0.01430  0.23991  1.0000
  N   N14       1.0  0.29796  0.21575  0.34876  1.0000
  H   H234      1.0  0.08238  0.43610  0.42899  1.0000
  C   C197      1.0  0.05817  0.47182  0.41710  1.0000
  S   S54       1.0  0.99979  0.01810  0.26908  1.0000
  H   H235      1.0  0.00881  0.09411  0.29973  1.0000
  C   C198      1.0  0.28651  0.21309  0.33431  1.0000
  C   C199      1.0  0.31081  0.45938  0.39173  1.0000
  H   H236      1.0  0.10884  0.03350  0.25901  1.0000
  C   C200      1.0  0.29327  0.27040  0.37688  1.0000
  C   C201      1.0  0.24607  0.01121  0.47617  1.0000
  C   C202      1.0  0.30502  0.10004  0.27968  1.0000
  C   C203      1.0  0.30207  0.99695  0.48067  1.0000
  H   H237      1.0  0.04373  0.42726  0.46211  1.0000
  C   C204      1.0  0.28346  0.26662  0.36302  1.0000
  C   C205      1.0  0.26163  0.01813  0.46478  1.0000
  H   H238      1.0  0.02392  0.39431  0.46279  1.0000
  H   H239      1.0  0.99263  0.27746  0.46679  1.0000
  H   H240      1.0  0.27536  0.48649  0.38351  1.0000
  H   H241      1.0  0.31155  0.25923  0.39250  1.0000
  H   H242      1.0  0.99247  0.16785  0.36618  1.0000
  C   C206      1.0  0.99082  0.00154  0.25242  1.0000
  C   C207      1.0  0.99621  0.18699  0.36753  1.0000
  C   C208      1.0  0.29479  0.09977  0.30441  1.0000
  H   H243      1.0  0.26646  0.20723  0.33477  1.0000
  C   C209      1.0  0.02897  0.41077  0.45617  1.0000
  H   H244      1.0  0.22917  0.99376  0.47545  1.0000
  C   C210      1.0  0.22852  0.29545  0.48611  1.0000
  H   H245      1.0  0.29663  0.99187  0.38699  1.0000
  H   H246      1.0  0.31863  0.99202  0.37439  1.0000
  C   C211      1.0  0.04299  0.99182  0.24297  1.0000
  Fe  Fe28      1.0  0.28135  0.02459  0.57007  1.0000
  C   C212      1.0  0.04989  0.48197  0.69899  1.0000
  C   C213      1.0  0.22161  0.26585  0.63166  1.0000
  S   S55       1.0  0.27274  0.03737  0.54957  1.0000
  H   H247      1.0  0.00723  0.06776  0.69890  1.0000
  N   N15       1.0  0.20206  0.26702  0.64004  1.0000
  C   C214      1.0  0.01707  0.45545  0.71346  1.0000
  H   H248      1.0  0.22549  0.28720  0.65830  1.0000
  H   H249      1.0  0.17444  0.24489  0.65474  1.0000
  N   N16       1.0  0.28374  0.06386  0.50366  1.0000
  Fe  Fe29      1.0  0.28909  0.27375  0.56265  1.0000
  S   S56       1.0  0.26322  0.28528  0.57396  1.0000
  S   S57       1.0  0.27816  0.23959  0.54851  1.0000
  Fe  Fe30      1.0  0.00276  0.02601  0.67008  1.0000
  S   S58       1.0  0.02947  0.06774  0.67220  1.0000
  H   H250      1.0  0.20083  0.23954  0.65429  1.0000
  Fe  Fe31      1.0  0.08640  0.24184  0.61361  1.0000
  S   S59       1.0  0.07721  0.22782  0.63579  1.0000
  S   S60       1.0  0.07034  0.26258  0.60069  1.0000
  Fe  Fe32      1.0  0.12848  0.22763  0.61140  1.0000
  S   S61       1.0  0.12173  0.21233  0.63328  1.0000
  S   S62       1.0  0.15558  0.22085  0.59778  1.0000
  Fe  Fe33      1.0  0.08127  0.19479  0.62747  1.0000
  S   S63       1.0  0.05320  0.15350  0.62824  1.0000
  Fe  Fe34      1.0  0.11851  0.24650  0.64010  1.0000
  S   S64       1.0  0.14239  0.26731  0.66010  1.0000
  S   S65       1.0  0.08806  0.20801  0.60504  1.0000
  S   S66       1.0  0.12759  0.26268  0.61844  1.0000
  Fe  Fe35      1.0  0.16896  0.37808  0.71966  1.0000
  S   S67       1.0  0.14211  0.35145  0.70225  1.0000
  S   S68       1.0  0.19535  0.41809  0.71591  1.0000
  C   C215      1.0  0.18478  0.27017  0.63018  1.0000
  H   H251      1.0  0.17529  0.25406  0.62247  1.0000
  C   C216      1.0  0.25754  0.26397  0.61395  1.0000
  C   C217      1.0  0.03731  0.21257  0.56485  1.0000
  C   C218      1.0  0.99029  0.24051  0.58601  1.0000
  C   C219      1.0  0.28936  0.08973  0.50083  1.0000
  C   C220      1.0  0.14223  0.29108  0.67148  1.0000
  C   C221      1.0  0.16072  0.30233  0.68235  1.0000
  C   C222      1.0  0.16128  0.32110  0.69172  1.0000
  C   C223      1.0  0.14318  0.32873  0.69039  1.0000
  C   C224      1.0  0.12461  0.31736  0.67958  1.0000
  C   C225      1.0  0.12419  0.29878  0.67013  1.0000
  H   H252      1.0  0.17472  0.29649  0.68354  1.0000
  H   H253      1.0  0.17563  0.32955  0.69999  1.0000
  H   H254      1.0  0.11046  0.32303  0.67846  1.0000
  H   H255      1.0  0.10982  0.29030  0.66187  1.0000
  C   C226      1.0  0.10159  0.45074  0.73502  1.0000
  C   C227      1.0  0.03533  0.09139  0.65993  1.0000
  C   C228      1.0  0.05322  0.11592  0.66366  1.0000
  C   C229      1.0  0.05882  0.13523  0.65420  1.0000
  C   C230      1.0  0.04661  0.13019  0.64084  1.0000
  C   C231      1.0  0.02866  0.10566  0.63715  1.0000
  C   C232      1.0  0.02302  0.08638  0.64662  1.0000
  H   H256      1.0  0.06287  0.12005  0.67393  1.0000
  H   H257      1.0  0.07261  0.15397  0.65720  1.0000
  H   H258      1.0  0.01907  0.10157  0.62686  1.0000
  H   H259      1.0  0.00909  0.06771  0.64362  1.0000
  H   H260      1.0  0.21956  0.30623  0.64590  1.0000
  H   H261      1.0  0.98870  0.05816  0.73539  1.0000
  C   C233      1.0  0.99208  0.25301  0.54394  1.0000
  C   C234      1.0  0.04906  0.22753  0.55365  1.0000
  C   C235      1.0  0.01009  0.26199  0.58133  1.0000
  C   C236      1.0  0.03443  0.26825  0.58581  1.0000
  C   C237      1.0  0.03933  0.25314  0.59497  1.0000
  C   C238      1.0  0.01954  0.23159  0.59960  1.0000
  C   C239      1.0  0.08701  0.11532  0.62096  1.0000
  H   H262      1.0  0.00670  0.27389  0.57439  1.0000
  H   H263      1.0  0.04960  0.28502  0.58225  1.0000
  H   H264      1.0  0.02299  0.21983  0.60668  1.0000
  H   H265      1.0  0.01457  0.44359  0.65081  1.0000
  C   C240      1.0  0.28974  0.27898  0.49565  1.0000
  H   H266      1.0  0.28196  0.30043  0.62271  1.0000
  C   C241      1.0  0.02363  0.03789  0.70882  1.0000
  H   H267      1.0  0.01763  0.00622  0.62832  1.0000
  C   C242      1.0  0.23538  0.48597  0.71020  1.0000
  S   S69       1.0  0.19581  0.37324  0.73430  1.0000
  S   S70       1.0  0.26186  0.42619  0.72753  1.0000
  C   C243      1.0  0.23286  0.26706  0.57996  1.0000
  C   C244      1.0  0.22122  0.27899  0.58713  1.0000
  C   C245      1.0  0.19739  0.26531  0.59237  1.0000
  C   C246      1.0  0.18491  0.23943  0.59056  1.0000
  C   C247      1.0  0.19634  0.22758  0.58308  1.0000
  C   C248      1.0  0.22013  0.24125  0.57779  1.0000
  H   H268      1.0  0.23081  0.29895  0.58879  1.0000
  H   H269      1.0  0.18874  0.27478  0.59783  1.0000
  H   H270      1.0  0.18684  0.20758  0.58157  1.0000
  H   H271      1.0  0.22873  0.23176  0.57228  1.0000
  H   H272      1.0  0.07602  0.10226  0.59929  1.0000
  C   C249      1.0  0.06621  0.02520  0.62310  1.0000
  C   C250      1.0  0.02242  0.05498  0.73212  1.0000
  Fe  Fe36      1.0  0.29202  0.01833  0.53866  1.0000
  C   C251      1.0  0.04873  0.08161  0.71426  1.0000
  C   C252      1.0  0.09976  0.32013  0.73392  1.0000
  H   H273      1.0  0.31640  0.14960  0.52992  1.0000
  N   N17       1.0  0.22819  0.27538  0.52980  1.0000
  C   C253      1.0  0.22816  0.29370  0.54053  1.0000
  C   C254      1.0  0.20640  0.25118  0.53214  1.0000
  C   C255      1.0  0.25080  0.27307  0.53261  1.0000
  C   C256      1.0  0.22767  0.28235  0.51489  1.0000
  C   C257      1.0  0.22762  0.26662  0.50347  1.0000
  C   C258      1.0  0.22800  0.30494  0.51124  1.0000
  H   H274      1.0  0.00987  0.46911  0.71375  1.0000
  C   C259      1.0  0.03578  0.23408  0.54392  1.0000
  Fe  Fe37      1.0  0.22115  0.41420  0.73191  1.0000
  H   H275      1.0  0.22839  0.28774  0.55162  1.0000
  H   H276      1.0  0.24485  0.31205  0.53998  1.0000
  H   H277      1.0  0.21136  0.29605  0.53926  1.0000
  H   H278      1.0  0.20628  0.23576  0.52552  1.0000
  H   H279      1.0  0.18897  0.25185  0.52959  1.0000
  H   H280      1.0  0.20592  0.24583  0.54342  1.0000
  H   H281      1.0  0.26752  0.29036  0.53005  1.0000
  H   H282      1.0  0.25269  0.26940  0.54397  1.0000
  H   H283      1.0  0.25102  0.25763  0.52618  1.0000
  H   H284      1.0  0.27187  0.06745  0.52466  1.0000
  H   H285      1.0  0.02581  0.41963  0.70145  1.0000
  S   S71       1.0  0.17329  0.46264  0.73451  1.0000
  C   C260      1.0  0.31250  0.13818  0.56509  1.0000
  C   C261      1.0  0.22848  0.31129  0.49703  1.0000
  H   H286      1.0  0.02990  0.46021  0.72292  1.0000
  C   C262      1.0  0.00912  0.27370  0.61945  1.0000
  S   S72       1.0  0.31495  0.10723  0.54327  1.0000
  H   H287      1.0  0.04778  0.20810  0.57261  1.0000
  H   H288      1.0  0.05076  0.09825  0.72050  1.0000
  H   H289      1.0  0.06156  0.48393  0.68979  1.0000
  S   S73       1.0  0.29337  0.26071  0.50911  1.0000
  H   H290      1.0  0.27313  0.09027  0.49574  1.0000
  Fe  Fe38      1.0  0.30408  0.26628  0.53301  1.0000
  C   C263      1.0  0.02769  0.02608  0.62559  1.0000
  C   C264      1.0  0.01303  0.44948  0.68717  1.0000
  H   H291      1.0  0.06255  0.48797  0.70862  1.0000
  H   H292      1.0  0.04461  0.04124  0.65219  1.0000
  C   C265      1.0  0.00122  0.30471  0.60757  1.0000
  C   C266      1.0  0.26362  0.28479  0.62285  1.0000
  N   N18       1.0  0.02963  0.45633  0.70002  1.0000
  C   C267      1.0  0.31399  0.13417  0.55051  1.0000
  C   C268      1.0  0.29258  0.31750  0.48710  1.0000
  H   H293      1.0  0.30045  0.31206  0.50886  1.0000
  C   C269      1.0  0.00501  0.06445  0.71050  1.0000
  H   H294      1.0  0.04615  0.24609  0.53569  1.0000
  H   H295      1.0  0.14630  0.33088  0.72784  1.0000
  C   C270      1.0  0.10709  0.28790  0.72382  1.0000
  H   H296      1.0  0.17022  0.27208  0.63601  1.0000
  H   H297      1.0  0.07744  0.08008  0.64940  1.0000
  H   H298      1.0  0.06461  0.07851  0.71723  1.0000
  C   C271      1.0  0.26520  0.05507  0.51484  1.0000
  C   C272      1.0  0.04046  0.43925  0.70121  1.0000
  H   H299      1.0  0.00581  0.02115  0.71035  1.0000
  C   C273      1.0  0.98784  0.44386  0.68769  1.0000
  C   C274      1.0  0.31540  0.00245  0.59446  1.0000
  H   H300      1.0  0.24043  0.01869  0.49742  1.0000
  C   C275      1.0  0.21153  0.28791  0.65088  1.0000
  H   H301      1.0  0.30038  0.03123  0.60801  1.0000
  N   N19       1.0  0.02475  0.05972  0.71673  1.0000
  H   H302      1.0  0.05781  0.00515  0.62556  1.0000
  S   S74       1.0  0.25735  0.00974  0.58938  1.0000
  C   C276      1.0  0.24603  0.28582  0.63164  1.0000
  H   H303      1.0  0.27096  0.26352  0.60683  1.0000
  S   S75       1.0  0.31354  0.30052  0.54668  1.0000
  H   H304      1.0  0.22900  0.22810  0.60663  1.0000
  H   H305      1.0  0.05837  0.05838  0.60452  1.0000
  H   H306      1.0  0.02540  0.02631  0.61388  1.0000
  C   C277      1.0  0.31484  0.17418  0.54637  1.0000
  Fe  Fe39      1.0  0.31165  0.23856  0.55812  1.0000
  C   C278      1.0  0.22790  0.27309  0.48933  1.0000
  H   H307      1.0  0.05251  0.44066  0.69230  1.0000
  H   H308      1.0  0.05056  0.08615  0.70279  1.0000
  H   H309      1.0  0.23750  0.46941  0.70710  1.0000
  H   H310      1.0  0.25188  0.30267  0.63807  1.0000
  C   C279      1.0  0.99518  0.22541  0.59518  1.0000
  H   H311      1.0  0.11788  0.27755  0.72428  1.0000
  C   C280      1.0  0.23388  0.24404  0.61383  1.0000
  H   H312      1.0  0.05481  0.04925  0.73417  1.0000
  H   H313      1.0  0.17719  0.22745  0.64030  1.0000
  H   H314      1.0  0.00181  0.34959  0.60952  1.0000
  H   H315      1.0  0.06233  0.32737  0.61774  1.0000
  H   H316      1.0  0.02539  0.04077  0.69722  1.0000
  H   H317      1.0  0.09416  0.13472  0.61858  1.0000
  H   H318      1.0  0.04541  0.01299  0.64792  1.0000
  C   C281      1.0  0.18819  0.24374  0.64765  1.0000
  H   H319      1.0  0.00989  0.26878  0.54790  1.0000
  H   H320      1.0  0.27469  0.47490  0.71301  1.0000
  C   C282      1.0  0.31241  0.16010  0.57026  1.0000
  H   H321      1.0  0.19645  0.28744  0.65747  1.0000
  H   H322      1.0  0.30925  0.43386  0.71870  1.0000
  C   C283      1.0  0.21604  0.24504  0.62235  1.0000
  N   N20       1.0  0.05393  0.03781  0.63058  1.0000
  C   C284      1.0  0.27552  0.04824  0.49031  1.0000
  H   H323      1.0  0.08712  0.27450  0.72247  1.0000
  H   H324      1.0  0.03840  0.03336  0.71220  1.0000
  H   H325      1.0  0.04677  0.28472  0.62581  1.0000
  H   H326      1.0  0.24632  0.46507  0.73177  1.0000
  H   H327      1.0  0.10457  0.32909  0.72348  1.0000
  C   C285      1.0  0.03408  0.29051  0.62117  1.0000
  C   C286      1.0  0.12237  0.44659  0.73462  1.0000
  C   C287      1.0  0.00711  0.44342  0.66115  1.0000
  H   H328      1.0  0.06873  0.23450  0.55272  1.0000
  C   C288      1.0  0.14623  0.46664  0.73533  1.0000
  Fe  Fe40      1.0  0.31031  0.07066  0.55239  1.0000
  H   H329      1.0  0.01812  0.03582  0.63052  1.0000
  H   H330      1.0  0.07373  0.04092  0.65043  1.0000
  Fe  Fe41      1.0  0.17836  0.42755  0.73458  1.0000
  H   H331      1.0  0.99035  0.33995  0.48724  1.0000
  H   H332      1.0  0.22914  0.32875  0.49442  1.0000
  H   H333      1.0  0.02571  0.26333  0.52504  1.0000
  H   H334      1.0  0.29456  0.10157  0.51087  1.0000
  H   H335      1.0  0.06474  0.02583  0.61135  1.0000
  H   H336      1.0  0.01249  0.33856  0.58651  1.0000
  C   C289      1.0  0.08764  0.10871  0.63493  1.0000
  C   C290      1.0  0.00878  0.24542  0.52271  1.0000
  H   H337      1.0  0.22801  0.24944  0.50539  1.0000
  H   H338      1.0  0.05234  0.44349  0.71112  1.0000
  S   S76       1.0  0.31406  0.20592  0.56825  1.0000
  H   H339      1.0  0.31156  0.12445  0.57241  1.0000
  H   H340      1.0  0.19754  0.22976  0.62109  1.0000
  H   H341      1.0  0.22819  0.31818  0.51914  1.0000
  H   H342      1.0  0.19448  0.28700  0.62390  1.0000
  C   C291      1.0  0.07658  0.09697  0.61013  1.0000
  C   C292      1.0  0.29475  0.30360  0.49828  1.0000
  H   H343      1.0  0.00253  0.25489  0.62286  1.0000
  H   H344      1.0  0.09544  0.12310  0.64333  1.0000
  S   S77       1.0  0.27054  0.99281  0.51925  1.0000
  C   C293      1.0  0.05453  0.03320  0.64596  1.0000
  H   H345      1.0  0.29685  0.33661  0.48922  1.0000
  H   H346      1.0  0.00324  0.19285  0.57529  1.0000
  C   C294      1.0  0.06642  0.07192  0.61328  1.0000
  C   C295      1.0  0.07718  0.08373  0.63825  1.0000
  S   S78       1.0  0.01954  0.00162  0.67602  1.0000
  H   H347      1.0  0.99701  0.25006  0.51548  1.0000
  H   H348      1.0  0.26124  0.03626  0.51820  1.0000
  H   H349      1.0  0.08614  0.03389  0.62631  1.0000
  C   C296      1.0  0.01011  0.22578  0.54523  1.0000
  C   C297      1.0  0.99453  0.32138  0.58578  1.0000
  H   H350      1.0  0.11990  0.42788  0.73370  1.0000
  C   C298      1.0  0.04282  0.31448  0.61649  1.0000
  C   C299      1.0  0.02666  0.32164  0.60992  1.0000
  C   C300      1.0  0.06605  0.06449  0.62748  1.0000
  C   C301      1.0  0.01220  0.20400  0.56635  1.0000
  H   H351      1.0  0.01357  0.23254  0.51659  1.0000
  S   S79       1.0  0.29802  0.00329  0.55914  1.0000
  C   C302      1.0  0.31265  0.44779  0.72703  1.0000
  N   N21       1.0  0.99600  0.23413  0.53588  1.0000
  H   H352      1.0  0.03436  0.34040  0.60644  1.0000
  H   H353      1.0  0.00520  0.08120  0.71557  1.0000
  H   H354      1.0  0.11249  0.29837  0.71385  1.0000
  C   C303      1.0  0.02215  0.44894  0.67350  1.0000
  C   C304      1.0  0.30878  0.99456  0.61942  1.0000
  C   C305      1.0  0.29897  0.00135  0.49513  1.0000
  C   C306      1.0  0.99285  0.28049  0.61270  1.0000
  H   H355      1.0  0.21519  0.47881  0.71146  1.0000
  H   H356      1.0  0.24765  0.05454  0.51118  1.0000
  H   H357      1.0  0.00171  0.43660  0.71503  1.0000
  C   C307      1.0  0.31353  0.17826  0.56097  1.0000
  H   H358      1.0  0.99713  0.30705  0.57961  1.0000
  H   H359      1.0  0.08333  0.43502  0.73444  1.0000
  H   H360      1.0  0.04114  0.45324  0.67226  1.0000
  H   H361      1.0  0.30515  0.09889  0.49382  1.0000
  H   H362      1.0  0.31134  0.16294  0.58157  1.0000
  C   C308      1.0  0.99882  0.21078  0.55687  1.0000
  H   H363      1.0  0.31418  0.01551  0.50148  1.0000
  C   C309      1.0  0.29248  0.44832  0.73356  1.0000
  H   H364      1.0  0.07938  0.30867  0.73388  1.0000
  H   H365      1.0  0.29557  0.99638  0.59210  1.0000
  H   H366      1.0  0.30269  0.04497  0.51210  1.0000
  C   C310      1.0  0.30635  0.06405  0.50956  1.0000
  H   H367      1.0  0.31331  0.07590  0.51951  1.0000
  C   C311      1.0  0.25286  0.02585  0.48882  1.0000
  H   H368      1.0  0.31577  0.18789  0.53905  1.0000
  S   S80       1.0  0.31786  0.05948  0.57394  1.0000
  C   C312      1.0  0.31518  0.15237  0.54122  1.0000
  C   C313      1.0  0.24314  0.48103  0.73480  1.0000
  H   H369      1.0  0.98646  0.04819  0.71143  1.0000
  C   C314      1.0  0.98644  0.32076  0.48722  1.0000
  C   C315      1.0  0.10421  0.47492  0.73626  1.0000
  Fe  Fe42      1.0  0.29565  0.02116  0.90666  1.0000
  H   H370      1.0  0.03989  0.01415  0.83150  1.0000
  C   C316      1.0  0.29687  0.06681  0.97332  1.0000
  H   H371      1.0  0.11134  0.05718  0.85874  1.0000
  C   C317      1.0  0.09941  0.29360  0.77580  1.0000
  S   S81       1.0  0.28434  0.03527  0.92599  1.0000
  C   C318      1.0  0.24404  0.40852  0.78646  1.0000
  S   S82       1.0  0.28465  0.23700  0.92817  1.0000
  C   C319      1.0  0.31174  0.32932  0.86400  1.0000
  S   S83       1.0  0.00962  0.01241  0.80354  1.0000
  Fe  Fe43      1.0  0.28285  0.25543  0.90809  1.0000
  S   S84       1.0  0.25177  0.23841  0.89090  1.0000
  H   H372      1.0  0.05057  0.03992  0.75930  1.0000
  C   C320      1.0  0.25791  0.27203  0.85530  1.0000
  C   C321      1.0  0.00938  0.13861  0.82188  1.0000
  H   H373      1.0  0.30761  0.06863  0.98336  1.0000
  Fe  Fe44      1.0  0.08460  0.24021  0.84755  1.0000
  S   S85       1.0  0.08450  0.22401  0.82571  1.0000
  S   S86       1.0  0.05192  0.24748  0.85168  1.0000
  Fe  Fe45      1.0  0.13498  0.24492  0.85571  1.0000
  S   S87       1.0  0.13827  0.22887  0.83461  1.0000
  S   S88       1.0  0.16413  0.26244  0.87387  1.0000
  Fe  Fe46      1.0  0.12404  0.25313  0.82476  1.0000
  S   S89       1.0  0.13885  0.26828  0.80305  1.0000
  Fe  Fe47      1.0  0.09839  0.20062  0.83672  1.0000
  S   S90       1.0  0.08557  0.16163  0.82686  1.0000
  S   S91       1.0  0.12328  0.27124  0.84579  1.0000
  S   S92       1.0  0.09598  0.21482  0.85875  1.0000
  H   H374      1.0  0.14491  0.29829  0.88418  1.0000
  C   C322      1.0  0.00302  0.05492  0.74010  1.0000
  H   H375      1.0  0.26570  0.25947  0.85543  1.0000
  H   H376      1.0  0.10277  0.25761  0.91879  1.0000
  H   H377      1.0  0.10522  0.33566  0.74194  1.0000
  C   C323      1.0  0.11142  0.25391  0.89165  1.0000
  C   C324      1.0  0.30805  0.13448  0.92046  1.0000
  C   C325      1.0  0.28300  0.41825  0.77451  1.0000
  Fe  Fe48      1.0  0.17927  0.38561  0.75185  1.0000
  S   S93       1.0  0.17209  0.37241  0.77454  1.0000
  S   S94       1.0  0.20601  0.42619  0.75032  1.0000
  H   H378      1.0  0.99365  0.30985  0.96822  1.0000
  H   H379      1.0  0.24537  0.42697  0.78445  1.0000
  C   C326      1.0  0.06766  0.29611  0.90360  1.0000
  C   C327      1.0  0.10553  0.30521  0.76284  1.0000
  C   C328      1.0  0.08500  0.28822  0.90714  1.0000
  H   H380      1.0  0.05516  0.29636  0.91149  1.0000
  H   H381      1.0  0.24924  0.20048  0.98056  1.0000
  H   H382      1.0  0.99835  0.18438  0.82006  1.0000
  C   C329      1.0  0.14880  0.29771  0.79557  1.0000
  C   C330      1.0  0.14796  0.31749  0.80291  1.0000
  C   C331      1.0  0.15528  0.34020  0.79630  1.0000
  C   C332      1.0  0.16336  0.34339  0.78228  1.0000
  C   C333      1.0  0.16460  0.32376  0.77500  1.0000
  C   C334      1.0  0.15731  0.30106  0.78162  1.0000
  H   H383      1.0  0.14150  0.31523  0.81364  1.0000
  H   H384      1.0  0.15442  0.35533  0.80207  1.0000
  H   H385      1.0  0.17121  0.32603  0.76434  1.0000
  H   H386      1.0  0.15805  0.28586  0.77586  1.0000
  C   C335      1.0  0.02426  0.08214  0.83330  1.0000
  C   C336      1.0  0.03860  0.08773  0.82130  1.0000
  C   C337      1.0  0.05746  0.11210  0.81966  1.0000
  C   C338      1.0  0.06220  0.13116  0.82994  1.0000
  C   C339      1.0  0.04825  0.12541  0.84211  1.0000
  C   C340      1.0  0.02934  0.10103  0.84375  1.0000
  H   H387      1.0  0.03487  0.07345  0.81314  1.0000
  H   H388      1.0  0.06825  0.11634  0.81024  1.0000
  H   H389      1.0  0.05206  0.13969  0.85025  1.0000
  H   H390      1.0  0.01839  0.09685  0.85309  1.0000
  N   N22       1.0  0.01048  0.17222  0.83843  1.0000
  Fe  Fe49      1.0  0.31810  0.03727  0.93704  1.0000
  H   H391      1.0  0.30237  0.12473  0.97365  1.0000
  C   C341      1.0  0.08060  0.30117  0.87940  1.0000
  H   H392      1.0  0.24793  0.41846  0.75815  1.0000
  C   C342      1.0  0.00978  0.24669  0.89189  1.0000
  C   C343      1.0  0.02729  0.23795  0.89227  1.0000
  C   C344      1.0  0.04018  0.23780  0.88008  1.0000
  C   C345      1.0  0.03576  0.24649  0.86732  1.0000
  C   C346      1.0  0.01788  0.25472  0.86684  1.0000
  C   C347      1.0  0.00499  0.25487  0.87904  1.0000
  H   H393      1.0  0.05369  0.23125  0.88060  1.0000
  H   H394      1.0  0.01423  0.26140  0.85702  1.0000
  H   H395      1.0  0.27287  0.13420  0.92023  1.0000
  C   C348      1.0  0.28953  0.29395  0.97596  1.0000
  H   H396      1.0  0.29039  0.18009  0.92165  1.0000
  N   N23       1.0  0.30380  0.09125  0.96720  1.0000
  C   C349      1.0  0.22696  0.24484  0.88686  1.0000
  C   C350      1.0  0.20939  0.23034  0.87608  1.0000
  C   C351      1.0  0.18997  0.23532  0.87203  1.0000
  C   C352      1.0  0.18794  0.25497  0.87871  1.0000
  C   C353      1.0  0.20531  0.26929  0.88962  1.0000
  C   C354      1.0  0.22467  0.26424  0.89371  1.0000
  H   H397      1.0  0.21091  0.21523  0.87074  1.0000
  H   H398      1.0  0.17673  0.22407  0.86367  1.0000
  H   H399      1.0  0.20385  0.28444  0.89493  1.0000
  H   H400      1.0  0.23777  0.27534  0.90216  1.0000
  Fe  Fe50      1.0  0.98889  0.01696  0.82171  1.0000
  H   H401      1.0  0.08873  0.25979  0.78665  1.0000
  H   H402      1.0  0.04638  0.03741  0.86877  1.0000
  H   H403      1.0  0.27766  0.29363  0.89023  1.0000
  C   C355      1.0  0.29927  0.10673  0.97791  1.0000
  C   C356      1.0  0.12050  0.27263  0.91521  1.0000
  N   N24       1.0  0.25632  0.40100  0.77534  1.0000
  C   C357      1.0  0.25262  0.37586  0.77849  1.0000
  C   C358      1.0  0.24360  0.39959  0.76152  1.0000
  H   H404      1.0  0.26243  0.37623  0.78865  1.0000
  H   H405      1.0  0.23269  0.36252  0.77946  1.0000
  H   H406      1.0  0.25949  0.36797  0.76999  1.0000
  H   H407      1.0  0.25188  0.40896  0.79730  1.0000
  H   H408      1.0  0.24909  0.39081  0.75278  1.0000
  H   H409      1.0  0.22323  0.38847  0.76209  1.0000
  C   C359      1.0  0.99894  0.11393  0.81678  1.0000
  H   H410      1.0  0.22373  0.31156  0.85534  1.0000
  H   H411      1.0  0.03175  0.04596  0.85486  1.0000
  H   H412      1.0  0.09245  0.23970  0.89403  1.0000
  H   H413      1.0  0.14926  0.31444  0.90115  1.0000
  H   H414      1.0  0.30800  0.28447  0.85860  1.0000
  C   C360      1.0  0.27926  0.00299  0.97417  1.0000
  N   N25       1.0  0.06237  0.04048  0.84834  1.0000
  C   C361      1.0  0.07833  0.06780  0.84962  1.0000
  C   C362      1.0  0.05366  0.03396  0.83324  1.0000
  C   C363      1.0  0.04083  0.03436  0.85725  1.0000
  C   C364      1.0  0.07490  0.02602  0.85278  1.0000
  C   C365      1.0  0.09991  0.03732  0.85789  1.0000
  H   H415      1.0  0.28681  0.44432  0.79218  1.0000
  H   H416      1.0  0.29981  0.05440  0.96561  1.0000
  C   C366      1.0  0.09646  0.26597  0.75099  1.0000
  C   C367      1.0  0.28720  0.08668  0.95452  1.0000
  H   H417      1.0  0.09452  0.07385  0.84278  1.0000
  C   C368      1.0  0.01547  0.18922  0.82654  1.0000
  H   H418      1.0  0.08486  0.07426  0.86083  1.0000
  H   H419      1.0  0.06915  0.03732  0.82621  1.0000
  C   C369      1.0  0.03412  0.17786  0.84584  1.0000
  C   C370      1.0  0.00115  0.04979  0.75454  1.0000
  H   H420      1.0  0.13013  0.03189  0.86588  1.0000
  H   H421      1.0  0.11185  0.25653  0.88001  1.0000
  C   C371      1.0  0.09072  0.25463  0.76408  1.0000
  C   C372      1.0  0.10073  0.28655  0.89678  1.0000
  C   C373      1.0  0.30420  0.00914  0.97373  1.0000
  S   S95       1.0  0.99530  0.24780  0.90789  1.0000
  H   H422      1.0  0.28890  0.23200  0.97184  1.0000
  H   H423      1.0  0.08561  0.23513  0.76474  1.0000
  Fe  Fe51      1.0  0.30962  0.07367  0.91843  1.0000
  H   H424      1.0  0.12418  0.24606  0.89392  1.0000
  H   H425      1.0  0.08528  0.28307  0.91798  1.0000
  H   H426      1.0  0.26436  0.32815  0.86731  1.0000
  H   H427      1.0  0.99283  0.39484  0.85177  1.0000
  H   H428      1.0  0.00457  0.19783  0.85213  1.0000
  H   H429      1.0  0.02659  0.15157  0.81748  1.0000
  C   C374      1.0  0.26965  0.28755  0.98499  1.0000
  H   H430      1.0  0.22393  0.39524  0.78668  1.0000
  C   C375      1.0  0.14369  0.29596  0.89586  1.0000
  H   H431      1.0  0.99917  0.36601  0.86661  1.0000
  C   C376      1.0  0.23490  0.26319  0.84823  1.0000
  H   H432      1.0  0.22596  0.24470  0.84323  1.0000
  N   N26       1.0  0.11872  0.27746  0.89995  1.0000
  H   H433      1.0  0.12597  0.28968  0.92208  1.0000
  H   H434      1.0  0.04711  0.17570  0.83859  1.0000
  H   H435      1.0  0.25419  0.48983  0.74482  1.0000
  C   C377      1.0  0.11101  0.02296  0.86206  1.0000
  H   H436      1.0  0.02313  0.20893  0.83047  1.0000
  S   S96       1.0  0.15059  0.38787  0.73754  1.0000
  C   C378      1.0  0.98971  0.30242  0.97870  1.0000
  H   H437      1.0  0.15788  0.29019  0.89874  1.0000
  H   H438      1.0  0.04358  0.19723  0.85039  1.0000
  C   C379      1.0  0.03756  0.04454  0.75396  1.0000
  H   H439      1.0  0.28469  0.32489  0.88686  1.0000
  C   C380      1.0  0.29117  0.31088  0.88531  1.0000
  H   H440      1.0  0.28220  0.46725  0.74953  1.0000
  C   C381      1.0  0.99856  0.14610  0.83290  1.0000
  C   C382      1.0  0.10414  0.29174  0.75000  1.0000
  S   S97       1.0  0.28403  0.27781  0.95903  1.0000
  H   H441      1.0  0.13460  0.26637  0.91723  1.0000
  H   H442      1.0  0.02631  0.01478  0.85548  1.0000
  C   C383      1.0  0.01827  0.04448  0.76143  1.0000
  H   H443      1.0  0.09527  0.25425  0.74190  1.0000
  C   C384      1.0  0.22272  0.27748  0.84820  1.0000
  C   C385      1.0  0.09790  0.29319  0.88278  1.0000
  H   H444      1.0  0.07820  0.30529  0.86851  1.0000
  C   C386      1.0  0.29578  0.43953  0.78385  1.0000
  S   S98       1.0  0.29897  0.29356  0.91850  1.0000
  C   C387      1.0  0.06548  0.30259  0.88978  1.0000
  H   H445      1.0  0.04455  0.04482  0.82941  1.0000
  H   H446      1.0  0.10856  0.29161  0.87422  1.0000
  C   C388      1.0  0.30255  0.17181  0.92153  1.0000
  H   H447      1.0  0.00790  0.10859  0.80861  1.0000
  H   H448      1.0  0.05144  0.30787  0.88701  1.0000
  H   H449      1.0  0.03114  0.23158  0.90216  1.0000
  H   H450      1.0  0.10135  0.30443  0.78553  1.0000
  H   H451      1.0  0.99161  0.26165  0.87856  1.0000
  H   H452      1.0  0.29271  0.27089  0.87473  1.0000
  C   C389      1.0  0.29732  0.46652  0.74431  1.0000
  Fe  Fe52      1.0  0.30285  0.27577  0.93848  1.0000
  H   H453      1.0  0.01612  0.03962  0.77249  1.0000
  H   H454      1.0  0.27046  0.00717  0.96535  1.0000
  S   S99       1.0  0.99954  0.05205  0.83557  1.0000
  H   H455      1.0  0.03122  0.16530  0.85474  1.0000
  C   C390      1.0  0.28417  0.23330  0.98276  1.0000
  C   C391      1.0  0.14885  0.49083  0.73650  1.0000
  C   C392      1.0  0.09228  0.26842  0.77645  1.0000
  H   H456      1.0  0.14431  0.33579  0.74652  1.0000
  H   H457      1.0  0.11241  0.32508  0.76312  1.0000
  H   H458      1.0  0.27708  0.05697  0.97596  1.0000
  C   C393      1.0  0.25680  0.31004  0.86200  1.0000
  H   H459      1.0  0.28866  0.10405  0.95020  1.0000
  C   C394      1.0  0.29266  0.14574  0.92074  1.0000
  C   C395      1.0  0.29696  0.41416  0.76393  1.0000
  H   H460      1.0  0.26745  0.07509  0.95682  1.0000
  H   H461      1.0  0.29160  0.07698  0.94576  1.0000
  C   C396      1.0  0.30475  0.28865  0.86969  1.0000
  S   S100      1.0  0.29426  0.10142  0.91966  1.0000
  H   H462      1.0  0.06824  0.07798  0.84612  1.0000
  C   C397      1.0  0.99548  0.17777  0.84867  1.0000
  H   H463      1.0  0.14917  0.31052  0.74021  1.0000
  H   H464      1.0  0.99302  0.16759  0.85862  1.0000
  C   C398      1.0  0.26963  0.29586  0.86241  1.0000
  C   C399      1.0  0.03974  0.04981  0.73954  1.0000
  H   H465      1.0  0.22336  0.47334  0.73725  1.0000
  H   H466      1.0  0.25145  0.27354  0.98135  1.0000
  H   H467      1.0  0.28531  0.99211  0.93818  1.0000
  H   H468      1.0  0.28850  0.39863  0.75630  1.0000
  H   H469      1.0  0.99586  0.47384  0.77902  1.0000
  C   C400      1.0  0.98886  0.47958  0.78804  1.0000
  H   H470      1.0  0.30619  0.34412  0.86520  1.0000
  N   N27       1.0  0.29387  0.30581  0.87015  1.0000
  H   H471      1.0  0.20445  0.27012  0.84318  1.0000
  C   C401      1.0  0.23362  0.30083  0.85509  1.0000
  H   H472      1.0  0.02941  0.18897  0.81933  1.0000
  H   H473      1.0  0.27995  0.09726  0.98143  1.0000
  C   C402      1.0  0.13916  0.32124  0.73785  1.0000
  C   C403      1.0  0.06190  0.99968  0.85216  1.0000
  H   H474      1.0  0.30902  0.31813  0.89151  1.0000
  C   C404      1.0  0.31295  0.31213  0.98085  1.0000
  C   C405      1.0  0.31513  0.00336  0.98534  1.0000
  H   H475      1.0  0.31370  0.32649  0.85246  1.0000
  C   C406      1.0  0.09767  0.99716  0.86132  1.0000
  S   S101      1.0  0.07701  0.47874  0.73640  1.0000
  S   S102      1.0  0.31864  0.05931  0.89821  1.0000
  N   N28       1.0  0.11223  0.30480  0.73657  1.0000
  C   C407      1.0  0.26569  0.99168  0.98618  1.0000
  H   H476      1.0  0.98573  0.04888  0.76034  1.0000
  Fe  Fe53      1.0  0.02167  0.71041  0.03963  1.0000
  S   S103      1.0  0.02782  0.74130  0.05578  1.0000
  C   C408      1.0  0.06247  0.77915  0.98793  1.0000
  Fe  Fe54      1.0  0.04239  0.68620  0.06094  1.0000
  S   S104      1.0  0.04896  0.71503  0.07813  1.0000
  S   S105      1.0  0.05326  0.65504  0.06301  1.0000
  Fe  Fe55      1.0  0.01184  0.71127  0.07148  1.0000
  Fe  Fe56      1.0  0.06464  0.74310  0.06107  1.0000
  S   S106      1.0  0.10063  0.77778  0.06844  1.0000
  S   S107      1.0  0.00414  0.68032  0.05527  1.0000
  S   S108      1.0  0.05978  0.71434  0.04394  1.0000
  Fe  Fe57      1.0  0.26022  0.95469  0.03397  1.0000
  S   S109      1.0  0.22578  0.94542  0.04600  1.0000
  H   H477      1.0  0.17859  0.94116  0.07761  1.0000
  Fe  Fe58      1.0  0.27722  0.92777  0.05581  1.0000
  S   S110      1.0  0.24350  0.91696  0.06871  1.0000
  C   C409      1.0  0.30279  0.84894  0.09964  1.0000
  Fe  Fe59      1.0  0.22160  0.90713  0.04795  1.0000
  S   S111      1.0  0.18576  0.87279  0.04029  1.0000
  Fe  Fe60      1.0  0.25015  0.95624  0.06581  1.0000
  S   S112      1.0  0.25472  0.91570  0.03498  1.0000
  S   S113      1.0  0.28526  0.96788  0.05398  1.0000
  H   H478      1.0  0.99166  0.80907  0.11070  1.0000
  S   S114      1.0  0.07999  0.50849  0.13258  1.0000
  Fe  Fe61      1.0  0.06000  0.55654  0.11861  1.0000
  S   S115      1.0  0.08350  0.56330  0.13867  1.0000
  S   S116      1.0  0.04925  0.58736  0.11496  1.0000
  Fe  Fe62      1.0  0.10412  0.54776  0.12610  1.0000
  S   S117      1.0  0.14588  0.56554  0.12336  1.0000
  Fe  Fe63      1.0  0.05732  0.52377  0.14356  1.0000
  S   S118      1.0  0.04560  0.51312  0.16637  1.0000
  S   S119      1.0  0.08175  0.54271  0.10570  1.0000
  S   S120      1.0  0.03250  0.51785  0.12440  1.0000
  C   C410      1.0  0.19137  0.97912  0.06203  1.0000
  C   C411      1.0  0.03557  0.59246  0.15548  1.0000
  H   H479      1.0  0.21776  0.64384  0.20793  1.0000
  S   S121      1.0  0.30724  0.65202  0.14350  1.0000
  Fe  Fe64      1.0  0.28236  0.64844  0.16153  1.0000
  S   S122      1.0  0.24111  0.63700  0.16272  1.0000
  S   S123      1.0  0.29831  0.62995  0.17571  1.0000
  H   H480      1.0  0.00703  0.58630  0.13295  1.0000
  C   C412      1.0  0.99098  0.69510  0.00217  1.0000
  H   H481      1.0  0.04453  0.59971  0.14525  1.0000
  C   C413      1.0  0.28737  0.87785  0.09449  1.0000
  C   C414      1.0  0.99492  0.49661  0.16757  1.0000
  H   H482      1.0  0.13283  0.95001  0.07314  1.0000
  H   H483      1.0  0.31029  0.98770  0.00615  1.0000
  H   H484      1.0  0.03517  0.60805  0.16165  1.0000
  H   H485      1.0  0.27686  0.66886  0.22800  1.0000
  C   C415      1.0  0.17196  0.58491  0.13473  1.0000
  C   C416      1.0  0.16986  0.59563  0.14762  1.0000
  C   C417      1.0  0.19120  0.61146  0.15600  1.0000
  C   C418      1.0  0.21489  0.61664  0.15171  1.0000
  C   C419      1.0  0.21696  0.60586  0.13885  1.0000
  C   C420      1.0  0.19565  0.59024  0.13040  1.0000
  H   H486      1.0  0.15184  0.59182  0.15110  1.0000
  H   H487      1.0  0.18931  0.61975  0.16589  1.0000
  H   H488      1.0  0.23498  0.60963  0.13536  1.0000
  H   H489      1.0  0.19755  0.58209  0.12045  1.0000
  C   C421      1.0  0.23146  0.60865  0.22932  1.0000
  C   C422      1.0  0.04982  0.60530  0.10014  1.0000
  C   C423      1.0  0.05841  0.60256  0.08691  1.0000
  C   C424      1.0  0.05905  0.61772  0.07568  1.0000
  C   C425      1.0  0.05106  0.63577  0.07744  1.0000
  C   C426      1.0  0.04228  0.63835  0.09065  1.0000
  C   C427      1.0  0.04173  0.62327  0.10190  1.0000
  H   H490      1.0  0.06452  0.58878  0.08529  1.0000
  H   H491      1.0  0.06587  0.61552  0.06553  1.0000
  H   H492      1.0  0.03609  0.65211  0.09222  1.0000
  H   H493      1.0  0.03503  0.62564  0.11204  1.0000
  C   C428      1.0  0.12348  0.80453  0.06038  1.0000
  C   C429      1.0  0.12334  0.80773  0.04572  1.0000
  C   C430      1.0  0.14227  0.82898  0.03986  1.0000
  C   C431      1.0  0.16154  0.84736  0.04852  1.0000
  C   C432      1.0  0.16166  0.84421  0.06318  1.0000
  C   C433      1.0  0.14279  0.82290  0.06903  1.0000
  H   H494      1.0  0.10873  0.79378  0.03891  1.0000
  H   H495      1.0  0.14204  0.83112  0.02849  1.0000
  H   H496      1.0  0.17635  0.85805  0.07001  1.0000
  H   H497      1.0  0.14313  0.82061  0.08038  1.0000
  S   S124      1.0  0.30825  0.68695  0.17063  1.0000
  S   S125      1.0  0.24254  0.97451  0.08532  1.0000
  H   H498      1.0  0.20628  0.61100  0.20499  1.0000
  N   N29       1.0  0.17249  0.97240  0.07298  1.0000
  S   S126      1.0  0.30109  0.90838  0.06015  1.0000
  S   S127      1.0  0.25860  0.97244  0.01289  1.0000
  H   H499      1.0  0.19031  0.96242  0.05633  1.0000
  H   H500      1.0  0.30509  0.91287  0.10616  1.0000
  C   C434      1.0  0.00053  0.67990  0.99684  1.0000
  H   H501      1.0  0.99446  0.59517  0.14768  1.0000
  H   H502      1.0  0.22003  0.63124  0.19085  1.0000
  H   H503      1.0  0.98937  0.86327  0.12940  1.0000
  H   H504      1.0  0.21818  0.59260  0.22309  1.0000
  C   C435      1.0  0.01698  0.50202  0.17495  1.0000
  H   H505      1.0  0.14396  0.96928  0.05818  1.0000
  C   C436      1.0  0.28677  0.85501  0.09196  1.0000
  H   H506      1.0  0.19382  0.96743  0.08975  1.0000
  H   H507      1.0  0.23481  0.59374  0.20206  1.0000
  H   H508      1.0  0.24940  0.61380  0.18816  1.0000
  H   H509      1.0  0.01335  0.67672  0.00340  1.0000
  H   H510      1.0  0.02012  0.55517  0.13539  1.0000
  H   H511      1.0  0.27557  0.88296  0.08821  1.0000
  H   H512      1.0  0.14290  0.97238  0.09447  1.0000
  Fe  Fe65      1.0  0.05638  0.50439  0.11309  1.0000
  N   N30       1.0  0.13445  0.62342  0.10431  1.0000
  C   C437      1.0  0.12302  0.61500  0.11819  1.0000
  C   C438      1.0  0.12651  0.60103  0.09476  1.0000
  C   C439      1.0  0.16156  0.63511  0.10682  1.0000
  C   C440      1.0  0.12762  0.64111  0.09761  1.0000
  C   C441      1.0  0.11207  0.64956  0.10409  1.0000
  C   C442      1.0  0.13621  0.65007  0.08400  1.0000
  C   C443      1.0  0.10538  0.66562  0.09721  1.0000
  C   C444      1.0  0.12902  0.66578  0.07712  1.0000
  C   C445      1.0  0.11353  0.67343  0.08369  1.0000
  H   H513      1.0  0.12888  0.63073  0.12615  1.0000
  H   H514      1.0  0.10253  0.60526  0.11698  1.0000
  H   H515      1.0  0.12842  0.60166  0.12291  1.0000
  H   H516      1.0  0.10636  0.59233  0.09211  1.0000
  H   H517      1.0  0.13040  0.58682  0.09974  1.0000
  H   H518      1.0  0.13615  0.60512  0.08459  1.0000
  H   H519      1.0  0.16836  0.65232  0.11373  1.0000
  H   H520      1.0  0.16717  0.62235  0.11218  1.0000
  H   H521      1.0  0.17157  0.64011  0.09677  1.0000
  H   H522      1.0  0.10411  0.64346  0.11426  1.0000
  H   H523      1.0  0.14811  0.64452  0.07843  1.0000
  H   H524      1.0  0.09286  0.67122  0.10210  1.0000
  H   H525      1.0  0.13498  0.67164  0.06651  1.0000
  H   H526      1.0  0.10721  0.68488  0.07815  1.0000
  N   N31       1.0  0.23408  0.83858  0.04606  1.0000
  C   C446      1.0  0.22623  0.84313  0.03189  1.0000
  C   C447      1.0  0.23408  0.85703  0.05663  1.0000
  C   C448      1.0  0.25993  0.84308  0.04511  1.0000
  C   C449      1.0  0.21667  0.81331  0.05031  1.0000
  C   C450      1.0  0.22417  0.79528  0.05376  1.0000
  C   C451      1.0  0.19129  0.80627  0.05139  1.0000
  C   C452      1.0  0.20712  0.77177  0.05804  1.0000
  C   C453      1.0  0.17444  0.78286  0.05575  1.0000
  C   C454      1.0  0.18233  0.76561  0.05906  1.0000
  H   H527      1.0  0.20801  0.84280  0.03196  1.0000
  H   H528      1.0  0.23932  0.86176  0.02818  1.0000
  H   H529      1.0  0.22488  0.82895  0.02375  1.0000
  H   H530      1.0  0.21600  0.85700  0.05683  1.0000
  H   H531      1.0  0.24793  0.87620  0.05424  1.0000
  H   H532      1.0  0.23859  0.85352  0.06755  1.0000
  H   H533      1.0  0.26147  0.83015  0.03713  1.0000
  H   H534      1.0  0.27236  0.86226  0.04177  1.0000
  H   H535      1.0  0.26769  0.84160  0.05561  1.0000
  H   H536      1.0  0.24306  0.79888  0.05325  1.0000
  H   H537      1.0  0.18426  0.81895  0.04893  1.0000
  H   H538      1.0  0.21313  0.75823  0.06060  1.0000
  H   H539      1.0  0.15514  0.77816  0.05662  1.0000
  H   H540      1.0  0.16915  0.74746  0.06243  1.0000
  N   N32       1.0  0.24598  0.63256  0.20710  1.0000
  C   C455      1.0  0.26489  0.65654  0.20187  1.0000
  C   C456      1.0  0.24958  0.61259  0.19996  1.0000
  C   C457      1.0  0.22144  0.62951  0.20257  1.0000
  H   H541      1.0  0.28385  0.65979  0.20474  1.0000
  H   H542      1.0  0.26374  0.65700  0.19007  1.0000
  H   H543      1.0  0.26257  0.67245  0.20611  1.0000
  H   H544      1.0  0.26750  0.61371  0.20345  1.0000
  H   H545      1.0  0.14711  0.94153  0.05930  1.0000
  C   C458      1.0  0.14803  0.95769  0.06561  1.0000
  H   H546      1.0  0.18909  0.99067  0.05379  1.0000
  S   S128      1.0  0.00194  0.95798  0.17515  1.0000
  C   C459      1.0  0.01657  0.49877  0.18971  1.0000
  H   H547      1.0  0.99364  0.53388  0.14448  1.0000
  C   C460      1.0  0.24728  0.63097  0.22276  1.0000
  H   H548      1.0  0.02401  0.54470  0.15233  1.0000
  H   H549      1.0  0.30215  0.83134  0.09700  1.0000
  H   H550      1.0  0.99471  0.49846  0.15620  1.0000
  S   S129      1.0  0.99988  0.71062  0.01933  1.0000
  C   C461      1.0  0.26381  0.65122  0.23191  1.0000
  H   H551      1.0  0.27420  0.84221  0.08379  1.0000
  H   H552      1.0  0.31402  0.81882  0.11628  1.0000
  H   H553      1.0  0.00734  0.54302  0.19883  1.0000
  C   C462      1.0  0.99818  0.56342  0.16671  1.0000
  H   H554      1.0  0.07001  0.79010  0.99778  1.0000
  H   H555      1.0  0.30793  0.83396  0.13121  1.0000
  C   C463      1.0  0.04333  0.75501  0.98825  1.0000
  C   C464      1.0  0.17661  0.95647  0.08315  1.0000
  H   H556      1.0  0.04812  0.58706  0.16128  1.0000
  H   H557      1.0  0.31164  0.63308  0.21329  1.0000
  N   N33       1.0  0.01034  0.57145  0.15302  1.0000
  H   H558      1.0  0.16136  0.94770  0.09056  1.0000
  C   C465      1.0  0.31638  0.64431  0.22308  1.0000
  C   C466      1.0  0.99690  0.57961  0.14294  1.0000
  H   H559      1.0  0.21035  0.98926  0.06688  1.0000
  H   H560      1.0  0.02776  0.55812  0.17666  1.0000
  C   C467      1.0  0.30402  0.89472  0.10466  1.0000
  H   H561      1.0  0.03596  0.74720  0.99837  1.0000
  C   C468      1.0  0.00990  0.55717  0.17788  1.0000
  C   C469      1.0  0.15627  0.99072  0.09163  1.0000
  C   C470      1.0  0.01213  0.55039  0.14603  1.0000
  H   H562      1.0  0.99187  0.88830  0.15057  1.0000
  C   C471      1.0  0.27668  0.98605  0.99786  1.0000
  H   H563      1.0  0.00612  0.82297  0.12775  1.0000
  H   H564      1.0  0.03347  0.50275  0.19554  1.0000
  H   H565      1.0  0.24651  0.98729  0.98648  1.0000
  H   H566      1.0  0.99832  0.83997  0.11506  1.0000
  C   C472      1.0  0.99829  0.54828  0.19061  1.0000
  C   C473      1.0  0.99195  0.82155  0.11967  1.0000
  C   C474      1.0  0.31024  0.63291  0.23627  1.0000
  Fe  Fe66      1.0  0.05327  0.73968  0.41897  1.0000
  S   S130      1.0  0.05581  0.71378  0.43462  1.0000
  S   S131      1.0  0.08594  0.77296  0.40957  1.0000
  Fe  Fe67      1.0  0.99684  0.70823  0.41478  1.0000
  C   C475      1.0  0.26455  0.64894  0.24664  1.0000
  H   H567      1.0  0.09767  0.87421  0.40250  1.0000
  Fe  Fe68      1.0  0.02166  0.71217  0.44419  1.0000
  S   S132      1.0  0.01693  0.71838  0.46798  1.0000
  Fe  Fe69      1.0  0.02986  0.68305  0.41914  1.0000
  S   S133      1.0  0.03664  0.64931  0.41576  1.0000
  S   S134      1.0  0.02117  0.74064  0.42956  1.0000
  S   S135      1.0  0.02864  0.70892  0.40296  1.0000
  Fe  Fe70      1.0  0.26267  0.94751  0.43578  1.0000
  S   S136      1.0  0.22199  0.93406  0.43233  1.0000
  H   H568      1.0  0.30257  0.58319  0.27329  1.0000
  Fe  Fe71      1.0  0.26640  0.92275  0.40749  1.0000
  S   S137      1.0  0.22558  0.90744  0.40237  1.0000
  S   S138      1.0  0.28624  0.91357  0.38957  1.0000
  Fe  Fe72      1.0  0.23071  0.94508  0.40967  1.0000
  S   S139      1.0  0.20898  0.96086  0.39742  1.0000
  Fe  Fe73      1.0  0.21958  0.89733  0.42518  1.0000
  S   S140      1.0  0.18947  0.86110  0.43381  1.0000
  S   S141      1.0  0.27160  0.96101  0.41337  1.0000
  S   S142      1.0  0.26013  0.91011  0.43004  1.0000
  Fe  Fe74      1.0  0.06283  0.50873  0.36374  1.0000
  S   S143      1.0  0.08305  0.50995  0.34390  1.0000
  Fe  Fe75      1.0  0.06848  0.56134  0.35986  1.0000
  S   S144      1.0  0.08949  0.56577  0.33983  1.0000
  S   S145      1.0  0.06009  0.59409  0.36377  1.0000
  Fe  Fe76      1.0  0.06126  0.52661  0.33345  1.0000
  S   S146      1.0  0.05094  0.51963  0.30952  1.0000
  Fe  Fe77      1.0  0.11010  0.54918  0.35130  1.0000
  S   S147      1.0  0.15102  0.55990  0.34909  1.0000
  S   S148      1.0  0.03898  0.52296  0.35268  1.0000
  S   S149      1.0  0.09119  0.54717  0.37201  1.0000
  H   H569      1.0  0.29839  0.57258  0.29722  1.0000
  S   S150      1.0  0.30119  0.67745  0.29600  1.0000
  C   C476      1.0  0.24933  0.62656  0.25267  1.0000
  C   C477      1.0  0.10985  0.65574  0.40035  1.0000
  Fe  Fe78      1.0  0.28061  0.65042  0.31290  1.0000
  S   S151      1.0  0.24105  0.64358  0.31658  1.0000
  S   S152      1.0  0.28932  0.62139  0.30369  1.0000
  C   C478      1.0  0.02145  0.50499  0.30043  1.0000
  C   C479      1.0  0.10137  0.86667  0.41192  1.0000
  C   C480      1.0  0.31340  0.56727  0.29663  1.0000
  C   C481      1.0  0.15647  0.92006  0.42758  1.0000
  H   H570      1.0  0.14764  0.71974  0.38419  1.0000
  C   C482      1.0  0.31746  0.57779  0.27217  1.0000
  H   H571      1.0  0.13098  0.64407  0.38723  1.0000
  H   H572      1.0  0.15787  0.56460  0.25971  1.0000
  C   C483      1.0  0.17620  0.58426  0.34071  1.0000
  C   C484      1.0  0.19858  0.58330  0.33988  1.0000
  C   C485      1.0  0.21869  0.60137  0.33273  1.0000
  C   C486      1.0  0.21672  0.62078  0.32630  1.0000
  C   C487      1.0  0.19438  0.62182  0.32720  1.0000
  C   C488      1.0  0.17429  0.60378  0.33438  1.0000
  H   H573      1.0  0.20037  0.56837  0.34474  1.0000
  H   H574      1.0  0.23568  0.60025  0.33216  1.0000
  H   H575      1.0  0.19261  0.63673  0.32229  1.0000
  H   H576      1.0  0.15734  0.60497  0.33497  1.0000
  H   H577      1.0  0.19782  0.59620  0.27068  1.0000
  C   C489      1.0  0.04233  0.63385  0.40099  1.0000
  C   C490      1.0  0.04482  0.64237  0.38717  1.0000
  C   C491      1.0  0.05029  0.62998  0.37600  1.0000
  C   C492      1.0  0.05330  0.60888  0.37842  1.0000
  C   C493      1.0  0.05068  0.60028  0.39222  1.0000
  C   C494      1.0  0.04526  0.61270  0.40340  1.0000
  H   H578      1.0  0.04255  0.65849  0.38507  1.0000
  H   H579      1.0  0.05226  0.63686  0.36540  1.0000
  H   H580      1.0  0.05285  0.58409  0.39431  1.0000
  H   H581      1.0  0.04342  0.60590  0.41402  1.0000
  C   C495      1.0  0.11506  0.79663  0.41651  1.0000
  C   C496      1.0  0.13064  0.81480  0.40736  1.0000
  C   C497      1.0  0.15370  0.83421  0.41233  1.0000
  C   C498      1.0  0.16142  0.83594  0.42661  1.0000
  C   C499      1.0  0.14611  0.81740  0.43567  1.0000
  C   C500      1.0  0.12311  0.79785  0.43067  1.0000
  H   H582      1.0  0.12476  0.81392  0.39635  1.0000
  H   H583      1.0  0.16550  0.84779  0.40511  1.0000
  H   H584      1.0  0.15192  0.81840  0.44671  1.0000
  H   H585      1.0  0.11148  0.78400  0.43785  1.0000
  H   H586      1.0  0.08106  0.72615  0.39945  1.0000
  H   H587      1.0  0.24499  0.94978  0.47201  1.0000
  H   H588      1.0  0.14440  0.87354  0.43774  1.0000
  H   H589      1.0  0.17324  0.57099  0.31186  1.0000
  C   C501      1.0  0.12776  0.65941  0.39058  1.0000
  H   H590      1.0  0.11194  0.56042  0.30551  1.0000
  C   C502      1.0  0.02020  0.50363  0.28544  1.0000
  H   H591      1.0  0.27150  0.94280  0.34998  1.0000
  H   H592      1.0  0.03208  0.54975  0.32284  1.0000
  C   C503      1.0  0.08254  0.84382  0.41587  1.0000
  H   H593      1.0  0.13198  0.72766  0.42292  1.0000
  C   C504      1.0  0.11830  0.69910  0.39889  1.0000
  N   N34       1.0  0.00764  0.56385  0.32971  1.0000
  H   H594      1.0  0.30846  0.55807  0.26821  1.0000
  C   C505      1.0  0.11334  0.72306  0.41847  1.0000
  C   C506      1.0  0.10512  0.67521  0.40446  1.0000
  N   N35       1.0  0.28037  0.96909  0.36782  1.0000
  H   H595      1.0  0.20510  0.59888  0.29676  1.0000
  C   C507      1.0  0.25707  0.97952  0.34922  1.0000
  H   H596      1.0  0.14765  0.75014  0.40020  1.0000
  H   H597      1.0  0.17138  0.93818  0.42423  1.0000
  C   C508      1.0  0.08624  0.71118  0.39756  1.0000
  H   H598      1.0  0.07150  0.81438  0.43051  1.0000
  C   C509      1.0  0.12804  0.74317  0.39665  1.0000
  H   H599      1.0  0.15052  0.53559  0.32180  1.0000
  H   H600      1.0  0.12293  0.75773  0.40007  1.0000
  C   C510      1.0  0.10420  0.51478  0.29655  1.0000
  H   H601      1.0  0.30769  0.90116  0.36596  1.0000
  H   H602      1.0  0.18488  0.98228  0.38053  1.0000
  H   H603      1.0  0.29031  0.94007  0.36377  1.0000
  H   H604      1.0  0.01397  0.55202  0.30131  1.0000
  H   H605      1.0  0.13381  0.56434  0.31963  1.0000
  H   H606      1.0  0.12341  0.91855  0.40756  1.0000
  H   H607      1.0  0.11073  0.83463  0.44472  1.0000
  H   H608      1.0  0.03706  0.51105  0.27972  1.0000
  H   H609      1.0  0.04575  0.57522  0.33552  1.0000
  C   C511      1.0  0.14248  0.54933  0.27968  1.0000
  C   C512      1.0  0.22071  0.98965  0.38892  1.0000
  H   H610      1.0  0.16546  0.91376  0.43570  1.0000
  H   H611      1.0  0.09916  0.63754  0.40455  1.0000
  S   S153      1.0  0.00182  0.97114  0.29758  1.0000
  H   H612      1.0  0.25998  0.93917  0.38156  1.0000
  H   H613      1.0  0.12536  0.53633  0.27431  1.0000
  H   H614      1.0  0.13256  0.90328  0.39389  1.0000
  H   H615      1.0  0.10341  0.53909  0.31951  1.0000
  H   H616      1.0  0.09055  0.67115  0.41178  1.0000
  H   H617      1.0  0.10947  0.73859  0.42164  1.0000
  H   H618      1.0  0.15515  0.68536  0.37737  1.0000
  H   H619      1.0  0.23687  0.98999  0.33426  1.0000
  C   C513      1.0  0.13583  0.52223  0.31423  1.0000
  H   H620      1.0  0.25084  0.62477  0.26405  1.0000
  C   C514      1.0  0.16411  0.89595  0.40958  1.0000
  H   H621      1.0  0.07573  0.97858  0.28167  1.0000
  N   N36       1.0  0.11183  0.71892  0.40278  1.0000
  H   H622      1.0  0.30210  0.83812  0.37713  1.0000
  N   N37       1.0  0.14526  0.90195  0.41530  1.0000
  C   C515      1.0  0.27652  0.98751  0.35973  1.0000
  H   H623      1.0  0.17162  0.88834  0.41780  1.0000
  H   H624      1.0  0.27776  0.66435  0.25343  1.0000
  C   C516      1.0  0.12429  0.87872  0.41978  1.0000
  C   C517      1.0  0.08585  0.83242  0.42772  1.0000
  C   C518      1.0  0.12708  0.86642  0.43171  1.0000
  H   H625      1.0  0.08381  0.70633  0.38594  1.0000
  C   C519      1.0  0.10797  0.84384  0.43571  1.0000
  C   C520      1.0  0.29631  0.85693  0.39478  1.0000
  H   H626      1.0  0.25152  0.96356  0.38205  1.0000
  C   C521      1.0  0.31711  0.91932  0.38683  1.0000
  C   C522      1.0  0.18769  0.58484  0.29193  1.0000
  C   C523      1.0  0.99536  0.69849  0.48023  1.0000
  S   S154      1.0  0.31335  0.66603  0.32859  1.0000
  H   H627      1.0  0.27770  0.85220  0.39116  1.0000
  H   H628      1.0  0.09454  0.52264  0.28993  1.0000
  C   C524      1.0  0.16107  0.56558  0.27113  1.0000
  H   H629      1.0  0.07255  0.69467  0.40297  1.0000
  H   H630      1.0  0.12645  0.74199  0.38482  1.0000
  C   C525      1.0  0.06526  0.98780  0.28600  1.0000
  H   H631      1.0  0.03044  0.98549  0.26402  1.0000
  C   C526      1.0  0.31050  0.84908  0.38681  1.0000
  C   C527      1.0  0.03254  0.56758  0.32619  1.0000
  H   H632      1.0  0.15432  0.93253  0.40151  1.0000
  C   C528      1.0  0.14610  0.55040  0.29472  1.0000
  C   C529      1.0  0.30045  0.98042  0.37901  1.0000
  C   C530      1.0  0.99730  0.49287  0.27775  1.0000
  H   H633      1.0  0.09967  0.70658  0.42391  1.0000
  C   C531      1.0  0.25744  0.95264  0.37496  1.0000
  S   S155      1.0  0.28745  0.97463  0.45376  1.0000
  C   C532      1.0  0.28267  0.97841  0.47214  1.0000
  C   C533      1.0  0.11866  0.55036  0.31256  1.0000
  C   C534      1.0  0.14126  0.68268  0.38501  1.0000
  H   H634      1.0  0.30256  0.96604  0.38505  1.0000
  H   H635      1.0  0.14241  0.92360  0.43292  1.0000
  C   C535      1.0  0.26009  0.96414  0.47835  1.0000
  H   H636      1.0  0.01309  0.55383  0.35082  1.0000
  C   C536      1.0  0.31657  0.64719  0.24916  1.0000
  S   S156      1.0  0.99604  0.67975  0.42991  1.0000
  C   C537      1.0  0.28664  0.95373  0.35796  1.0000
  H   H637      1.0  0.24499  0.96004  0.34685  1.0000
  C   C538      1.0  0.23272  0.60646  0.24404  1.0000
  H   H638      1.0  0.30489  0.54695  0.29422  1.0000
  C   C539      1.0  0.13671  0.70233  0.38905  1.0000
  C   C540      1.0  0.30627  0.87170  0.40716  1.0000
  C   C541      1.0  0.16928  0.56867  0.30054  1.0000
  H   H639      1.0  0.15635  0.88191  0.40058  1.0000
  H   H640      1.0  0.04064  0.58101  0.31767  1.0000
  H   H641      1.0  0.06542  0.83456  0.40955  1.0000
  H   H642      1.0  0.24178  0.94133  0.36738  1.0000
  S   S157      1.0  0.30799  0.63182  0.26545  1.0000
  N   N38       1.0  0.12648  0.53456  0.30422  1.0000
  H   H643      1.0  0.17999  0.91261  0.40566  1.0000
  H   H644      1.0  0.06776  0.98910  0.29782  1.0000
  H   H645      1.0  0.99270  0.58677  0.33861  1.0000
  C   C542      1.0  0.18358  0.58334  0.27725  1.0000
  C   C543      1.0  0.13838  0.91450  0.40410  1.0000
  H   H646      1.0  0.10879  0.50242  0.28979  1.0000
  H   H647      1.0  0.01593  0.60141  0.32581  1.0000
  H   H648      1.0  0.30345  0.96548  0.35211  1.0000
  Fe  Fe79      1.0  0.31213  0.64922  0.28791  1.0000
  H   H649      1.0  0.12110  0.50946  0.32113  1.0000
  H   H650      1.0  0.14337  0.51136  0.30842  1.0000
  H   H651      1.0  0.02466  0.98029  0.23825  1.0000
  C   C544      1.0  0.01016  0.58825  0.33458  1.0000
  H   H652      1.0  0.04540  0.97511  0.28362  1.0000
  H   H653      1.0  0.02422  0.59687  0.34351  1.0000
  C   C545      1.0  0.98941  0.55341  0.31759  1.0000
  H   H654      1.0  0.99035  0.89534  0.32569  1.0000
  H   H655      1.0  0.09018  0.50280  0.30409  1.0000
  C   C546      1.0  0.99561  0.54860  0.30378  1.0000
  C   C547      1.0  0.99946  0.49531  0.30766  1.0000
  H   H656      1.0  0.22105  0.58901  0.24877  1.0000
  C   C548      1.0  0.99929  0.54690  0.34170  1.0000
  H   H657      1.0  0.99627  0.52803  0.33832  1.0000
  H   H658      1.0  0.00003  0.49608  0.31916  1.0000
  H   H659      1.0  0.29543  0.87835  0.41306  1.0000
  H   H660      1.0  0.99669  0.49221  0.26625  1.0000
  H   H661      1.0  0.31851  0.49408  0.38272  1.0000
  H   H662      1.0  0.30048  0.61289  0.23649  1.0000
  H   H663      1.0  0.08865  0.71273  0.69049  1.0000
  H   H664      1.0  0.20448  0.91528  0.63098  1.0000
  N   N39       1.0  0.00608  0.85692  0.62576  1.0000
  S   S158      1.0  0.01249  0.96120  0.64088  1.0000
  Fe  Fe80      1.0  0.07729  0.84716  0.61625  1.0000
  S   S159      1.0  0.08241  0.85134  0.64017  1.0000
  S   S160      1.0  0.03994  0.82004  0.60546  1.0000
  Fe  Fe81      1.0  0.12768  0.89360  0.61231  1.0000
  S   S161      1.0  0.13576  0.90107  0.63589  1.0000
  S   S162      1.0  0.15290  0.91289  0.59406  1.0000
  Fe  Fe82      1.0  0.12174  0.85984  0.63705  1.0000
  S   S163      1.0  0.14447  0.84312  0.64725  1.0000
  Fe  Fe83      1.0  0.09576  0.89217  0.63719  1.0000
  S   S164      1.0  0.08311  0.91286  0.65278  1.0000
  S   S165      1.0  0.11563  0.85269  0.61324  1.0000
  S   S166      1.0  0.08864  0.88768  0.61353  1.0000
  Fe  Fe84      1.0  0.02571  0.52109  0.72762  1.0000
  H   H665      1.0  0.99530  0.54825  0.61876  1.0000
  S   S167      1.0  0.06535  0.53412  0.72221  1.0000
  Fe  Fe85      1.0  0.17551  0.80849  0.72598  1.0000
  S   S168      1.0  0.18677  0.77980  0.71905  1.0000
  S   S169      1.0  0.15648  0.82630  0.71316  1.0000
  C   C549      1.0  0.98747  0.83085  0.62219  1.0000
  C   C550      1.0  0.98904  0.49942  0.67100  1.0000
  C   C551      1.0  0.26850  0.96788  0.62924  1.0000
  C   C552      1.0  0.23455  0.92471  0.58780  1.0000
  C   C553      1.0  0.30485  0.96759  0.63914  1.0000
  H   H666      1.0  0.04248  0.49536  0.69787  1.0000
  C   C554      1.0  0.14815  0.83926  0.66567  1.0000
  C   C555      1.0  0.13558  0.84516  0.67603  1.0000
  C   C556      1.0  0.13846  0.84110  0.69047  1.0000
  C   C557      1.0  0.15390  0.83110  0.69476  1.0000
  C   C558      1.0  0.16651  0.82519  0.68441  1.0000
  C   C559      1.0  0.16360  0.82923  0.66995  1.0000
  H   H667      1.0  0.12356  0.85278  0.67292  1.0000
  H   H668      1.0  0.12864  0.84577  0.69837  1.0000
  H   H669      1.0  0.17852  0.81759  0.68755  1.0000
  H   H670      1.0  0.17332  0.82448  0.66203  1.0000
  H   H671      1.0  0.05095  0.77009  0.54502  1.0000
  C   C560      1.0  0.03297  0.94879  0.64437  1.0000
  C   C561      1.0  0.04052  0.94704  0.65823  1.0000
  C   C562      1.0  0.05608  0.93626  0.66059  1.0000
  C   C563      1.0  0.06443  0.92729  0.64915  1.0000
  C   C564      1.0  0.05738  0.92961  0.63527  1.0000
  C   C565      1.0  0.04162  0.94016  0.63291  1.0000
  H   H672      1.0  0.03408  0.95363  0.66716  1.0000
  H   H673      1.0  0.06152  0.93469  0.67136  1.0000
  H   H674      1.0  0.06421  0.92339  0.62639  1.0000
  H   H675      1.0  0.03602  0.94157  0.62214  1.0000
  H   H676      1.0  0.27356  0.94400  0.58508  1.0000
  H   H677      1.0  0.99442  0.90143  0.66383  1.0000
  H   H678      1.0  0.02774  0.86046  0.60736  1.0000
  H   H679      1.0  0.10825  0.75357  0.72355  1.0000
  C   C566      1.0  0.01686  0.68783  0.52788  1.0000
  C   C567      1.0  0.05019  0.75764  0.53591  1.0000
  C   C568      1.0  0.03195  0.71378  0.52681  1.0000
  H   H680      1.0  0.99602  0.82011  0.61720  1.0000
  C   C569      1.0  0.19434  0.95538  0.60513  1.0000
  C   C570      1.0  0.18133  0.94073  0.59306  1.0000
  C   C571      1.0  0.19174  0.94755  0.57969  1.0000
  C   C572      1.0  0.21484  0.96863  0.57834  1.0000
  S   S170      1.0  0.12974  0.71797  0.73470  1.0000
  H   H681      1.0  0.18655  0.95057  0.61547  1.0000
  H   H682      1.0  0.18189  0.93637  0.57028  1.0000
  H   H683      1.0  0.01662  0.51511  0.68827  1.0000
  C   C573      1.0  0.01719  0.86903  0.61243  1.0000
  H   H684      1.0  0.25111  0.90146  0.62211  1.0000
  H   H685      1.0  0.28352  0.92873  0.60711  1.0000
  C   C574      1.0  0.99411  0.87025  0.63277  1.0000
  C   C575      1.0  0.00848  0.74153  0.58403  1.0000
  C   C576      1.0  0.03268  0.75342  0.59002  1.0000
  C   C577      1.0  0.04269  0.77743  0.59656  1.0000
  C   C578      1.0  0.02858  0.78988  0.59719  1.0000
  C   C579      1.0  0.00442  0.77803  0.59115  1.0000
  H   H686      1.0  0.04107  0.87536  0.63738  1.0000
  H   H687      1.0  0.04372  0.74391  0.58971  1.0000
  H   H688      1.0  0.06126  0.78625  0.60117  1.0000
  H   H689      1.0  0.06103  0.72587  0.55033  1.0000
  H   H690      1.0  0.09536  0.71380  0.70927  1.0000
  N   N40       1.0  0.19990  0.88378  0.61792  1.0000
  C   C580      1.0  0.20753  0.87220  0.62935  1.0000
  C   C581      1.0  0.18992  0.89910  0.62475  1.0000
  C   C582      1.0  0.17973  0.86335  0.60920  1.0000
  H   H691      1.0  0.22044  0.88625  0.63739  1.0000
  H   H692      1.0  0.19152  0.85932  0.63545  1.0000
  H   H693      1.0  0.21604  0.86111  0.62487  1.0000
  H   H694      1.0  0.17515  0.88813  0.63213  1.0000
  H   H695      1.0  0.18167  0.90646  0.61680  1.0000
  H   H696      1.0  0.18684  0.85276  0.60273  1.0000
  H   H697      1.0  0.16508  0.85004  0.61596  1.0000
  H   H698      1.0  0.16997  0.87011  0.60187  1.0000
  H   H699      1.0  0.13545  0.74750  0.70838  1.0000
  C   C583      1.0  0.04245  0.70480  0.50305  1.0000
  C   C584      1.0  0.99715  0.50494  0.68545  1.0000
  C   C585      1.0  0.98883  0.89312  0.65316  1.0000
  C   C586      1.0  0.21553  0.90907  0.59627  1.0000
  H   H700      1.0  0.26832  0.94584  0.64668  1.0000
  H   H701      1.0  0.05158  0.71133  0.49314  1.0000
  H   H702      1.0  0.08458  0.67195  0.73485  1.0000
  H   H703      1.0  0.24095  0.49852  0.70113  1.0000
  C   C587      1.0  0.25895  0.93174  0.59170  1.0000
  H   H704      1.0  0.22725  0.98775  0.61316  1.0000
  N   N41       1.0  0.10285  0.74899  0.70072  1.0000
  C   C588      1.0  0.08816  0.72159  0.70090  1.0000
  C   C589      1.0  0.12908  0.75501  0.69948  1.0000
  C   C590      1.0  0.10078  0.75990  0.71459  1.0000
  C   C591      1.0  0.09343  0.75845  0.68906  1.0000
  C   C592      1.0  0.06876  0.75453  0.68888  1.0000
  C   C593      1.0  0.10808  0.77161  0.67765  1.0000
  C   C594      1.0  0.05950  0.76354  0.67810  1.0000
  C   C595      1.0  0.09855  0.78037  0.66688  1.0000
  C   C596      1.0  0.07441  0.77651  0.66714  1.0000
  C   C597      1.0  0.02595  0.85634  0.63473  1.0000
  S   S171      1.0  0.99522  0.97153  0.71124  1.0000
  H   H705      1.0  0.00087  0.73254  0.53117  1.0000
  H   H706      1.0  0.13205  0.74676  0.68950  1.0000
  C   C598      1.0  0.27625  0.98738  0.50127  1.0000
  H   H707      1.0  0.14137  0.77546  0.69989  1.0000
  H   H708      1.0  0.08145  0.75471  0.71703  1.0000
  C   C599      1.0  0.29380  0.53454  0.72541  1.0000
  H   H709      1.0  0.11121  0.78056  0.71476  1.0000
  H   H710      1.0  0.05650  0.74463  0.69715  1.0000
  H   H711      1.0  0.12709  0.77577  0.67687  1.0000
  H   H712      1.0  0.04071  0.76063  0.67827  1.0000
  H   H713      1.0  0.11012  0.79064  0.65835  1.0000
  H   H714      1.0  0.06736  0.78376  0.65886  1.0000
  H   H715      1.0  0.19698  0.90472  0.59291  1.0000
  S   S172      1.0  0.25737  0.80416  0.73374  1.0000
  C   C600      1.0  0.04481  0.72181  0.51402  1.0000
  S   S173      1.0  0.98889  0.50342  0.71460  1.0000
  C   C601      1.0  0.24553  0.90730  0.61262  1.0000
  C   C602      1.0  0.22035  0.89966  0.60888  1.0000
  H   H716      1.0  0.23030  0.93164  0.57820  1.0000
  C   C603      1.0  0.26445  0.92307  0.60408  1.0000
  H   H717      1.0  0.00320  0.86762  0.60430  1.0000
  H   H718      1.0  0.22166  0.50928  0.72877  1.0000
  C   C604      1.0  0.01464  0.67103  0.51684  1.0000
  C   C605      1.0  0.28795  0.82974  0.73460  1.0000
  C   C606      1.0  0.21748  0.97646  0.60378  1.0000
  H   H719      1.0  0.05638  0.74112  0.51205  1.0000
  Fe  Fe86      1.0  0.99637  0.97584  0.65806  1.0000
  H   H720      1.0  0.98765  0.53334  0.63528  1.0000
  N   N42       1.0  0.03355  0.73117  0.53858  1.0000
  H   H721      1.0  0.00612  0.68032  0.53713  1.0000
  H   H722      1.0  0.24710  0.53238  0.71977  1.0000
  H   H723      1.0  0.00918  0.74154  0.54970  1.0000
  C   C607      1.0  0.04284  0.72519  0.55181  1.0000
  C   C608      1.0  0.00874  0.72865  0.54094  1.0000
  H   H724      1.0  0.23931  0.95762  0.49740  1.0000
  H   H725      1.0  0.01892  0.84674  0.64478  1.0000
  H   H726      1.0  0.22251  0.97358  0.56797  1.0000
  C   C609      1.0  0.27949  0.95912  0.63907  1.0000
  C   C610      1.0  0.25693  0.96866  0.49278  1.0000
  H   H727      1.0  0.06855  0.71547  0.70316  1.0000
  H   H728      1.0  0.06942  0.76108  0.53441  1.0000
  H   H729      1.0  0.02490  0.66652  0.49569  1.0000
  S   S174      1.0  0.99703  0.71134  0.57581  1.0000
  C   C611      1.0  0.31179  0.50333  0.71471  1.0000
  H   H730      1.0  0.04490  0.73831  0.56085  1.0000
  C   C612      1.0  0.24206  0.51785  0.72775  1.0000
  H   H731      1.0  0.03016  0.88906  0.61455  1.0000
  C   C613      1.0  0.99204  0.70888  0.49304  1.0000
  C   C614      1.0  0.99441  0.75403  0.58459  1.0000
  C   C615      1.0  0.02737  0.67950  0.50444  1.0000
  H   H732      1.0  0.04369  0.76370  0.52639  1.0000
  H   H733      1.0  0.99550  0.70975  0.54411  1.0000
  H   H734      1.0  0.03452  0.84620  0.62919  1.0000
  H   H735      1.0  0.03002  0.70645  0.55544  1.0000
  H   H736      1.0  0.31826  0.82123  0.69218  1.0000
  H   H737      1.0  0.24875  0.96133  0.62909  1.0000
  H   H738      1.0  0.99332  0.78746  0.59154  1.0000
  C   C616      1.0  0.00053  0.88061  0.64693  1.0000
  C   C617      1.0  0.27660  0.50962  0.72127  1.0000
  C   C618      1.0  0.98661  0.54808  0.62900  1.0000
  Fe  Fe87      1.0  0.21791  0.79892  0.73584  1.0000
  H   H739      1.0  0.28819  0.54753  0.72979  1.0000
  H   H740      1.0  0.30491  0.80589  0.73357  1.0000
  C   C619      1.0  0.30820  0.82491  0.73426  1.0000
  C   C620      1.0  0.28285  0.98526  0.61955  1.0000
  Fe  Fe88      1.0  0.98661  0.98145  0.68938  1.0000
  C   C621      1.0  0.22791  0.98319  0.59040  1.0000
  H   H741      1.0  0.01498  0.87995  0.65334  1.0000
  H   H742      1.0  0.00218  0.65140  0.51768  1.0000
  H   H743      1.0  0.99814  0.56622  0.63479  1.0000
  H   H744      1.0  0.00247  0.50521  0.66283  1.0000
  C   C622      1.0  0.28643  0.49432  0.71586  1.0000
  H   H745      1.0  0.30452  0.84830  0.70468  1.0000
  H   H746      1.0  0.00192  0.72877  0.49500  1.0000
  N   N43       1.0  0.24983  0.49906  0.72344  1.0000
  H   H747      1.0  0.31335  0.96077  0.64683  1.0000
  C   C623      1.0  0.29265  0.85451  0.73541  1.0000
  C   C624      1.0  0.09950  0.66735  0.73576  1.0000
  H   H748      1.0  0.27744  0.85872  0.73547  1.0000
  H   H749      1.0  0.27343  0.99144  0.61215  1.0000
  C   C625      1.0  0.31716  0.87398  0.73595  1.0000
  C   C626      1.0  0.12406  0.68652  0.73606  1.0000
  H   H750      1.0  0.31863  0.98620  0.59246  1.0000
  H   H751      1.0  0.07500  0.62771  0.73614  1.0000
  H   H752      1.0  0.26335  0.88085  0.78755  1.0000
  H   H753      1.0  0.08238  0.74200  0.82545  1.0000
  C   C627      1.0  0.03356  0.74079  0.97560  1.0000
  C   C628      1.0  0.99387  0.66920  0.98287  1.0000
  Fe  Fe89      1.0  0.07748  0.87514  0.85058  1.0000
  S   S175      1.0  0.09006  0.87437  0.87296  1.0000
  S   S176      1.0  0.04463  0.88236  0.84644  1.0000
  Fe  Fe90      1.0  0.10957  0.85313  0.83877  1.0000
  S   S177      1.0  0.12426  0.85067  0.86073  1.0000
  S   S178      1.0  0.11153  0.83955  0.81601  1.0000
  Fe  Fe91      1.0  0.08491  0.83619  0.86758  1.0000
  S   S179      1.0  0.06645  0.80883  0.88524  1.0000
  Fe  Fe92      1.0  0.12845  0.88921  0.86492  1.0000
  S   S180      1.0  0.15549  0.92191  0.87958  1.0000
  S   S181      1.0  0.07016  0.83601  0.84557  1.0000
  S   S182      1.0  0.11597  0.89253  0.84264  1.0000
  H   H754      1.0  0.00293  0.74476  0.94699  1.0000
  C   C629      1.0  0.98894  0.51184  0.80348  1.0000
  H   H755      1.0  0.17057  0.73745  0.77854  1.0000
  C   C630      1.0  0.01430  0.81842  0.86335  1.0000
  Fe  Fe93      1.0  0.03789  0.52802  0.75996  1.0000
  C   C631      1.0  0.00384  0.74367  0.87491  1.0000
  S   S183      1.0  0.07843  0.54115  0.75687  1.0000
  Fe  Fe94      1.0  0.18386  0.80292  0.75786  1.0000
  S   S184      1.0  0.19534  0.77362  0.75292  1.0000
  S   S185      1.0  0.18584  0.81377  0.78153  1.0000
  H   H756      1.0  0.14181  0.77317  0.79738  1.0000
  C   C632      1.0  0.23183  0.92951  0.91831  1.0000
  H   H757      1.0  0.09217  0.69376  0.79565  1.0000
  H   H758      1.0  0.16145  0.73058  0.79660  1.0000
  C   C633      1.0  0.15970  0.74015  0.78709  1.0000
  H   H759      1.0  0.13514  0.70353  0.76773  1.0000
  S   S186      1.0  0.10733  0.60408  0.73775  1.0000
  H   H760      1.0  0.01435  0.81968  0.90433  1.0000
  N   N44       1.0  0.13347  0.73054  0.78246  1.0000
  C   C634      1.0  0.09264  0.73946  0.81691  1.0000
  H   H761      1.0  0.99028  0.78408  0.91825  1.0000
  H   H762      1.0  0.20023  0.91049  0.90388  1.0000
  H   H763      1.0  0.06983  0.69996  0.81493  1.0000
  H   H764      1.0  0.11616  0.88579  0.80602  1.0000
  H   H765      1.0  0.23173  0.82081  0.76858  1.0000
  S   S187      1.0  0.20788  0.82899  0.74163  1.0000
  C   C635      1.0  0.13294  0.83313  0.80668  1.0000
  C   C636      1.0  0.12793  0.82568  0.79216  1.0000
  C   C637      1.0  0.14410  0.82016  0.78425  1.0000
  C   C638      1.0  0.16554  0.82193  0.79079  1.0000
  C   C639      1.0  0.17052  0.82924  0.80533  1.0000
  C   C640      1.0  0.15438  0.83489  0.81323  1.0000
  H   H766      1.0  0.11138  0.82415  0.78697  1.0000
  H   H767      1.0  0.13990  0.81444  0.77311  1.0000
  H   H768      1.0  0.18694  0.83053  0.81056  1.0000
  H   H769      1.0  0.15851  0.84054  0.82439  1.0000
  C   C641      1.0  0.03943  0.94674  0.82489  1.0000
  C   C642      1.0  0.06241  0.94719  0.82674  1.0000
  C   C643      1.0  0.06445  0.92779  0.83338  1.0000
  C   C644      1.0  0.04343  0.90762  0.83818  1.0000
  C   C645      1.0  0.02050  0.90725  0.83640  1.0000
  C   C646      1.0  0.01848  0.92670  0.82982  1.0000
  H   H770      1.0  0.07875  0.96270  0.82305  1.0000
  H   H771      1.0  0.08229  0.92856  0.83481  1.0000
  H   H772      1.0  0.00411  0.89179  0.84009  1.0000
  H   H773      1.0  0.25709  0.81478  0.76661  1.0000
  H   H774      1.0  0.11832  0.77835  0.81645  1.0000
  H   H775      1.0  0.29550  0.82730  0.77488  1.0000
  H   H776      1.0  0.14049  0.76544  0.77351  1.0000
  C   C647      1.0  0.09869  0.71252  0.79983  1.0000
  C   C648      1.0  0.08561  0.71583  0.81095  1.0000
  H   H777      1.0  0.07927  0.86186  0.81762  1.0000
  H   H778      1.0  0.02423  0.83386  0.85616  1.0000
  H   H779      1.0  0.26245  0.97941  0.92397  1.0000
  C   C649      1.0  0.23951  0.96929  0.88874  1.0000
  C   C650      1.0  0.22264  0.97479  0.89563  1.0000
  C   C651      1.0  0.19710  0.96017  0.89259  1.0000
  C   C652      1.0  0.18802  0.93995  0.88259  1.0000
  C   C653      1.0  0.20490  0.93448  0.87568  1.0000
  C   C654      1.0  0.23044  0.94899  0.87880  1.0000
  H   H780      1.0  0.00384  0.73949  0.91081  1.0000
  C   C655      1.0  0.20770  0.91162  0.91461  1.0000
  H   H781      1.0  0.19828  0.91898  0.86801  1.0000
  H   H782      1.0  0.24329  0.94443  0.87348  1.0000
  H   H783      1.0  0.27206  0.85112  0.80101  1.0000
  C   C656      1.0  0.00984  0.74682  0.90049  1.0000
  C   C657      1.0  0.03134  0.76970  0.89931  1.0000
  C   C658      1.0  0.03920  0.77978  0.88595  1.0000
  C   C659      1.0  0.02535  0.76652  0.87374  1.0000
  H   H784      1.0  0.99461  0.71688  0.95622  1.0000
  H   H785      1.0  0.00068  0.92608  0.82849  1.0000
  H   H786      1.0  0.04189  0.77985  0.90880  1.0000
  H   H787      1.0  0.03132  0.77372  0.86337  1.0000
  C   C660      1.0  0.25191  0.82990  0.76703  1.0000
  H   H788      1.0  0.23475  0.85662  0.78050  1.0000
  H   H789      1.0  0.04355  0.94740  0.78865  1.0000
  C   C661      1.0  0.30662  0.88762  0.77449  1.0000
  C   C662      1.0  0.03406  0.71143  0.94983  1.0000
  C   C663      1.0  0.12621  0.75676  0.80088  1.0000
  H   H790      1.0  0.14220  0.74354  0.76133  1.0000
  C   C664      1.0  0.26699  0.97635  0.93502  1.0000
  C   C665      1.0  0.11291  0.75990  0.81187  1.0000
  C   C666      1.0  0.24205  0.93208  0.93231  1.0000
  H   H791      1.0  0.11272  0.73896  0.76684  1.0000
  H   H792      1.0  0.29518  0.96654  0.95311  1.0000
  C   C667      1.0  0.19304  0.89562  0.92470  1.0000
  N   N45       1.0  0.08195  0.88637  0.80091  1.0000
  C   C668      1.0  0.07515  0.86693  0.78942  1.0000
  C   C669      1.0  0.10924  0.89899  0.80299  1.0000
  C   C670      1.0  0.07152  0.87421  0.81432  1.0000
  C   C671      1.0  0.07188  0.90337  0.79727  1.0000
  C   C672      1.0  0.08709  0.92904  0.79512  1.0000
  C   C673      1.0  0.04600  0.89434  0.79578  1.0000
  C   C674      1.0  0.07685  0.94456  0.79189  1.0000
  C   C675      1.0  0.03600  0.91008  0.79267  1.0000
  C   C676      1.0  0.05139  0.93513  0.79072  1.0000
  H   H793      1.0  0.08217  0.87532  0.77905  1.0000
  H   H794      1.0  0.08297  0.85414  0.79173  1.0000
  H   H795      1.0  0.05488  0.85521  0.78801  1.0000
  H   H796      1.0  0.11853  0.90741  0.79307  1.0000
  H   H797      1.0  0.11559  0.91358  0.81173  1.0000
  H   H798      1.0  0.05123  0.86241  0.81353  1.0000
  H   H799      1.0  0.07556  0.88828  0.82310  1.0000
  H   H800      1.0  0.10693  0.93772  0.79606  1.0000
  H   H801      1.0  0.03325  0.87508  0.79723  1.0000
  H   H802      1.0  0.08867  0.96419  0.79060  1.0000
  Fe  Fe95      1.0  0.06684  0.51044  0.73986  1.0000
  C   C677      1.0  0.25493  0.86653  0.77872  1.0000
  N   N46       1.0  0.03193  0.73458  0.94898  1.0000
  Fe  Fe96      1.0  0.00376  0.97707  0.81380  1.0000
  H   H803      1.0  0.03650  0.86315  0.87617  1.0000
  N   N47       1.0  0.00499  0.82658  0.87571  1.0000
  C   C678      1.0  0.04269  0.75025  0.96218  1.0000
  Fe  Fe97      1.0  0.16364  0.75689  0.73674  1.0000
  C   C679      1.0  0.06217  0.77504  0.96220  1.0000
  H   H804      1.0  0.01872  0.72224  0.97645  1.0000
  H   H805      1.0  0.01619  0.90299  0.79203  1.0000
  H   H806      1.0  0.05362  0.71560  0.95152  1.0000
  H   H807      1.0  0.02363  0.69989  0.95868  1.0000
  S   S188      1.0  0.02064  0.52857  0.78136  1.0000
  C   C680      1.0  0.07315  0.98555  0.85641  1.0000
  H   H808      1.0  0.02099  0.85507  0.89252  1.0000
  H   H809      1.0  0.00786  0.96678  0.74008  1.0000
  C   C681      1.0  0.29239  0.86151  0.77564  1.0000
  H   H810      1.0  0.27633  0.93353  0.95237  1.0000
  H   H811      1.0  0.25708  0.87581  0.76845  1.0000
  H   H812      1.0  0.17424  0.88195  0.92178  1.0000
  H   H813      1.0  0.04037  0.84161  0.88696  1.0000
  H   H814      1.0  0.29876  0.90006  0.77537  1.0000
  H   H815      1.0  0.30442  0.96572  0.92929  1.0000
  H   H816      1.0  0.28213  0.95606  0.91509  1.0000
  H   H817      1.0  0.25319  0.97750  0.94203  1.0000
  C   C682      1.0  0.22660  0.91544  0.94239  1.0000
  H   H818      1.0  0.03571  0.73439  0.92618  1.0000
  H   H819      1.0  0.99446  0.97512  0.76344  1.0000
  C   C683      1.0  0.28518  0.95163  0.92612  1.0000
  H   H820      1.0  0.25016  0.52677  0.73838  1.0000
  H   H821      1.0  0.26463  0.95405  0.95897  1.0000
  N   N48       1.0  0.26711  0.95231  0.93610  1.0000
  H   H822      1.0  0.12540  0.69245  0.78503  1.0000
  C   C684      1.0  0.13213  0.74529  0.77057  1.0000
  C   C685      1.0  0.98695  0.97830  0.75369  1.0000
  H   H823      1.0  0.99329  0.73364  0.86539  1.0000
  C   C686      1.0  0.04402  0.74682  0.93586  1.0000
  H   H824      1.0  0.18425  0.96456  0.89804  1.0000
  C   C687      1.0  0.12422  0.70460  0.77679  1.0000
  H   H825      1.0  0.99592  0.53132  0.80633  1.0000
  H   H826      1.0  0.10487  0.69654  0.77248  1.0000
  C   C688      1.0  0.30503  0.84723  0.77422  1.0000
  S   S189      1.0  0.03781  0.97143  0.81623  1.0000
  H   H827      1.0  0.26707  0.82247  0.79236  1.0000
  C   C689      1.0  0.20248  0.89746  0.93854  1.0000
  H   H828      1.0  0.25520  0.83801  0.75638  1.0000
  C   C690      1.0  0.27604  0.95135  0.95077  1.0000
  H   H829      1.0  0.06396  0.75200  0.93624  1.0000
  C   C691      1.0  0.11943  0.73304  0.79442  1.0000
  S   S190      1.0  0.27183  0.98577  0.89294  1.0000
  H   H830      1.0  0.19092  0.88509  0.94640  1.0000
  H   H831      1.0  0.04199  0.76372  0.93409  1.0000
  N   N49       1.0  0.26570  0.84925  0.77835  1.0000
  C   C692      1.0  0.99817  0.80470  0.89914  1.0000
  H   H832      1.0  0.24228  0.94173  0.91016  1.0000
  H   H833      1.0  0.99677  0.71631  0.93744  1.0000
  S   S191      1.0  0.15102  0.78495  0.74283  1.0000
  H   H834      1.0  0.16896  0.76042  0.78984  1.0000
  H   H835      1.0  0.02639  0.69928  0.94001  1.0000
  H   H836      1.0  0.23258  0.91615  0.95334  1.0000
  H   H837      1.0  0.28440  0.93307  0.92564  1.0000
  H   H838      1.0  0.00175  0.65785  0.97883  1.0000
  H   H839      1.0  0.07028  0.78400  0.95256  1.0000
  H   H840      1.0  0.99877  0.85325  0.86408  1.0000
  H   H841      1.0  0.24156  0.82844  0.79478  1.0000
  C   C693      1.0  0.02658  0.84743  0.88326  1.0000
  C   C694      1.0  0.26145  0.83730  0.79223  1.0000
  C   C695      1.0  0.99592  0.73366  0.88827  1.0000
  C   C696      1.0  0.00548  0.72791  0.94734  1.0000
  H   H842      1.0  0.02744  0.81176  0.86690  1.0000
  C   C697      1.0  0.99455  0.97364  0.74043  1.0000
  C   C698      1.0  0.99801  0.50488  0.79151  1.0000
  S   S192      1.0  0.03518  0.55297  0.74355  1.0000
  S   S193      1.0  0.02649  0.49585  0.74434  1.0000
  C   C699      1.0  0.98857  0.83647  0.87041  1.0000
  C   C700      1.0  0.11294  0.63566  0.73744  1.0000
  H   H843      1.0  0.06282  0.96545  0.85573  1.0000
  H   H844      1.0  0.04293  0.98971  0.84821  1.0000
  H   H845      1.0  0.08671  0.80801  0.97477  1.0000
  C   C701      1.0  0.07184  0.78916  0.97494  1.0000
  Fe  Fe98      1.0  0.07498  0.56445  0.73948  1.0000
  H   H846      1.0  0.10637  0.98609  0.86449  1.0000
  H   H847      1.0  0.13053  0.51369  0.73795  1.0000
  C   C702      1.0  0.09396  0.64216  0.73650  1.0000
  H   H848      1.0  0.99939  0.80325  0.85674  1.0000
  C   C703      1.0  0.13749  0.65489  0.73786  1.0000
  H   H849      1.0  0.16711  0.50655  0.73706  1.0000
  C   C704      1.0  0.12807  0.49497  0.73701  1.0000
  C   C705      1.0  0.99114  0.80523  0.88470  1.0000
  H   H850      1.0  0.15238  0.65019  0.73856  1.0000
  C   C706      1.0  0.14304  0.68010  0.73726  1.0000
  H   H851      1.0  0.22923  0.99018  0.90337  1.0000
  H   H852      1.0  0.16203  0.69444  0.73746  1.0000
  N   N50       1.0  0.41258  0.45365  0.06444  1.0000
  Fe  Fe99      1.0  0.50345  0.46778  0.22321  1.0000
  S   S194      1.0  0.51751  0.44178  0.21571  1.0000
  H   H853      1.0  0.40655  0.12203  0.20985  1.0000
  Fe  Fe100     1.0  0.49909  0.03261  0.22473  1.0000
  S   S195      1.0  0.52483  0.07215  0.21989  1.0000
  N   N51       1.0  0.55331  0.38697  0.22693  1.0000
  Fe  Fe101     1.0  0.37614  0.18699  0.21607  1.0000
  H   H854      1.0  0.59567  0.00929  0.02883  1.0000
  S   S196      1.0  0.36450  0.18133  0.19244  1.0000
  C   C707      1.0  0.44220  0.12585  0.20524  1.0000
  H   H855      1.0  0.58889  0.38783  0.22691  1.0000
  S   S197      1.0  0.36308  0.15620  0.23114  1.0000
  C   C708      1.0  0.32442  0.21218  0.18964  1.0000
  H   H856      1.0  0.43506  0.47340  0.08323  1.0000
  S   S198      1.0  0.41626  0.20093  0.22264  1.0000
  C   C709      1.0  0.49077  0.48947  0.16810  1.0000
  H   H857      1.0  0.39219  0.44227  0.15897  1.0000
  H   H858      1.0  0.42274  0.37172  0.18314  1.0000
  H   H859      1.0  0.43554  0.45236  0.15602  1.0000
  C   C710      1.0  0.44532  0.08732  0.20246  1.0000
  C   C711      1.0  0.32791  0.40229  0.09024  1.0000
  C   C712      1.0  0.62323  0.10261  0.23406  1.0000
  C   C713      1.0  0.40090  0.43485  0.16614  1.0000
  H   H860      1.0  0.34453  0.17282  0.16378  1.0000
  H   H861      1.0  0.47036  0.40650  0.20036  1.0000
  C   C714      1.0  0.35795  0.38804  0.06391  1.0000
  C   C715      1.0  0.48611  0.09012  0.19780  1.0000
  H   H862      1.0  0.33441  0.36731  0.04584  1.0000
  C   C716      1.0  0.46106  0.34598  0.23162  1.0000
  C   C717      1.0  0.39112  0.42982  0.05961  1.0000
  H   H863      1.0  0.45097  0.14596  0.20581  1.0000
  C   C718      1.0  0.51124  0.30761  0.23059  1.0000
  C   C719      1.0  0.34920  0.11657  0.17075  1.0000
  H   H864      1.0  0.48843  0.10121  0.18825  1.0000
  H   H865      1.0  0.38821  0.39893  0.19461  1.0000
  H   H866      1.0  0.38257  0.41191  0.08018  1.0000
  H   H867      1.0  0.48388  0.30942  0.21689  1.0000
  H   H868      1.0  0.37929  0.13035  0.15667  1.0000
  C   C720      1.0  0.34521  0.44371  0.08093  1.0000
  C   C721      1.0  0.36119  0.45411  0.09303  1.0000
  C   C722      1.0  0.36034  0.43837  0.10376  1.0000
  C   C723      1.0  0.34368  0.41271  0.10240  1.0000
  H   H869      1.0  0.34562  0.45561  0.07254  1.0000
  H   H870      1.0  0.37247  0.44597  0.11312  1.0000
  C   C724      1.0  0.49384  0.48547  0.18255  1.0000
  C   C725      1.0  0.43455  0.41467  0.20995  1.0000
  H   H871      1.0  0.43007  0.04116  0.18957  1.0000
  C   C726      1.0  0.44921  0.05575  0.18800  1.0000
  H   H872      1.0  0.44374  0.43532  0.21107  1.0000
  H   H873      1.0  0.46515  0.07252  0.22287  1.0000
  H   H874      1.0  0.47003  0.05040  0.21237  1.0000
  H   H875      1.0  0.51430  0.00649  0.19532  1.0000
  C   C727      1.0  0.45625  0.11366  0.20285  1.0000
  H   H876      1.0  0.38637  0.07618  0.20920  1.0000
  C   C728      1.0  0.45846  0.05986  0.21323  1.0000
  C   C729      1.0  0.38264  0.42558  0.04511  1.0000
  C   C730      1.0  0.41712  0.11237  0.20752  1.0000
  H   H877      1.0  0.34797  0.37355  0.07123  1.0000
  H   H878      1.0  0.33459  0.33752  0.99824  1.0000
  S   S199      1.0  0.47014  0.37647  0.22537  1.0000
  C   C731      1.0  0.44308  0.32520  0.22362  1.0000
  Fe  Fe102     1.0  0.49611  0.41695  0.23319  1.0000
  H   H879      1.0  0.44909  0.06529  0.17812  1.0000
  H   H880      1.0  0.41017  0.05414  0.20484  1.0000
  C   C732      1.0  0.61731  0.99525  0.00873  1.0000
  C   C733      1.0  0.40729  0.47447  0.06154  1.0000
  H   H881      1.0  0.32351  0.22015  0.16790  1.0000
  C   C734      1.0  0.41965  0.07415  0.20472  1.0000
  C   C735      1.0  0.64273  0.10436  0.22574  1.0000
  C   C736      1.0  0.43457  0.45719  0.05660  1.0000
  H   H882      1.0  0.49572  0.10295  0.20718  1.0000
  H   H883      1.0  0.63395  0.48046  0.21247  1.0000
  H   H884      1.0  0.53714  0.39055  0.20709  1.0000
  H   H885      1.0  0.40328  0.37101  0.19726  1.0000
  H   H886      1.0  0.32553  0.07939  0.12097  1.0000
  S   S200      1.0  0.38255  0.48653  0.09377  1.0000
  C   C737      1.0  0.54064  0.39792  0.21832  1.0000
  C   C738      1.0  0.40585  0.08657  0.20724  1.0000
  C   C739      1.0  0.39915  0.41051  0.18634  1.0000
  C   C740      1.0  0.43698  0.43143  0.17378  1.0000
  C   C741      1.0  0.38777  0.41980  0.17701  1.0000
  C   C742      1.0  0.46225  0.41440  0.19263  1.0000
  C   C743      1.0  0.42537  0.44051  0.16448  1.0000
  H   H887      1.0  0.45607  0.43694  0.17192  1.0000
  H   H888      1.0  0.44373  0.40799  0.21778  1.0000
  N   N52       1.0  0.43588  0.40629  0.19520  1.0000
  H   H889      1.0  0.35304  0.11450  0.13500  1.0000
  H   H890      1.0  0.43156  0.37074  0.20140  1.0000
  C   C744      1.0  0.33407  0.16265  0.18526  1.0000
  H   H891      1.0  0.42212  0.28503  0.22141  1.0000
  H   H892      1.0  0.43217  0.45851  0.04498  1.0000
  H   H893      1.0  0.42409  0.44057  0.08278  1.0000
  H   H894      1.0  0.46001  0.04557  0.18608  1.0000
  C   C745      1.0  0.35016  0.38453  0.04964  1.0000
  S   S201      1.0  0.58732  0.46881  0.22462  1.0000
  C   C746      1.0  0.42421  0.41618  0.18509  1.0000
  H   H895      1.0  0.50024  0.28787  0.23201  1.0000
  H   H896      1.0  0.46475  0.40814  0.18186  1.0000
  H   H897      1.0  0.47342  0.43498  0.19384  1.0000
  H   H898      1.0  0.43475  0.32801  0.21409  1.0000
  H   H899      1.0  0.36870  0.41544  0.17824  1.0000
  H   H900      1.0  0.41534  0.40766  0.21333  1.0000
  H   H901      1.0  0.43952  0.04510  0.21510  1.0000
  H   H902      1.0  0.49620  0.07926  0.19590  1.0000
  H   H903      1.0  0.40569  0.47696  0.05000  1.0000
  H   H904      1.0  0.47574  0.12537  0.20170  1.0000
  C   C747      1.0  0.42275  0.37877  0.19418  1.0000
  N   N53       1.0  0.45966  0.07372  0.20036  1.0000
  H   H905      1.0  0.63854  0.09309  0.21598  1.0000
  C   C748      1.0  0.36247  0.40325  0.04026  1.0000
  C   C749      1.0  0.64875  0.02279  0.99278  1.0000
  C   C750      1.0  0.53886  0.35968  0.22776  1.0000
  H   H906      1.0  0.55190  0.41842  0.21791  1.0000
  H   H907      1.0  0.57441  0.38452  0.20963  1.0000
  H   H908      1.0  0.35617  0.40035  0.02916  1.0000
  C   C751      1.0  0.35945  0.12014  0.15742  1.0000
  H   H909      1.0  0.39146  0.43958  0.03743  1.0000
  C   C752      1.0  0.34423  0.11118  0.14509  1.0000
  H   H910      1.0  0.38968  0.47135  0.06621  1.0000
  H   H911      1.0  0.58828  0.41402  0.21939  1.0000
  H   H912      1.0  0.50655  0.35369  0.21433  1.0000
  C   C753      1.0  0.64197  0.01315  0.00622  1.0000
  S   S202      1.0  0.47067  0.00549  0.20813  1.0000
  H   H913      1.0  0.36095  0.12435  0.18028  1.0000
  S   S203      1.0  0.59215  0.08089  0.22848  1.0000
  H   H914      1.0  0.50018  0.48445  0.16010  1.0000
  H   H915      1.0  0.34309  0.40081  0.11084  1.0000
  C   C754      1.0  0.37805  0.41032  0.06891  1.0000
  H   H916      1.0  0.45123  0.47463  0.06028  1.0000
  H   H917      1.0  0.32799  0.12036  0.11955  1.0000
  Fe  Fe103     1.0  0.54898  0.46129  0.23210  1.0000
  Fe  Fe104     1.0  0.55237  0.06929  0.23502  1.0000
  H   H918      1.0  0.34440  0.22177  0.19056  1.0000
  H   H919      1.0  0.32066  0.20048  0.21116  1.0000
  C   C755      1.0  0.51541  0.34547  0.22068  1.0000
  C   C756      1.0  0.43581  0.30069  0.22776  1.0000
  S   S204      1.0  0.37078  0.21314  0.23122  1.0000
  C   C757      1.0  0.49817  0.99427  0.18880  1.0000
  H   H920      1.0  0.52282  0.39439  0.22291  1.0000
  C   C758      1.0  0.32886  0.41800  0.07947  1.0000
  C   C759      1.0  0.62972  0.99389  0.03381  1.0000
  H   H921      1.0  0.40370  0.45354  0.08648  1.0000
  H   H922      1.0  0.43864  0.44145  0.05813  1.0000
  C   C760      1.0  0.41908  0.45519  0.07988  1.0000
  C   C761      1.0  0.50202  0.31982  0.22206  1.0000
  H   H923      1.0  0.63745  0.01425  0.03578  1.0000
  C   C762      1.0  0.32947  0.16206  0.17050  1.0000
  C   C763      1.0  0.32374  0.10353  0.17180  1.0000
  C   C764      1.0  0.57724  0.39355  0.22044  1.0000
  H   H924      1.0  0.49741  0.16008  0.23424  1.0000
  S   S205      1.0  0.48395  0.48626  0.21133  1.0000
  C   C765      1.0  0.61847  0.48924  0.23074  1.0000
  C   C766      1.0  0.63805  0.49119  0.22241  1.0000
  H   H925      1.0  0.50574  0.47768  0.18557  1.0000
  C   C767      1.0  0.48150  0.49156  0.19298  1.0000
  C   C768      1.0  0.54804  0.34651  0.23605  1.0000
  H   H926      1.0  0.60522  0.99815  0.36850  1.0000
  Fe  Fe105     1.0  0.51362  0.46194  0.25452  1.0000
  S   S206      1.0  0.52827  0.43494  0.24919  1.0000
  C   C769      1.0  0.58228  0.02803  0.25429  1.0000
  H   H927      1.0  0.59126  0.01601  0.25309  1.0000
  H   H928      1.0  0.35843  0.44976  0.36333  1.0000
  H   H929      1.0  0.33867  0.17944  0.31030  1.0000
  C   C770      1.0  0.33053  0.11004  0.28349  1.0000
  Fe  Fe106     1.0  0.51260  0.04221  0.25680  1.0000
  S   S207      1.0  0.53919  0.08265  0.25380  1.0000
  S   S208      1.0  0.51088  0.03163  0.28014  1.0000
  C   C771      1.0  0.33198  0.40874  0.38970  1.0000
  C   C772      1.0  0.49281  0.48127  0.28742  1.0000
  H   H930      1.0  0.55927  0.04900  0.26746  1.0000
  H   H931      1.0  0.40914  0.40761  0.32951  1.0000
  C   C773      1.0  0.32499  0.17093  0.30169  1.0000
  S   S209      1.0  0.53625  0.48916  0.23831  1.0000
  Fe  Fe107     1.0  0.36023  0.18288  0.24701  1.0000
  S   S210      1.0  0.39908  0.19680  0.25567  1.0000
  C   C774      1.0  0.44658  0.29647  0.23994  1.0000
  H   H932      1.0  0.57018  0.39406  0.24820  1.0000
  C   C775      1.0  0.46759  0.46853  0.28372  1.0000
  C   C776      1.0  0.33607  0.41870  0.37610  1.0000
  H   H933      1.0  0.34541  0.28270  0.48443  1.0000
  C   C777      1.0  0.40379  0.42261  0.33053  1.0000
  H   H934      1.0  0.33343  0.22181  0.35726  1.0000
  H   H935      1.0  0.56575  0.35602  0.24167  1.0000
  H   H936      1.0  0.41509  0.43710  0.32302  1.0000
  S   S211      1.0  0.43579  0.48971  0.31513  1.0000
  H   H937      1.0  0.58460  0.03835  0.24438  1.0000
  Fe  Fe108     1.0  0.41014  0.22564  0.23875  1.0000
  H   H938      1.0  0.40852  0.46635  0.33807  1.0000
  H   H939      1.0  0.33179  0.29193  0.46215  1.0000
  H   H940      1.0  0.38701  0.40958  0.39202  1.0000
  C   C778      1.0  0.39795  0.42073  0.37072  1.0000
  H   H941      1.0  0.56775  0.41954  0.24115  1.0000
  H   H942      1.0  0.35881  0.15399  0.27199  1.0000
  C   C779      1.0  0.46448  0.31728  0.24797  1.0000
  C   C780      1.0  0.47950  0.14572  0.23702  1.0000
  H   H943      1.0  0.47307  0.31438  0.25738  1.0000
  H   H944      1.0  0.48546  0.35740  0.25020  1.0000
  H   H945      1.0  0.33465  0.24063  0.34265  1.0000
  H   H946      1.0  0.44144  0.43128  0.34944  1.0000
  S   S212      1.0  0.48246  0.04320  0.24325  1.0000
  C   C781      1.0  0.61934  0.06156  0.26694  1.0000
  C   C782      1.0  0.39922  0.45197  0.34592  1.0000
  H   H947      1.0  0.35174  0.18517  0.28531  1.0000
  C   C783      1.0  0.45303  0.10352  0.24318  1.0000
  C   C784      1.0  0.33964  0.10999  0.25790  1.0000
  H   H948      1.0  0.33045  0.12132  0.25503  1.0000
  H   H949      1.0  0.43109  0.46148  0.28933  1.0000
  C   C785      1.0  0.36267  0.10083  0.27543  1.0000
  H   H950      1.0  0.35461  0.36762  0.38439  1.0000
  C   C786      1.0  0.32411  0.22194  0.34704  1.0000
  C   C787      1.0  0.34950  0.30171  0.48310  1.0000
  H   H951      1.0  0.43974  0.45622  0.35907  1.0000
  H   H952      1.0  0.64496  0.00824  0.36551  1.0000
  H   H953      1.0  0.35788  0.36747  0.47636  1.0000
  C   C788      1.0  0.37254  0.45624  0.38499  1.0000
  C   C789      1.0  0.36820  0.44646  0.39864  1.0000
  C   C790      1.0  0.34805  0.42298  0.40101  1.0000
  C   C791      1.0  0.33251  0.17408  0.28750  1.0000
  H   H954      1.0  0.34718  0.35480  0.35887  1.0000
  C   C792      1.0  0.35600  0.44231  0.37377  1.0000
  H   H955      1.0  0.38063  0.45708  0.40747  1.0000
  H   H956      1.0  0.34520  0.41577  0.41156  1.0000
  C   C793      1.0  0.45050  0.47133  0.29235  1.0000
  H   H957      1.0  0.40304  0.46178  0.35654  1.0000
  C   C794      1.0  0.37557  0.38973  0.35191  1.0000
  N   N54       1.0  0.40767  0.43295  0.34541  1.0000
  H   H958      1.0  0.37098  0.38315  0.34095  1.0000
  S   S213      1.0  0.50237  0.11623  0.23846  1.0000
  H   H959      1.0  0.38251  0.14701  0.26622  1.0000
  H   H960      1.0  0.56592  0.01663  0.27978  1.0000
  C   C795      1.0  0.33724  0.11463  0.29824  1.0000
  S   S214      1.0  0.48024  0.44215  0.23983  1.0000
  C   C796      1.0  0.43337  0.10925  0.24443  1.0000
  Fe  Fe109     1.0  0.50966  0.08254  0.23904  1.0000
  H   H961      1.0  0.50896  0.01814  0.30932  1.0000
  H   H962      1.0  0.59046  0.04104  0.28985  1.0000
  H   H963      1.0  0.62571  0.05125  0.24542  1.0000
  H   H964      1.0  0.61454  0.11657  0.25316  1.0000
  H   H965      1.0  0.45014  0.08506  0.24522  1.0000
  H   H966      1.0  0.33758  0.33392  0.45788  1.0000
  N   N55       1.0  0.59237  0.04520  0.26704  1.0000
  H   H967      1.0  0.35452  0.11442  0.25021  1.0000
  N   N56       1.0  0.34963  0.11560  0.27285  1.0000
  H   H968      1.0  0.32365  0.40807  0.36727  1.0000
  H   H969      1.0  0.37667  0.10407  0.26729  1.0000
  H   H970      1.0  0.54138  0.31129  0.24414  1.0000
  C   C797      1.0  0.34475  0.33042  0.46772  1.0000
  C   C798      1.0  0.43461  0.44518  0.34883  1.0000
  C   C799      1.0  0.43657  0.13322  0.24197  1.0000
  H   H971      1.0  0.46120  0.45635  0.27429  1.0000
  C   C800      1.0  0.58605  0.02977  0.27972  1.0000
  H   H972      1.0  0.37904  0.44356  0.34353  1.0000
  C   C801      1.0  0.45979  0.15141  0.23817  1.0000
  H   H973      1.0  0.58426  0.07278  0.25839  1.0000
  H   H974      1.0  0.38435  0.41542  0.32659  1.0000
  C   C802      1.0  0.39412  0.41418  0.35593  1.0000
  H   H975      1.0  0.41074  0.43935  0.37461  1.0000
  H   H976      1.0  0.32628  0.09002  0.25599  1.0000
  H   H977      1.0  0.59616  0.01871  0.28003  1.0000
  H   H978      1.0  0.37733  0.14817  0.28471  1.0000
  S   S215      1.0  0.41124  0.13951  0.24445  1.0000
  S   S216      1.0  0.43951  0.26589  0.24522  1.0000
  C   C803      1.0  0.63195  0.07813  0.27873  1.0000
  C   C804      1.0  0.62911  0.11742  0.24663  1.0000
  H   H979      1.0  0.58483  0.07286  0.27742  1.0000
  H   H980      1.0  0.44521  0.45860  0.34065  1.0000
  H   H981      1.0  0.37271  0.10569  0.28595  1.0000
  N   N57       1.0  0.49394  0.10091  0.28296  1.0000
  C   C805      1.0  0.48226  0.07815  0.27356  1.0000
  C   C806      1.0  0.52034  0.11464  0.27948  1.0000
  C   C807      1.0  0.49298  0.09358  0.29793  1.0000
  C   C808      1.0  0.48048  0.11542  0.28105  1.0000
  C   C809      1.0  0.49137  0.13938  0.27531  1.0000
  C   C810      1.0  0.45533  0.10523  0.28452  1.0000
  C   C811      1.0  0.47791  0.15228  0.27338  1.0000
  C   C812      1.0  0.44201  0.11826  0.28246  1.0000
  C   C813      1.0  0.45329  0.14174  0.27690  1.0000
  H   H982      1.0  0.48208  0.08295  0.26226  1.0000
  H   H983      1.0  0.49224  0.06700  0.27436  1.0000
  H   H984      1.0  0.46290  0.06566  0.27622  1.0000
  H   H985      1.0  0.52251  0.11924  0.26804  1.0000
  H   H986      1.0  0.53006  0.10345  0.28134  1.0000
  H   H987      1.0  0.53030  0.13211  0.28614  1.0000
  H   H988      1.0  0.47395  0.08092  0.30105  1.0000
  H   H989      1.0  0.50368  0.08331  0.29974  1.0000
  H   H990      1.0  0.50066  0.11016  0.30542  1.0000
  H   H991      1.0  0.51006  0.14834  0.27181  1.0000
  H   H992      1.0  0.44565  0.08689  0.28860  1.0000
  H   H993      1.0  0.48637  0.17024  0.26864  1.0000
  H   H994      1.0  0.42273  0.10995  0.28493  1.0000
  H   H995      1.0  0.44279  0.15155  0.27490  1.0000
  C   C814      1.0  0.36785  0.14229  0.27406  1.0000
  C   C815      1.0  0.34150  0.30673  0.47015  1.0000
  C   C816      1.0  0.36598  0.38021  0.37653  1.0000
  C   C817      1.0  0.36173  0.37311  0.36212  1.0000
  H   H996      1.0  0.32577  0.20820  0.33966  1.0000
  C   C818      1.0  0.57966  0.06063  0.26763  1.0000
  C   C819      1.0  0.38424  0.40386  0.38082  1.0000
  C   C820      1.0  0.47160  0.34180  0.24391  1.0000
  C   C821      1.0  0.63370  0.06221  0.25515  1.0000
  S   S217      1.0  0.51540  0.47889  0.27685  1.0000
  H   H997      1.0  0.35625  0.12252  0.30196  1.0000
  H   H998      1.0  0.62220  0.07926  0.28789  1.0000
  S   S218      1.0  0.32335  0.16562  0.25810  1.0000
  Fe  Fe110     1.0  0.40263  0.17143  0.23895  1.0000
  C   C822      1.0  0.47635  0.12181  0.23955  1.0000
  H   H999      1.0  0.56213  0.01549  0.25488  1.0000
  C   C823      1.0  0.35610  0.34927  0.47819  1.0000
  H   H1000     1.0  0.54062  0.39314  0.24700  1.0000
  H   H1001     1.0  0.41555  0.09501  0.24739  1.0000
  H   H1002     1.0  0.34946  0.08064  0.27505  1.0000
  S   S219      1.0  0.52727  0.02868  0.23870  1.0000
  C   C824      1.0  0.49169  0.00344  0.28859  1.0000
  S   S220      1.0  0.39882  0.48576  0.38266  1.0000
  C   C825      1.0  0.55816  0.39887  0.24144  1.0000
  C   C826      1.0  0.45830  0.48678  0.30481  1.0000
  C   C827      1.0  0.49495  0.00214  0.30336  1.0000
  H   H1003     1.0  0.32516  0.11419  0.31966  1.0000
  H   H1004     1.0  0.32976  0.46280  0.39137  1.0000
  H   H1005     1.0  0.48303  0.48958  0.25782  1.0000
  C   C828      1.0  0.53430  0.32089  0.23749  1.0000
  H   H1006     1.0  0.31965  0.00805  0.47603  1.0000
  H   H1007     1.0  0.46268  0.16995  0.23630  1.0000
  C   C829      1.0  0.31960  0.10971  0.30849  1.0000
  H   H1008     1.0  0.63638  0.05444  0.51335  1.0000
  C   C830      1.0  0.61668  0.25800  0.71955  1.0000
  C   C831      1.0  0.50362  0.48238  0.67159  1.0000
  C   C832      1.0  0.63632  0.06328  0.58445  1.0000
  Fe  Fe111     1.0  0.33435  0.03856  0.56210  1.0000
  S   S221      1.0  0.36661  0.03178  0.56979  1.0000
  H   H1009     1.0  0.64251  0.38601  0.63371  1.0000
  Fe  Fe112     1.0  0.34450  0.29528  0.55653  1.0000
  S   S222      1.0  0.38566  0.32421  0.55811  1.0000
  S   S223      1.0  0.52739  0.48123  0.66163  1.0000
  Fe  Fe113     1.0  0.54710  0.46952  0.61069  1.0000
  S   S224      1.0  0.56165  0.46476  0.63197  1.0000
  Fe  Fe114     1.0  0.49462  0.42590  0.61511  1.0000
  S   S225      1.0  0.50579  0.41887  0.63683  1.0000
  S   S226      1.0  0.45380  0.40423  0.60716  1.0000
  Fe  Fe115     1.0  0.52561  0.46043  0.64051  1.0000
  S   S227      1.0  0.32943  0.05193  0.54067  1.0000
  Fe  Fe116     1.0  0.54072  0.42351  0.62695  1.0000
  S   S228      1.0  0.55252  0.39307  0.62799  1.0000
  S   S229      1.0  0.51233  0.46748  0.61950  1.0000
  S   S230      1.0  0.52832  0.42825  0.60501  1.0000
  C   C833      1.0  0.36642  0.29035  0.50895  1.0000
  S   S231      1.0  0.63195  0.37930  0.66664  1.0000
  H   H1010     1.0  0.46520  0.47838  0.58666  1.0000
  S   S232      1.0  0.59589  0.25394  0.65974  1.0000
  S   S233      1.0  0.62418  0.31477  0.68213  1.0000
  Fe  Fe117     1.0  0.50023  0.07721  0.61628  1.0000
  S   S234      1.0  0.51531  0.09665  0.63785  1.0000
  S   S235      1.0  0.46782  0.08328  0.60791  1.0000
  Fe  Fe118     1.0  0.54287  0.06353  0.61392  1.0000
  S   S236      1.0  0.55981  0.08223  0.63514  1.0000
  S   S237      1.0  0.55892  0.04132  0.60178  1.0000
  Fe  Fe119     1.0  0.52112  0.06383  0.64301  1.0000
  S   S238      1.0  0.51603  0.04956  0.66574  1.0000
  Fe  Fe120     1.0  0.55258  0.11333  0.62841  1.0000
  S   S239      1.0  0.58399  0.15333  0.62987  1.0000
  S   S240      1.0  0.50398  0.04334  0.62208  1.0000
  S   S241      1.0  0.53768  0.09563  0.60654  1.0000
  H   H1011     1.0  0.48922  0.43233  0.58681  1.0000
  N   N58       1.0  0.32347  0.01323  0.60912  1.0000
  C   C834      1.0  0.49989  0.02068  0.67417  1.0000
  C   C835      1.0  0.50154  0.02049  0.68912  1.0000
  H   H1012     1.0  0.51204  0.03781  0.69519  1.0000
  C   C836      1.0  0.59406  0.22582  0.65252  1.0000
  C   C837      1.0  0.57231  0.20341  0.65403  1.0000
  C   C838      1.0  0.56925  0.18091  0.64762  1.0000
  C   C839      1.0  0.58769  0.18065  0.63930  1.0000
  C   C840      1.0  0.60957  0.20299  0.63796  1.0000
  C   C841      1.0  0.61286  0.22540  0.64462  1.0000
  H   H1013     1.0  0.55766  0.20350  0.66012  1.0000
  H   H1014     1.0  0.55262  0.16385  0.64904  1.0000
  H   H1015     1.0  0.62401  0.20300  0.63161  1.0000
  H   H1016     1.0  0.62964  0.24245  0.64330  1.0000
  H   H1017     1.0  0.58712  0.03918  0.65991  1.0000
  C   C842      1.0  0.64139  0.41626  0.62383  1.0000
  C   C843      1.0  0.53602  0.01371  0.63803  1.0000
  H   H1018     1.0  0.51590  0.46184  0.58716  1.0000
  H   H1019     1.0  0.36074  0.03604  0.60274  1.0000
  C   C844      1.0  0.57412  0.38938  0.63928  1.0000
  C   C845      1.0  0.58950  0.40768  0.64940  1.0000
  C   C846      1.0  0.60687  0.40414  0.65775  1.0000
  C   C847      1.0  0.60901  0.38225  0.65619  1.0000
  C   C848      1.0  0.59356  0.36389  0.64612  1.0000
  C   C849      1.0  0.57630  0.36750  0.63771  1.0000
  H   H1020     1.0  0.58814  0.42463  0.65070  1.0000
  H   H1021     1.0  0.61877  0.41851  0.66546  1.0000
  H   H1022     1.0  0.59494  0.34697  0.64477  1.0000
  H   H1023     1.0  0.56453  0.35323  0.62991  1.0000
  H   H1024     1.0  0.62158  0.02423  0.57943  1.0000
  C   C850      1.0  0.61790  0.03851  0.58403  1.0000
  C   C851      1.0  0.59457  0.03217  0.58957  1.0000
  C   C852      1.0  0.58918  0.05041  0.59555  1.0000
  C   C853      1.0  0.60764  0.07515  0.59602  1.0000
  C   C854      1.0  0.58092  0.01726  0.54609  1.0000
  H   H1025     1.0  0.61980  0.07972  0.54744  1.0000
  H   H1026     1.0  0.58048  0.01297  0.58905  1.0000
  H   H1027     1.0  0.60390  0.08947  0.60052  1.0000
  C   C855      1.0  0.43548  0.38101  0.59376  1.0000
  C   C856      1.0  0.40962  0.36906  0.59458  1.0000
  C   C857      1.0  0.39417  0.35117  0.58405  1.0000
  C   C858      1.0  0.40433  0.34529  0.57232  1.0000
  C   C859      1.0  0.43019  0.35724  0.57148  1.0000
  C   C860      1.0  0.44568  0.37481  0.58215  1.0000
  H   H1028     1.0  0.40145  0.37371  0.60345  1.0000
  H   H1029     1.0  0.37438  0.34236  0.58488  1.0000
  H   H1030     1.0  0.43835  0.35287  0.56250  1.0000
  H   H1031     1.0  0.46547  0.38367  0.58132  1.0000
  Fe  Fe121     1.0  0.62891  0.29250  0.66397  1.0000
  C   C861      1.0  0.39486  0.04673  0.58029  1.0000
  C   C862      1.0  0.40337  0.07021  0.58702  1.0000
  C   C863      1.0  0.42561  0.08093  0.59541  1.0000
  C   C864      1.0  0.43975  0.06846  0.59723  1.0000
  C   C865      1.0  0.43115  0.04493  0.59057  1.0000
  C   C866      1.0  0.40890  0.03419  0.58220  1.0000
  H   H1032     1.0  0.39290  0.08017  0.58569  1.0000
  H   H1033     1.0  0.43194  0.09911  0.60048  1.0000
  H   H1034     1.0  0.44171  0.03503  0.59180  1.0000
  H   H1035     1.0  0.40260  0.01604  0.57708  1.0000
  C   C867      1.0  0.52440  0.44979  0.70301  1.0000
  H   H1036     1.0  0.45852  0.46520  0.72223  1.0000
  N   N59       1.0  0.55587  0.01301  0.64686  1.0000
  H   H1037     1.0  0.36299  0.25254  0.60844  1.0000
  C   C868      1.0  0.48993  0.99811  0.69634  1.0000
  H   H1038     1.0  0.37262  0.35968  0.49902  1.0000
  C   C869      1.0  0.35043  0.02192  0.61064  1.0000
  H   H1039     1.0  0.35310  0.26888  0.59628  1.0000
  C   C870      1.0  0.49024  0.48265  0.55299  1.0000
  H   H1040     1.0  0.33146  0.05038  0.60383  1.0000
  C   C871      1.0  0.39659  0.33323  0.51053  1.0000
  S   S242      1.0  0.33669  0.26252  0.54165  1.0000
  H   H1041     1.0  0.58179  0.05148  0.64397  1.0000
  C   C872      1.0  0.61253  0.27525  0.72738  1.0000
  H   H1042     1.0  0.34652  0.27639  0.50809  1.0000
  H   H1043     1.0  0.44784  0.44777  0.56625  1.0000
  C   C873      1.0  0.47884  0.47022  0.66692  1.0000
  H   H1044     1.0  0.46980  0.42568  0.68432  1.0000
  C   C874      1.0  0.48282  0.43321  0.69336  1.0000
  H   H1045     1.0  0.44157  0.46169  0.67171  1.0000
  C   C875      1.0  0.49203  0.44863  0.71832  1.0000
  H   H1046     1.0  0.64496  0.10072  0.59091  1.0000
  C   C876      1.0  0.49946  0.44899  0.58048  1.0000
  C   C877      1.0  0.44743  0.31944  0.59500  1.0000
  C   C878      1.0  0.36040  0.25539  0.59703  1.0000
  H   H1047     1.0  0.52453  0.01938  0.64458  1.0000
  H   H1048     1.0  0.53122  0.46301  0.72449  1.0000
  H   H1049     1.0  0.58735  0.23302  0.61947  1.0000
  H   H1050     1.0  0.64482  0.44853  0.61348  1.0000
  H   H1051     1.0  0.50632  0.44321  0.57100  1.0000
  C   C879      1.0  0.55318  0.19899  0.61690  1.0000
  H   H1052     1.0  0.62233  0.41014  0.62639  1.0000
  C   C880      1.0  0.62214  0.05390  0.52069  1.0000
  N   N60       1.0  0.36994  0.31602  0.50789  1.0000
  H   H1053     1.0  0.64750  0.34383  0.71856  1.0000
  S   S243      1.0  0.64361  0.32460  0.64930  1.0000
  H   H1054     1.0  0.61754  0.00423  0.53814  1.0000
  H   H1055     1.0  0.35896  0.33964  0.52001  1.0000
  H   H1056     1.0  0.40759  0.33131  0.50181  1.0000
  H   H1057     1.0  0.56283  0.18971  0.61240  1.0000
  C   C881      1.0  0.56765  0.22406  0.62092  1.0000
  C   C882      1.0  0.42050  0.32450  0.61143  1.0000
  C   C883      1.0  0.54610  0.00226  0.67271  1.0000
  H   H1058     1.0  0.51332  0.43621  0.68131  1.0000
  H   H1059     1.0  0.46651  0.45419  0.59655  1.0000
  C   C884      1.0  0.36437  0.34455  0.49114  1.0000
  H   H1060     1.0  0.36176  0.31672  0.53001  1.0000
  C   C885      1.0  0.35610  0.32029  0.51937  1.0000
  H   H1061     1.0  0.35241  0.46445  0.72591  1.0000
  H   H1062     1.0  0.47362  0.45973  0.65685  1.0000
  H   H1063     1.0  0.62175  0.22564  0.72026  1.0000
  C   C886      1.0  0.54463  0.99495  0.65808  1.0000
  C   C887      1.0  0.46084  0.44066  0.56934  1.0000
  Fe  Fe122     1.0  0.64128  0.34726  0.66791  1.0000
  H   H1064     1.0  0.37356  0.28768  0.51938  1.0000
  C   C888      1.0  0.60420  0.06199  0.54926  1.0000
  C   C889      1.0  0.49799  0.48156  0.56719  1.0000
  H   H1065     1.0  0.48441  0.99778  0.65505  1.0000
  H   H1066     1.0  0.35805  0.03083  0.62134  1.0000
  C   C890      1.0  0.36141  0.32062  0.49398  1.0000
  N   N61       1.0  0.48388  0.46050  0.57631  1.0000
  C   C891      1.0  0.47447  0.47205  0.72998  1.0000
  H   H1067     1.0  0.45078  0.42532  0.57665  1.0000
  H   H1068     1.0  0.47331  0.46828  0.54810  1.0000
  C   C892      1.0  0.48615  0.99808  0.66651  1.0000
  H   H1069     1.0  0.46474  0.43205  0.55982  1.0000
  H   H1070     1.0  0.60401  0.04498  0.51473  1.0000
  C   C893      1.0  0.47692  0.46957  0.58933  1.0000
  H   H1071     1.0  0.48770  0.15287  0.63337  1.0000
  C   C894      1.0  0.51699  0.45449  0.71621  1.0000
  S   S244      1.0  0.44326  0.48521  0.69888  1.0000
  H   H1072     1.0  0.60047  0.00482  0.52227  1.0000
  H   H1073     1.0  0.48920  0.48961  0.72603  1.0000
  H   H1074     1.0  0.45874  0.35082  0.60974  1.0000
  C   C895      1.0  0.60211  0.03965  0.54294  1.0000
  C   C896      1.0  0.55721  0.23729  0.62758  1.0000
  H   H1075     1.0  0.34549  0.23743  0.59238  1.0000
  N   N62       1.0  0.38367  0.26368  0.58938  1.0000
  H   H1076     1.0  0.58890  0.07902  0.56348  1.0000
  C   C897      1.0  0.37840  0.26662  0.57432  1.0000
  C   C898      1.0  0.39064  0.24353  0.59000  1.0000
  C   C899      1.0  0.40408  0.28737  0.59531  1.0000
  C   C900      1.0  0.42794  0.29696  0.58973  1.0000
  C   C901      1.0  0.40088  0.30198  0.60631  1.0000
  H   H1077     1.0  0.61143  0.29015  0.72195  1.0000
  C   C902      1.0  0.56324  0.01740  0.55515  1.0000
  H   H1078     1.0  0.32565  0.01624  0.58646  1.0000
  H   H1079     1.0  0.62674  0.07350  0.52330  1.0000
  H   H1080     1.0  0.58025  0.01966  0.62943  1.0000
  S   S245      1.0  0.32086  0.27121  0.57349  1.0000
  H   H1081     1.0  0.37335  0.28177  0.57345  1.0000
  H   H1082     1.0  0.36285  0.24935  0.56946  1.0000
  H   H1083     1.0  0.39448  0.27139  0.56759  1.0000
  H   H1084     1.0  0.39608  0.24161  0.60107  1.0000
  H   H1085     1.0  0.37508  0.22526  0.58622  1.0000
  H   H1086     1.0  0.40619  0.24667  0.58312  1.0000
  H   H1087     1.0  0.43163  0.28733  0.58109  1.0000
  H   H1088     1.0  0.38339  0.29667  0.61102  1.0000
  C   C903      1.0  0.44372  0.33314  0.60585  1.0000
  H   H1089     1.0  0.49323  0.48354  0.59570  1.0000
  C   C904      1.0  0.56605  0.03962  0.56128  1.0000
  N   N63       1.0  0.51165  0.15973  0.61563  1.0000
  C   C905      1.0  0.52524  0.14745  0.60929  1.0000
  C   C906      1.0  0.50020  0.14651  0.62861  1.0000
  C   C907      1.0  0.49183  0.15650  0.60519  1.0000
  C   C908      1.0  0.52750  0.18645  0.61933  1.0000
  C   C909      1.0  0.33723  0.46521  0.73107  1.0000
  C   C910      1.0  0.51734  0.20070  0.62580  1.0000
  C   C911      1.0  0.46706  0.48482  0.68856  1.0000
  C   C912      1.0  0.53208  0.22569  0.62995  1.0000
  H   H1090     1.0  0.56880  0.25640  0.63128  1.0000
  H   H1091     1.0  0.53976  0.14818  0.61685  1.0000
  H   H1092     1.0  0.51285  0.12748  0.60655  1.0000
  H   H1093     1.0  0.53390  0.15595  0.59926  1.0000
  H   H1094     1.0  0.51451  0.14914  0.63689  1.0000
  H   H1095     1.0  0.48890  0.12618  0.62634  1.0000
  H   H1096     1.0  0.37630  0.28579  0.50057  1.0000
  H   H1097     1.0  0.49970  0.16674  0.59542  1.0000
  H   H1098     1.0  0.48005  0.13655  0.60187  1.0000
  H   H1099     1.0  0.47927  0.16316  0.60956  1.0000
  N   N64       1.0  0.62145  0.04028  0.53359  1.0000
  H   H1100     1.0  0.49800  0.19246  0.62799  1.0000
  H   H1101     1.0  0.52417  0.23604  0.63532  1.0000
  H   H1102     1.0  0.45617  0.43395  0.70703  1.0000
  H   H1103     1.0  0.40364  0.32964  0.52076  1.0000
  C   C913      1.0  0.50735  0.43915  0.69163  1.0000
  C   C914      1.0  0.57241  0.03864  0.65260  1.0000
  H   H1104     1.0  0.41767  0.33568  0.61961  1.0000
  H   H1105     1.0  0.58498  0.00339  0.64389  1.0000
  N   N65       1.0  0.48350  0.45373  0.73202  1.0000
  C   C915      1.0  0.58649  0.06186  0.55835  1.0000
  C   C916      1.0  0.63097  0.08149  0.59050  1.0000
  H   H1106     1.0  0.35503  0.00657  0.60857  1.0000
  H   H1107     1.0  0.46547  0.32654  0.59053  1.0000
  H   H1108     1.0  0.40062  0.35295  0.51142  1.0000
  H   H1109     1.0  0.63297  0.01645  0.52218  1.0000
  H   H1110     1.0  0.49167  0.99837  0.70781  1.0000
  C   C917      1.0  0.61775  0.01529  0.52889  1.0000
  H   H1111     1.0  0.33598  0.30783  0.51768  1.0000
  C   C918      1.0  0.57071  0.00561  0.63754  1.0000
  C   C919      1.0  0.46070  0.47137  0.67539  1.0000
  H   H1112     1.0  0.61869  0.25953  0.70814  1.0000
  H   H1113     1.0  0.54355  0.45479  0.70146  1.0000
  C   C920      1.0  0.61851  0.23902  0.72643  1.0000
  C   C921      1.0  0.47522  0.43800  0.70644  1.0000
  H   H1114     1.0  0.44638  0.42322  0.72974  1.0000
  H   H1115     1.0  0.56199  0.04672  0.65834  1.0000
  H   H1116     1.0  0.55520  0.02146  0.67647  1.0000
  H   H1117     1.0  0.54362  0.02718  0.62950  1.0000
  H   H1118     1.0  0.52353  0.99544  0.63269  1.0000
  H   H1119     1.0  0.32383  0.04307  0.62203  1.0000
  H   H1120     1.0  0.32167  0.07128  0.50211  1.0000
  H   H1121     1.0  0.55269  0.03958  0.56865  1.0000
  C   C922      1.0  0.64583  0.05327  0.54122  1.0000
  H   H1122     1.0  0.57771  0.99935  0.54187  1.0000
  H   H1123     1.0  0.54745  0.00013  0.55767  1.0000
  C   C923      1.0  0.31961  0.03536  0.61087  1.0000
  H   H1124     1.0  0.64536  0.04481  0.55158  1.0000
  H   H1125     1.0  0.31886  0.49107  0.71090  1.0000
  S   S246      1.0  0.34254  0.07650  0.93080  1.0000
  S   S247      1.0  0.31965  0.26020  0.90138  1.0000
  Fe  Fe123     1.0  0.35055  0.06003  0.91101  1.0000
  S   S248      1.0  0.39154  0.07920  0.90538  1.0000
  C   C924      1.0  0.64638  0.34357  0.74154  1.0000
  Fe  Fe124     1.0  0.33629  0.29769  0.91272  1.0000
  C   C925      1.0  0.58989  0.22843  0.76854  1.0000
  S   S249      1.0  0.36071  0.32871  0.89789  1.0000
  H   H1126     1.0  0.58545  0.35179  0.79580  1.0000
  S   S250      1.0  0.34150  0.28281  0.93363  1.0000
  Fe  Fe125     1.0  0.49902  0.07207  0.85678  1.0000
  S   S251      1.0  0.51294  0.09428  0.83714  1.0000
  S   S252      1.0  0.45820  0.05608  0.86206  1.0000
  Fe  Fe126     1.0  0.54908  0.07244  0.86283  1.0000
  S   S253      1.0  0.56591  0.09461  0.84375  1.0000
  S   S254      1.0  0.56791  0.05928  0.87940  1.0000
  Fe  Fe127     1.0  0.54785  0.11775  0.85022  1.0000
  S   S255      1.0  0.56890  0.15992  0.85430  1.0000
  Fe  Fe128     1.0  0.52969  0.06917  0.83214  1.0000
  S   S256      1.0  0.53207  0.05594  0.80952  1.0000
  S   S257      1.0  0.53290  0.09693  0.87019  1.0000
  S   S258      1.0  0.51384  0.04558  0.85088  1.0000
  Fe  Fe129     1.0  0.50124  0.44683  0.84030  1.0000
  S   S259      1.0  0.50634  0.46043  0.86334  1.0000
  S   S260      1.0  0.47641  0.45667  0.82613  1.0000
  Fe  Fe130     1.0  0.53207  0.41951  0.84534  1.0000
  S   S261      1.0  0.53954  0.43191  0.86850  1.0000
  S   S262      1.0  0.54256  0.39315  0.83293  1.0000
  Fe  Fe131     1.0  0.49884  0.42168  0.86868  1.0000
  S   S263      1.0  0.47589  0.39831  0.88699  1.0000
  Fe  Fe132     1.0  0.54622  0.46964  0.86140  1.0000
  S   S264      1.0  0.49130  0.40763  0.84585  1.0000
  S   S265      1.0  0.54120  0.45756  0.83801  1.0000
  Fe  Fe133     1.0  0.63016  0.28904  0.81287  1.0000
  S   S266      1.0  0.61627  0.31518  0.80526  1.0000
  S   S267      1.0  0.60477  0.24703  0.81011  1.0000
  C   C926      1.0  0.63878  0.07051  0.87549  1.0000
  S   S268      1.0  0.63201  0.36735  0.83788  1.0000
  C   C927      1.0  0.60625  0.27232  0.77227  1.0000
  C   C928      1.0  0.61241  0.25480  0.74952  1.0000
  C   C929      1.0  0.32986  0.10445  0.96316  1.0000
  H   H1127     1.0  0.44600  0.09801  0.85149  1.0000
  C   C930      1.0  0.32808  0.18706  0.92218  1.0000
  H   H1128     1.0  0.47080  0.17072  0.87247  1.0000
  C   C931      1.0  0.47880  0.46899  0.80894  1.0000
  H   H1129     1.0  0.45690  0.43365  0.74762  1.0000
  C   C932      1.0  0.63945  0.10901  0.90922  1.0000
  H   H1130     1.0  0.50887  0.17560  0.86944  1.0000
  H   H1131     1.0  0.40533  0.08506  0.86063  1.0000
  C   C933      1.0  0.56703  0.38552  0.83516  1.0000
  C   C934      1.0  0.58689  0.39845  0.84491  1.0000
  C   C935      1.0  0.60650  0.39256  0.84568  1.0000
  C   C936      1.0  0.60647  0.37359  0.83681  1.0000
  C   C937      1.0  0.58644  0.36040  0.82724  1.0000
  C   C938      1.0  0.56697  0.36646  0.82636  1.0000
  H   H1132     1.0  0.58722  0.41315  0.85175  1.0000
  H   H1133     1.0  0.62180  0.40280  0.85319  1.0000
  H   H1134     1.0  0.58584  0.34538  0.82062  1.0000
  H   H1135     1.0  0.55169  0.35631  0.81881  1.0000
  C   C939      1.0  0.51365  0.02690  0.80023  1.0000
  H   H1136     1.0  0.63513  0.35283  0.74205  1.0000
  H   H1137     1.0  0.59364  0.13970  0.90040  1.0000
  C   C940      1.0  0.37155  0.10865  0.96223  1.0000
  H   H1138     1.0  0.39842  0.14035  0.95180  1.0000
  C   C941      1.0  0.57895  0.18378  0.84177  1.0000
  C   C942      1.0  0.57279  0.17870  0.82722  1.0000
  C   C943      1.0  0.58088  0.19828  0.81774  1.0000
  C   C944      1.0  0.59534  0.22315  0.82263  1.0000
  C   C945      1.0  0.60153  0.22822  0.83718  1.0000
  C   C946      1.0  0.59329  0.20865  0.84668  1.0000
  H   H1139     1.0  0.56178  0.15972  0.82325  1.0000
  H   H1140     1.0  0.57594  0.19408  0.80653  1.0000
  H   H1141     1.0  0.61256  0.24721  0.84113  1.0000
  H   H1142     1.0  0.59812  0.21287  0.85791  1.0000
  H   H1143     1.0  0.60270  0.43669  0.82232  1.0000
  H   H1144     1.0  0.60588  0.11016  0.90633  1.0000
  C   C947      1.0  0.61603  0.07029  0.87264  1.0000
  C   C948      1.0  0.59720  0.06032  0.88232  1.0000
  C   C949      1.0  0.60150  0.05051  0.89481  1.0000
  C   C950      1.0  0.62427  0.05073  0.89766  1.0000
  H   H1145     1.0  0.61308  0.07759  0.86289  1.0000
  H   H1146     1.0  0.58709  0.04267  0.90237  1.0000
  H   H1147     1.0  0.62720  0.04308  0.90730  1.0000
  C   C951      1.0  0.37961  0.13068  0.95516  1.0000
  C   C952      1.0  0.39290  0.34822  0.89527  1.0000
  C   C953      1.0  0.41145  0.35005  0.90488  1.0000
  C   C954      1.0  0.43658  0.36547  0.90216  1.0000
  C   C955      1.0  0.44369  0.37939  0.88984  1.0000
  C   C956      1.0  0.42512  0.37772  0.88028  1.0000
  C   C957      1.0  0.39999  0.36231  0.88300  1.0000
  H   H1148     1.0  0.40650  0.33992  0.91451  1.0000
  H   H1149     1.0  0.45067  0.36668  0.90970  1.0000
  H   H1150     1.0  0.43014  0.38833  0.87080  1.0000
  H   H1151     1.0  0.38595  0.36131  0.87550  1.0000
  C   C958      1.0  0.40977  0.07118  0.89392  1.0000
  C   C959      1.0  0.39937  0.05132  0.88385  1.0000
  C   C960      1.0  0.41453  0.04678  0.87442  1.0000
  C   C961      1.0  0.44032  0.06179  0.87498  1.0000
  C   C962      1.0  0.45079  0.08123  0.88532  1.0000
  C   C963      1.0  0.43560  0.08599  0.89461  1.0000
  H   H1152     1.0  0.37959  0.03976  0.88313  1.0000
  H   H1153     1.0  0.40615  0.03164  0.86652  1.0000
  H   H1154     1.0  0.47052  0.09273  0.88610  1.0000
  H   H1155     1.0  0.44389  0.10136  0.90237  1.0000
  H   H1156     1.0  0.56492  0.99965  0.86948  1.0000
  H   H1157     1.0  0.58746  0.22674  0.78025  1.0000
  C   C964      1.0  0.63378  0.38708  0.79713  1.0000
  H   H1158     1.0  0.47678  0.11711  0.83735  1.0000
  C   C965      1.0  0.51544  0.02506  0.78539  1.0000
  H   H1159     1.0  0.62714  0.37926  0.80766  1.0000
  N   N66       1.0  0.39659  0.27168  0.89893  1.0000
  C   C966      1.0  0.37549  0.25345  0.88975  1.0000
  C   C967      1.0  0.40646  0.25752  0.90703  1.0000
  C   C968      1.0  0.38738  0.28370  0.90931  1.0000
  C   C969      1.0  0.41511  0.29102  0.89025  1.0000
  C   C970      1.0  0.40787  0.30404  0.88058  1.0000
  C   C971      1.0  0.44077  0.29854  0.89168  1.0000
  C   C972      1.0  0.42510  0.32293  0.87262  1.0000
  C   C973      1.0  0.45789  0.31781  0.88384  1.0000
  C   C974      1.0  0.45007  0.32999  0.87435  1.0000
  H   H1160     1.0  0.38187  0.24537  0.88108  1.0000
  C   C975      1.0  0.61265  0.13194  0.86806  1.0000
  H   H1161     1.0  0.36458  0.26167  0.88484  1.0000
  H   H1162     1.0  0.41439  0.24861  0.89983  1.0000
  H   H1163     1.0  0.36949  0.15695  0.94650  1.0000
  H   H1164     1.0  0.42063  0.26948  0.91530  1.0000
  H   H1165     1.0  0.37380  0.26996  0.91634  1.0000
  C   C976      1.0  0.56738  0.03841  0.83823  1.0000
  H   H1166     1.0  0.37805  0.29322  0.90400  1.0000
  H   H1167     1.0  0.38894  0.30045  0.87950  1.0000
  H   H1168     1.0  0.44817  0.29021  0.89898  1.0000
  H   H1169     1.0  0.41922  0.33297  0.86551  1.0000
  H   H1170     1.0  0.47743  0.32377  0.88531  1.0000
  H   H1171     1.0  0.46346  0.34546  0.86863  1.0000
  S   S269      1.0  0.32831  0.02108  0.91813  1.0000
  N   N67       1.0  0.61337  0.38572  0.78778  1.0000
  H   H1172     1.0  0.54046  0.01392  0.85945  1.0000
  C   C977      1.0  0.57691  0.42591  0.80453  1.0000
  C   C978      1.0  0.33360  0.14971  0.92107  1.0000
  C   C979      1.0  0.59485  0.35917  0.78574  1.0000
  H   H1173     1.0  0.47714  0.14605  0.83390  1.0000
  H   H1174     1.0  0.60670  0.02578  0.83130  1.0000
  C   C980      1.0  0.56899  0.41258  0.79156  1.0000
  C   C981      1.0  0.46095  0.48399  0.79037  1.0000
  H   H1175     1.0  0.58039  0.35600  0.77748  1.0000
  H   H1176     1.0  0.63750  0.23959  0.76764  1.0000
  H   H1177     1.0  0.63943  0.01367  0.86871  1.0000
  H   H1178     1.0  0.52345  0.17510  0.85347  1.0000
  C   C982      1.0  0.36330  0.13996  0.95216  1.0000
  C   C983      1.0  0.60715  0.99738  0.98355  1.0000
  C   C984      1.0  0.55453  0.99767  0.82759  1.0000
  C   C985      1.0  0.60928  0.41412  0.80673  1.0000
  H   H1179     1.0  0.33037  0.33684  0.86939  1.0000
  H   H1180     1.0  0.64883  0.40645  0.79880  1.0000
  S   S270      1.0  0.65096  0.31413  0.83182  1.0000
  H   H1181     1.0  0.58122  0.11228  0.88858  1.0000
  H   H1182     1.0  0.52732  0.04146  0.77984  1.0000
  C   C986      1.0  0.45947  0.47302  0.80357  1.0000
  H   H1183     1.0  0.60343  0.34751  0.78228  1.0000
  H   H1184     1.0  0.55297  0.41158  0.78591  1.0000
  C   C987      1.0  0.34352  0.17581  0.92199  1.0000
  C   C988      1.0  0.33394  0.45121  0.77191  1.0000
  H   H1185     1.0  0.58085  0.13985  0.88316  1.0000
  H   H1186     1.0  0.44326  0.46779  0.80974  1.0000
  S   S271      1.0  0.64437  0.34359  0.77064  1.0000
  C   C989      1.0  0.59209  0.13292  0.88914  1.0000
  H   H1187     1.0  0.63324  0.25391  0.78331  1.0000
  H   H1188     1.0  0.52216  0.00230  0.84337  1.0000
  C   C990      1.0  0.60441  0.01944  0.84203  1.0000
  H   H1189     1.0  0.34206  0.07837  0.97130  1.0000
  H   H1190     1.0  0.57416  0.38970  0.77602  1.0000
  C   C991      1.0  0.63244  0.13289  0.89074  1.0000
  C   C992      1.0  0.62899  0.16896  0.88331  1.0000
  H   H1191     1.0  0.50538  0.14406  0.83579  1.0000
  S   S272      1.0  0.34163  0.22011  0.92336  1.0000
  H   H1192     1.0  0.51697  0.13446  0.86004  1.0000
  C   C993      1.0  0.60141  0.00502  0.87008  1.0000
  H   H1193     1.0  0.46863  0.41581  0.73796  1.0000
  C   C994      1.0  0.60147  0.40006  0.79358  1.0000
  H   H1194     1.0  0.57222  0.22579  0.76352  1.0000
  C   C995      1.0  0.50191  0.00224  0.77762  1.0000
  H   H1195     1.0  0.49847  0.13272  0.87490  1.0000
  H   H1196     1.0  0.59283  0.21261  0.76488  1.0000
  H   H1197     1.0  0.60927  0.39289  0.76573  1.0000
  N   N68       1.0  0.56065  0.01241  0.84127  1.0000
  C   C996      1.0  0.33882  0.12715  0.95611  1.0000
  C   C997      1.0  0.32191  0.48405  0.74828  1.0000
  H   H1198     1.0  0.49804  0.18186  0.85270  1.0000
  C   C998      1.0  0.50300  0.46390  0.74358  1.0000
  H   H1199     1.0  0.49577  0.46710  0.75377  1.0000
  H   H1200     1.0  0.61715  0.17589  0.87797  1.0000
  Fe  Fe134     1.0  0.63961  0.34150  0.82311  1.0000
  H   H1201     1.0  0.33027  0.47213  0.78949  1.0000
  H   H1202     1.0  0.32844  0.31728  0.97409  1.0000
  H   H1203     1.0  0.33439  0.00798  0.98515  1.0000
  H   H1204     1.0  0.61804  0.22236  0.74602  1.0000
  C   C999      1.0  0.63379  0.25480  0.77149  1.0000
  H   H1205     1.0  0.39721  0.11330  0.87621  1.0000
  C   C1000     1.0  0.62333  0.01259  0.86308  1.0000
  C   C1001     1.0  0.64311  0.06073  0.88800  1.0000
  H   H1206     1.0  0.35321  0.46421  0.77060  1.0000
  H   H1207     1.0  0.63341  0.38527  0.76931  1.0000
  C   C1002     1.0  0.59716  0.42692  0.81200  1.0000
  C   C1003     1.0  0.34708  0.09564  0.96621  1.0000
  H   H1208     1.0  0.40268  0.29790  0.91625  1.0000
  H   H1209     1.0  0.36206  0.23782  0.89592  1.0000
  H   H1210     1.0  0.58317  0.04684  0.83114  1.0000
  H   H1211     1.0  0.34568  0.14136  0.92081  1.0000
  C   C1004     1.0  0.61637  0.23735  0.74118  1.0000
  H   H1212     1.0  0.36328  0.18735  0.92249  1.0000
  N   N69       1.0  0.61057  0.25278  0.76516  1.0000
  Fe  Fe135     1.0  0.65050  0.33207  0.79257  1.0000
  H   H1213     1.0  0.32286  0.29666  0.87570  1.0000
  H   H1214     1.0  0.46831  0.47671  0.74010  1.0000
  C   C1005     1.0  0.58114  0.39996  0.78607  1.0000
  H   H1215     1.0  0.39175  0.24239  0.91292  1.0000
  C   C1006     1.0  0.49830  0.00550  0.80726  1.0000
  H   H1216     1.0  0.58879  0.27166  0.76828  1.0000
  H   H1217     1.0  0.60796  0.28831  0.74750  1.0000
  H   H1218     1.0  0.56689  0.43487  0.80907  1.0000
  N   N70       1.0  0.48762  0.14333  0.85549  1.0000
  C   C1007     1.0  0.49790  0.12927  0.86319  1.0000
  C   C1008     1.0  0.48660  0.13739  0.83999  1.0000
  C   C1009     1.0  0.50510  0.17017  0.85790  1.0000
  C   C1010     1.0  0.46258  0.13607  0.86053  1.0000
  C   C1011     1.0  0.45717  0.15205  0.86935  1.0000
  C   C1012     1.0  0.44310  0.11173  0.85747  1.0000
  C   C1013     1.0  0.43374  0.14391  0.87479  1.0000
  C   C1014     1.0  0.41970  0.10397  0.86279  1.0000
  C   C1015     1.0  0.41510  0.11989  0.87157  1.0000
  H   H1219     1.0  0.48667  0.10892  0.86107  1.0000
  C   C1016     1.0  0.53790  0.00239  0.84953  1.0000
  H   H1220     1.0  0.43005  0.15605  0.88181  1.0000
  C   C1017     1.0  0.63148  0.01475  0.98144  1.0000
  H   H1221     1.0  0.55185  0.03982  0.83279  1.0000
  H   H1222     1.0  0.63005  0.13862  0.86232  1.0000
  C   C1018     1.0  0.61053  0.27389  0.74214  1.0000
  C   C1019     1.0  0.58173  0.01179  0.84883  1.0000
  H   H1223     1.0  0.38414  0.10117  0.96427  1.0000
  H   H1224     1.0  0.60081  0.13796  0.86194  1.0000
  N   N71       1.0  0.61672  0.14145  0.88306  1.0000
  C   C1020     1.0  0.49970  0.47602  0.80086  1.0000
  H   H1225     1.0  0.32686  0.13501  0.95335  1.0000
  C   C1021     1.0  0.34209  0.48356  0.74172  1.0000
  C   C1022     1.0  0.32202  0.43046  0.76267  1.0000
  H   H1226     1.0  0.60064  0.00025  0.88114  1.0000
  H   H1227     1.0  0.60476  0.27018  0.78397  1.0000
  C   C1023     1.0  0.62483  0.01980  0.84909  1.0000
  C   C1024     1.0  0.62422  0.11712  0.90244  1.0000
  H   H1228     1.0  0.60347  0.11130  0.86749  1.0000
  H   H1229     1.0  0.62175  0.29112  0.77077  1.0000
  H   H1230     1.0  0.64213  0.02620  0.84382  1.0000
  Fe  Fe136     1.0  0.32272  0.24482  0.92228  1.0000
  H   H1231     1.0  0.53809  0.99711  0.82197  1.0000
  C   C1025     1.0  0.58090  0.00473  0.86317  1.0000
  H   H1232     1.0  0.49662  0.00658  0.81864  1.0000
  C   C1026     1.0  0.62371  0.39524  0.77382  1.0000
  H   H1233     1.0  0.57254  0.05014  0.84826  1.0000
  H   H1234     1.0  0.51059  0.45098  0.74579  1.0000
  H   H1235     1.0  0.33214  0.42744  0.75422  1.0000
  H   H1236     1.0  0.62411  0.41488  0.81343  1.0000
  H   H1237     1.0  0.63715  0.02165  0.97094  1.0000
  H   H1238     1.0  0.63261  0.09642  0.91785  1.0000
  H   H1239     1.0  0.56959  0.00563  0.81999  1.0000
  H   H1240     1.0  0.63324  0.17690  0.89443  1.0000
  H   H1241     1.0  0.44597  0.48706  0.78648  1.0000
  S   S273      1.0  0.42623  0.48683  0.73907  1.0000
  H   H1242     1.0  0.63723  0.41533  0.77483  1.0000
  C   C1027     1.0  0.32088  0.45572  0.78248  1.0000
  S   S274      1.0  0.32272  0.02430  0.95914  1.0000
  H   H1243     1.0  0.51476  0.47315  0.80482  1.0000
  H   H1244     1.0  0.50349  0.00121  0.76623  1.0000
  H   H1245     1.0  0.64650  0.17692  0.87761  1.0000
  H   H1246     1.0  0.64237  0.37624  0.79242  1.0000
  H   H1247     1.0  0.51825  0.48233  0.74102  1.0000
  C   C1028     1.0  0.50125  0.48714  0.78770  1.0000
  H   H1248     1.0  0.64986  0.27268  0.76892  1.0000
  C   C1029     1.0  0.46300  0.43057  0.73702  1.0000
  C   C1030     1.0  0.48193  0.49123  0.78236  1.0000
  Fe  Fe137     1.0  0.62537  0.94258  0.05987  1.0000
  C   C1031     1.0  0.62025  0.52859  0.20451  1.0000
  S   S275      1.0  0.59308  0.95056  0.06494  1.0000
  H   H1249     1.0  0.35109  0.60811  0.10828  1.0000
  S   S276      1.0  0.33741  0.68558  0.20635  1.0000
  C   C1032     1.0  0.61077  0.63435  0.10594  1.0000
  S   S277      1.0  0.62851  0.92620  0.03865  1.0000
  C   C1033     1.0  0.56034  0.94890  0.12040  1.0000
  Fe  Fe138     1.0  0.32486  0.63568  0.15819  1.0000
  Fe  Fe139     1.0  0.62170  0.69760  0.06278  1.0000
  H   H1250     1.0  0.62609  0.62325  0.08036  1.0000
  S   S278      1.0  0.58764  0.68097  0.07676  1.0000
  H   H1251     1.0  0.62413  0.51660  0.18353  1.0000
  C   C1034     1.0  0.39401  0.73416  0.18227  1.0000
  S   S279      1.0  0.62761  0.72353  0.04485  1.0000
  C   C1035     1.0  0.31980  0.86558  0.11023  1.0000
  Fe  Fe140     1.0  0.45633  0.92409  0.13540  1.0000
  S   S280      1.0  0.46051  0.93472  0.11247  1.0000
  S   S281      1.0  0.48411  0.95092  0.15242  1.0000
  Fe  Fe141     1.0  0.41666  0.86985  0.12712  1.0000
  S   S282      1.0  0.41915  0.87710  0.10367  1.0000
  S   S283      1.0  0.38619  0.83589  0.13743  1.0000
  Fe  Fe142     1.0  0.46081  0.89845  0.10791  1.0000
  S   S284      1.0  0.49066  0.89209  0.09667  1.0000
  Fe  Fe143     1.0  0.41876  0.91289  0.11004  1.0000
  S   S285      1.0  0.39375  0.92925  0.10212  1.0000
  S   S286      1.0  0.45778  0.88840  0.13097  1.0000
  S   S287      1.0  0.41512  0.90502  0.13338  1.0000
  Fe  Fe144     1.0  0.46803  0.55716  0.10717  1.0000
  S   S288      1.0  0.47176  0.56433  0.13092  1.0000
  S   S289      1.0  0.49835  0.57425  0.09064  1.0000
  Fe  Fe145     1.0  0.41442  0.51325  0.10918  1.0000
  S   S290      1.0  0.41484  0.51795  0.13312  1.0000
  Fe  Fe146     1.0  0.43268  0.55913  0.12943  1.0000
  S   S291      1.0  0.42627  0.58877  0.14144  1.0000
  Fe  Fe147     1.0  0.45370  0.52288  0.13297  1.0000
  H   H1252     1.0  0.62189  0.54361  0.22562  1.0000
  S   S292      1.0  0.43009  0.55432  0.10550  1.0000
  S   S293      1.0  0.45204  0.51574  0.10917  1.0000
  C   C1036     1.0  0.52460  0.95576  0.12037  1.0000
  C   C1037     1.0  0.60005  0.95690  0.02119  1.0000
  Fe  Fe148     1.0  0.33440  0.68912  0.15380  1.0000
  S   S294      1.0  0.36120  0.72178  0.14103  1.0000
  S   S295      1.0  0.35323  0.67276  0.16744  1.0000
  C   C1038     1.0  0.37077  0.61706  0.11035  1.0000
  C   C1039     1.0  0.39616  0.79729  0.18014  1.0000
  H   H1253     1.0  0.58805  0.62065  0.99507  1.0000
  C   C1040     1.0  0.63339  0.52950  0.19248  1.0000
  H   H1254     1.0  0.32942  0.88246  0.06413  1.0000
  C   C1041     1.0  0.63203  0.54485  0.21614  1.0000
  Fe  Fe149     1.0  0.32542  0.66847  0.18379  1.0000
  H   H1255     1.0  0.55692  0.73296  0.01964  1.0000
  S   S296      1.0  0.63417  0.86649  0.04531  1.0000
  C   C1042     1.0  0.39919  0.59196  0.14381  1.0000
  C   C1043     1.0  0.40125  0.61312  0.15137  1.0000
  C   C1044     1.0  0.38054  0.61696  0.15317  1.0000
  C   C1045     1.0  0.35744  0.59974  0.14730  1.0000
  C   C1046     1.0  0.35532  0.57842  0.13989  1.0000
  C   C1047     1.0  0.37600  0.57449  0.13819  1.0000
  H   H1256     1.0  0.41904  0.62666  0.15585  1.0000
  H   H1257     1.0  0.38251  0.63319  0.15914  1.0000
  H   H1258     1.0  0.33756  0.56489  0.13536  1.0000
  H   H1259     1.0  0.37407  0.55810  0.13238  1.0000
  C   C1048     1.0  0.47983  0.96597  0.16780  1.0000
  C   C1049     1.0  0.34586  0.64583  0.11502  1.0000
  H   H1260     1.0  0.38308  0.79682  0.18774  1.0000
  C   C1050     1.0  0.57388  0.74202  0.08402  1.0000
  C   C1051     1.0  0.37922  0.80409  0.13785  1.0000
  C   C1052     1.0  0.35911  0.78782  0.14565  1.0000
  C   C1053     1.0  0.35310  0.76259  0.14661  1.0000
  C   C1054     1.0  0.36730  0.75329  0.13987  1.0000
  C   C1055     1.0  0.38722  0.76949  0.13193  1.0000
  C   C1056     1.0  0.39314  0.79469  0.13089  1.0000
  H   H1261     1.0  0.34812  0.79480  0.15103  1.0000
  H   H1262     1.0  0.33736  0.75037  0.15247  1.0000
  H   H1263     1.0  0.39828  0.76256  0.12658  1.0000
  H   H1264     1.0  0.40861  0.80689  0.12482  1.0000
  H   H1265     1.0  0.55184  0.59578  0.12757  1.0000
  C   C1057     1.0  0.33743  0.89856  0.07138  1.0000
  C   C1058     1.0  0.35776  0.90259  0.08047  1.0000
  C   C1059     1.0  0.36844  0.92331  0.08998  1.0000
  C   C1060     1.0  0.35853  0.93996  0.09009  1.0000
  C   C1061     1.0  0.33828  0.93599  0.08096  1.0000
  H   H1266     1.0  0.36528  0.88979  0.07996  1.0000
  H   H1267     1.0  0.36661  0.95613  0.09730  1.0000
  H   H1268     1.0  0.36277  0.87069  0.13610  1.0000
  C   C1062     1.0  0.56312  0.65098  0.08046  1.0000
  C   C1063     1.0  0.55796  0.62952  0.07223  1.0000
  C   C1064     1.0  0.53800  0.60642  0.07544  1.0000
  C   C1065     1.0  0.52290  0.60425  0.08696  1.0000
  C   C1066     1.0  0.52819  0.62570  0.09524  1.0000
  C   C1067     1.0  0.54805  0.64883  0.09197  1.0000
  H   H1269     1.0  0.56913  0.63072  0.06327  1.0000
  H   H1270     1.0  0.53418  0.59003  0.06894  1.0000
  H   H1271     1.0  0.51696  0.62446  0.10417  1.0000
  H   H1272     1.0  0.55175  0.66519  0.09845  1.0000
  C   C1068     1.0  0.56453  0.93376  0.07364  1.0000
  C   C1069     1.0  0.55573  0.90916  0.07750  1.0000
  C   C1070     1.0  0.53316  0.89684  0.08444  1.0000
  C   C1071     1.0  0.51896  0.90881  0.08769  1.0000
  C   C1072     1.0  0.52767  0.93335  0.08369  1.0000
  C   C1073     1.0  0.55022  0.94566  0.07675  1.0000
  H   H1273     1.0  0.56629  0.89959  0.07516  1.0000
  H   H1274     1.0  0.52666  0.87784  0.08734  1.0000
  H   H1275     1.0  0.51689  0.94278  0.08574  1.0000
  H   H1276     1.0  0.55663  0.96460  0.07376  1.0000
  H   H1277     1.0  0.40426  0.69182  0.11199  1.0000
  S   S297      1.0  0.64384  0.69644  0.01108  1.0000
  C   C1074     1.0  0.45418  0.97463  0.18400  1.0000
  C   C1075     1.0  0.46642  0.50205  0.18879  1.0000
  H   H1278     1.0  0.59477  0.94799  0.03163  1.0000
  H   H1279     1.0  0.40415  0.83412  0.17419  1.0000
  H   H1280     1.0  0.55681  0.74391  0.08277  1.0000
  N   N72       1.0  0.59261  0.75770  0.07399  1.0000
  H   H1281     1.0  0.58762  0.78802  0.05336  1.0000
  C   C1076     1.0  0.61412  0.75306  0.07534  1.0000
  C   C1077     1.0  0.60110  0.78410  0.07842  1.0000
  C   C1078     1.0  0.58214  0.75120  0.05921  1.0000
  C   C1079     1.0  0.58109  0.76882  0.05004  1.0000
  C   C1080     1.0  0.57321  0.72663  0.05344  1.0000
  C   C1081     1.0  0.40748  0.61190  0.11094  1.0000
  C   C1082     1.0  0.56417  0.72019  0.03936  1.0000
  C   C1083     1.0  0.56363  0.73794  0.03061  1.0000
  H   H1282     1.0  0.56856  0.72198  0.08238  1.0000
  H   H1283     1.0  0.58087  0.74706  0.09528  1.0000
  H   H1284     1.0  0.39659  0.67826  0.13668  1.0000
  H   H1285     1.0  0.60883  0.73306  0.07414  1.0000
  H   H1286     1.0  0.62419  0.75979  0.08583  1.0000
  H   H1287     1.0  0.62741  0.76257  0.06699  1.0000
  H   H1288     1.0  0.58577  0.78890  0.07785  1.0000
  H   H1289     1.0  0.60882  0.78838  0.08957  1.0000
  H   H1290     1.0  0.61620  0.79687  0.07172  1.0000
  H   H1291     1.0  0.38227  0.67436  0.09785  1.0000
  H   H1292     1.0  0.57367  0.71227  0.05970  1.0000
  H   H1293     1.0  0.45679  0.50688  0.19673  1.0000
  C   C1084     1.0  0.33535  0.68445  0.23552  1.0000
  C   C1085     1.0  0.58227  0.92839  0.10939  1.0000
  H   H1294     1.0  0.61427  0.95248  0.01679  1.0000
  H   H1295     1.0  0.57183  0.77605  0.02909  1.0000
  H   H1296     1.0  0.37160  0.58316  0.10422  1.0000
  H   H1297     1.0  0.33601  0.62966  0.12183  1.0000
  H   H1298     1.0  0.42149  0.66984  0.12283  1.0000
  H   H1299     1.0  0.36870  0.65122  0.14049  1.0000
  H   H1300     1.0  0.41164  0.76890  0.20408  1.0000
  N   N73       1.0  0.38693  0.75378  0.18571  1.0000
  C   C1086     1.0  0.38428  0.68019  0.10933  1.0000
  H   H1301     1.0  0.62436  0.67930  0.09588  1.0000
  H   H1302     1.0  0.35292  0.75630  0.18492  1.0000
  H   H1303     1.0  0.34935  0.72636  0.18856  1.0000
  C   C1087     1.0  0.32747  0.91516  0.07155  1.0000
  H   H1304     1.0  0.44046  0.95015  0.16512  1.0000
  N   N74       1.0  0.63319  0.64940  0.09802  1.0000
  H   H1305     1.0  0.33098  0.94901  0.08126  1.0000
  C   C1088     1.0  0.56812  0.60110  0.10718  1.0000
  C   C1089     1.0  0.41751  0.77883  0.16719  1.0000
  C   C1090     1.0  0.42496  0.82045  0.16237  1.0000
  S   S298      1.0  0.64223  0.67983  0.05215  1.0000
  N   N75       1.0  0.54046  0.94868  0.12910  1.0000
  C   C1091     1.0  0.63984  0.67605  0.09967  1.0000
  C   C1092     1.0  0.35443  0.85738  0.10825  1.0000
  H   H1306     1.0  0.50973  0.92467  0.14144  1.0000
  S   S299      1.0  0.47108  0.50267  0.14540  1.0000
  C   C1093     1.0  0.58892  0.61490  0.09934  1.0000
  H   H1307     1.0  0.36802  0.67904  0.13574  1.0000
  H   H1308     1.0  0.53485  0.91770  0.14177  1.0000
  C   C1094     1.0  0.61041  0.63888  0.12080  1.0000
  H   H1309     1.0  0.43609  0.97161  0.18688  1.0000
  H   H1310     1.0  0.44066  0.64313  0.11906  1.0000
  C   C1095     1.0  0.35109  0.87687  0.12995  1.0000
  H   H1311     1.0  0.57264  0.98019  0.02098  1.0000
  H   H1312     1.0  0.33330  0.90335  0.11959  1.0000
  N   N76       1.0  0.33669  0.85879  0.11814  1.0000
  H   H1313     1.0  0.37569  0.69258  0.11079  1.0000
  H   H1314     1.0  0.34141  0.63937  0.10365  1.0000
  H   H1315     1.0  0.50998  0.95661  0.12674  1.0000
  C   C1096     1.0  0.42963  0.80055  0.15974  1.0000
  C   C1097     1.0  0.47558  0.49985  0.16389  1.0000
  H   H1316     1.0  0.42148  0.76392  0.16427  1.0000
  C   C1098     1.0  0.46351  0.50624  0.17435  1.0000
  H   H1317     1.0  0.43367  0.83690  0.15619  1.0000
  H   H1318     1.0  0.33486  0.82949  0.13122  1.0000
  Fe  Fe150     1.0  0.65087  0.70760  0.03501  1.0000
  C   C1099     1.0  0.56307  0.92736  0.11751  1.0000
  H   H1319     1.0  0.33782  0.65853  0.11710  1.0000
  C   C1100     1.0  0.40999  0.65118  0.11858  1.0000
  H   H1320     1.0  0.38977  0.72778  0.17085  1.0000
  N   N77       1.0  0.37286  0.65832  0.11829  1.0000
  C   C1101     1.0  0.58958  0.98901  0.02799  1.0000
  H   H1321     1.0  0.53499  0.97423  0.11579  1.0000
  C   C1102     1.0  0.45658  0.96239  0.17164  1.0000
  H   H1322     1.0  0.50322  0.54078  0.23261  1.0000
  C   C1103     1.0  0.38434  0.64205  0.11573  1.0000
  H   H1323     1.0  0.55793  0.70139  0.03516  1.0000
  H   H1324     1.0  0.61320  0.95103  0.09694  1.0000
  H   H1325     1.0  0.51521  0.94201  0.11138  1.0000
  H   H1326     1.0  0.58334  0.94760  0.01403  1.0000
  H   H1327     1.0  0.55151  0.58650  0.10192  1.0000
  H   H1328     1.0  0.62169  0.81699  0.03540  1.0000
  H   H1329     1.0  0.53681  0.96614  0.14854  1.0000
  H   H1330     1.0  0.41393  0.74069  0.18474  1.0000
  C   C1104     1.0  0.32019  0.88891  0.11236  1.0000
  H   H1331     1.0  0.60103  0.51485  0.20498  1.0000
  H   H1332     1.0  0.58939  0.62910  0.13979  1.0000
  H   H1333     1.0  0.51438  0.90980  0.12611  1.0000
  C   C1105     1.0  0.40823  0.81881  0.17253  1.0000
  H   H1334     1.0  0.45165  0.51407  0.17129  1.0000
  C   C1106     1.0  0.57201  0.76218  0.03596  1.0000
  H   H1335     1.0  0.36603  0.87572  0.10371  1.0000
  C   C1107     1.0  0.40040  0.77657  0.17771  1.0000
  H   H1336     1.0  0.35585  0.73747  0.17092  1.0000
  C   C1108     1.0  0.37682  0.66712  0.13343  1.0000
  H   H1337     1.0  0.36712  0.85174  0.11374  1.0000
  C   C1109     1.0  0.57774  0.97123  0.11447  1.0000
  C   C1110     1.0  0.64792  0.63350  0.99767  1.0000
  C   C1111     1.0  0.62552  0.63180  0.00159  1.0000
  C   C1112     1.0  0.38234  0.60239  0.10793  1.0000
  H   H1338     1.0  0.62406  0.63914  0.01196  1.0000
  S   S300      1.0  0.33079  0.60409  0.14858  1.0000
  C   C1113     1.0  0.39154  0.75975  0.20124  1.0000
  C   C1114     1.0  0.36013  0.74312  0.18240  1.0000
  H   H1339     1.0  0.38362  0.71737  0.18855  1.0000
  C   C1115     1.0  0.42126  0.63620  0.11630  1.0000
  H   H1340     1.0  0.38245  0.74270  0.20750  1.0000
  H   H1341     1.0  0.41615  0.60010  0.10964  1.0000
  H   H1342     1.0  0.44212  0.80169  0.15151  1.0000
  S   S301      1.0  0.64116  0.92222  0.07256  1.0000
  C   C1116     1.0  0.56826  0.60631  0.12167  1.0000
  H   H1343     1.0  0.58716  0.61014  0.08809  1.0000
  C   C1117     1.0  0.58939  0.62511  0.12849  1.0000
  H   H1344     1.0  0.38418  0.77222  0.20507  1.0000
  C   C1118     1.0  0.63025  0.64284  0.08253  1.0000
  C   C1119     1.0  0.55130  0.96676  0.14139  1.0000
  H   H1345     1.0  0.34517  0.84382  0.09919  1.0000
  H   H1346     1.0  0.51865  0.98496  0.17360  1.0000
  H   H1347     1.0  0.62636  0.65324  0.12655  1.0000
  H   H1348     1.0  0.61545  0.64598  0.07744  1.0000
  C   C1120     1.0  0.32265  0.83423  0.12445  1.0000
  H   H1349     1.0  0.55030  0.90933  0.12108  1.0000
  C   C1121     1.0  0.60532  0.62155  0.99200  1.0000
  H   H1350     1.0  0.58367  0.91165  0.10698  1.0000
  H   H1351     1.0  0.33884  0.87935  0.13761  1.0000
  H   H1352     1.0  0.36400  0.89531  0.12589  1.0000
  C   C1122     1.0  0.52427  0.92409  0.13484  1.0000
  C   C1123     1.0  0.59896  0.95058  0.10371  1.0000
  H   H1353     1.0  0.57659  0.98823  0.11598  1.0000
  H   H1354     1.0  0.34518  0.70446  0.23533  1.0000
  H   H1355     1.0  0.64471  0.68337  0.11085  1.0000
  C   C1124     1.0  0.59665  0.97194  0.10620  1.0000
  H   H1356     1.0  0.56433  0.96283  0.14786  1.0000
  C   C1125     1.0  0.32904  0.67018  0.22265  1.0000
  H   H1357     1.0  0.58105  0.97420  0.99805  1.0000
  C   C1126     1.0  0.50057  0.98200  0.17645  1.0000
  H   H1358     1.0  0.64749  0.65441  0.07695  1.0000
  H   H1359     1.0  0.58392  0.98149  0.03874  1.0000
  C   C1127     1.0  0.63645  0.82250  0.04338  1.0000
  H   H1360     1.0  0.56136  0.98620  0.13806  1.0000
  H   H1361     1.0  0.64793  0.95750  0.99826  1.0000
  H   H1362     1.0  0.63723  0.78741  0.04170  1.0000
  N   N78       1.0  0.60949  0.98412  0.02270  1.0000
  C   C1128     1.0  0.64664  0.84642  0.04997  1.0000
  H   H1363     1.0  0.60930  0.98897  0.10140  1.0000
  Fe  Fe151     1.0  0.64641  0.90745  0.05134  1.0000
  H   H1364     1.0  0.64961  0.62614  0.10296  1.0000
  C   C1129     1.0  0.64524  0.80566  0.04693  1.0000
  H   H1365     1.0  0.62321  0.98531  0.04420  1.0000
  C   C1130     1.0  0.47491  0.99060  0.19267  1.0000
  H   H1366     1.0  0.42189  0.49251  0.06626  1.0000
  H   H1367     1.0  0.64488  0.98974  0.03085  1.0000
  C   C1131     1.0  0.60007  0.98781  0.99698  1.0000
  Fe  Fe152     1.0  0.62366  0.92614  0.41105  1.0000
  S   S302      1.0  0.58561  0.90721  0.39941  1.0000
  H   H1368     1.0  0.35199  0.61217  0.30094  1.0000
  S   S303      1.0  0.63217  0.90881  0.42979  1.0000
  Fe  Fe153     1.0  0.62270  0.68324  0.41663  1.0000
  S   S304      1.0  0.58378  0.64962  0.41524  1.0000
  S   S305      1.0  0.62819  0.70926  0.43542  1.0000
  Fe  Fe154     1.0  0.41831  0.87128  0.35077  1.0000
  S   S306      1.0  0.43026  0.89203  0.37212  1.0000
  S   S307      1.0  0.39068  0.82972  0.35112  1.0000
  Fe  Fe155     1.0  0.44083  0.91989  0.33479  1.0000
  S   S308      1.0  0.45330  0.94347  0.35513  1.0000
  S   S309      1.0  0.44267  0.93119  0.31149  1.0000
  Fe  Fe156     1.0  0.46645  0.91652  0.36249  1.0000
  S   S310      1.0  0.50348  0.93494  0.37541  1.0000
  Fe  Fe157     1.0  0.41624  0.91732  0.36361  1.0000
  S   S311      1.0  0.39572  0.92976  0.37949  1.0000
  S   S312      1.0  0.45573  0.89401  0.34159  1.0000
  S   S313      1.0  0.40270  0.89562  0.34275  1.0000
  C   C1132     1.0  0.54489  0.67113  0.38664  1.0000
  C   C1133     1.0  0.59285  0.61839  0.48048  1.0000
  Fe  Fe158     1.0  0.47189  0.55304  0.35886  1.0000
  S   S314      1.0  0.46013  0.55586  0.33643  1.0000
  S   S315      1.0  0.51283  0.58070  0.36332  1.0000
  Fe  Fe159     1.0  0.42626  0.55470  0.34575  1.0000
  S   S316      1.0  0.42147  0.58726  0.33750  1.0000
  Fe  Fe160     1.0  0.43997  0.51442  0.33494  1.0000
  H   H1369     1.0  0.33259  0.81092  0.39024  1.0000
  S   S317      1.0  0.43878  0.55336  0.36829  1.0000
  S   S318      1.0  0.45390  0.51112  0.35669  1.0000
  H   H1370     1.0  0.43778  0.53249  0.29621  1.0000
  C   C1134     1.0  0.38903  0.55983  0.28439  1.0000
  Fe  Fe161     1.0  0.33449  0.69129  0.31114  1.0000
  S   S319      1.0  0.36431  0.73225  0.31186  1.0000
  S   S320      1.0  0.34671  0.66436  0.30186  1.0000
  H   H1371     1.0  0.53694  0.94346  0.34937  1.0000
  C   C1135     1.0  0.50695  0.91457  0.41716  1.0000
  N   N79       1.0  0.56688  0.91491  0.44221  1.0000
  H   H1372     1.0  0.50534  0.64080  0.33805  1.0000
  H   H1373     1.0  0.47803  0.61277  0.34101  1.0000
  H   H1374     1.0  0.42059  0.88796  0.29021  1.0000
  H   H1375     1.0  0.59254  0.93595  0.42667  1.0000
  H   H1376     1.0  0.48220  0.54758  0.30075  1.0000
  C   C1136     1.0  0.37801  0.82895  0.29901  1.0000
  C   C1137     1.0  0.39575  0.59309  0.33578  1.0000
  C   C1138     1.0  0.37222  0.57623  0.33991  1.0000
  C   C1139     1.0  0.35240  0.58161  0.33814  1.0000
  C   C1140     1.0  0.35575  0.60380  0.33217  1.0000
  C   C1141     1.0  0.37930  0.62069  0.32805  1.0000
  C   C1142     1.0  0.39914  0.61534  0.32986  1.0000
  H   H1377     1.0  0.36928  0.55906  0.34448  1.0000
  H   H1378     1.0  0.54588  0.90170  0.46092  1.0000
  H   H1379     1.0  0.52868  0.55673  0.26127  1.0000
  H   H1380     1.0  0.41724  0.62852  0.32660  1.0000
  C   C1143     1.0  0.46194  0.95938  0.30306  1.0000
  C   C1144     1.0  0.45868  0.96069  0.28828  1.0000
  C   C1145     1.0  0.62427  0.50341  0.24354  1.0000
  H   H1381     1.0  0.44463  0.94471  0.28233  1.0000
  C   C1146     1.0  0.38450  0.80251  0.34055  1.0000
  C   C1147     1.0  0.36315  0.78018  0.34296  1.0000
  C   C1148     1.0  0.35694  0.75834  0.33456  1.0000
  C   C1149     1.0  0.37199  0.75857  0.32356  1.0000
  C   C1150     1.0  0.39353  0.78082  0.32132  1.0000
  C   C1151     1.0  0.39987  0.80257  0.32980  1.0000
  H   H1382     1.0  0.35120  0.77974  0.35131  1.0000
  H   H1383     1.0  0.34036  0.74141  0.33646  1.0000
  H   H1384     1.0  0.40539  0.78120  0.31291  1.0000
  H   H1385     1.0  0.41671  0.81925  0.32809  1.0000
  H   H1386     1.0  0.62397  0.93312  0.37519  1.0000
  C   C1152     1.0  0.51960  0.53675  0.25783  1.0000
  C   C1153     1.0  0.34621  0.91403  0.37140  1.0000
  C   C1154     1.0  0.36530  0.92587  0.38175  1.0000
  C   C1155     1.0  0.36017  0.93491  0.39450  1.0000
  C   C1156     1.0  0.33631  0.93174  0.39703  1.0000
  H   H1387     1.0  0.34983  0.90749  0.36139  1.0000
  H   H1388     1.0  0.37474  0.94425  0.40257  1.0000
  H   H1389     1.0  0.33272  0.93854  0.40698  1.0000
  C   C1157     1.0  0.56430  0.63097  0.40056  1.0000
  C   C1158     1.0  0.57239  0.63316  0.38665  1.0000
  C   C1159     1.0  0.55632  0.61771  0.37545  1.0000
  C   C1160     1.0  0.53190  0.60001  0.37793  1.0000
  C   C1161     1.0  0.52366  0.59809  0.39181  1.0000
  C   C1162     1.0  0.53980  0.61338  0.40303  1.0000
  H   H1390     1.0  0.59108  0.64660  0.38452  1.0000
  H   H1391     1.0  0.56295  0.61944  0.36478  1.0000
  H   H1392     1.0  0.50501  0.58456  0.39393  1.0000
  H   H1393     1.0  0.53325  0.61151  0.41372  1.0000
  C   C1163     1.0  0.56297  0.91542  0.39296  1.0000
  C   C1164     1.0  0.56434  0.93858  0.39607  1.0000
  C   C1165     1.0  0.54593  0.94407  0.39064  1.0000
  C   C1166     1.0  0.52572  0.92647  0.38218  1.0000
  C   C1167     1.0  0.52417  0.90320  0.37923  1.0000
  C   C1168     1.0  0.54270  0.89778  0.38456  1.0000
  H   H1394     1.0  0.57933  0.95220  0.40279  1.0000
  H   H1395     1.0  0.54727  0.96207  0.39307  1.0000
  H   H1396     1.0  0.50881  0.88945  0.37275  1.0000
  H   H1397     1.0  0.54129  0.87974  0.38214  1.0000
  H   H1398     1.0  0.49262  0.91511  0.41047  1.0000
  H   H1399     1.0  0.42360  0.84977  0.31055  1.0000
  N   N80       1.0  0.39486  0.85590  0.30115  1.0000
  C   C1169     1.0  0.52065  0.93396  0.42701  1.0000
  C   C1170     1.0  0.36098  0.81589  0.30951  1.0000
  H   H1400     1.0  0.58224  0.60042  0.47517  1.0000
  H   H1401     1.0  0.62191  0.68114  0.47671  1.0000
  C   C1171     1.0  0.47533  0.61837  0.36830  1.0000
  C   C1172     1.0  0.59443  0.97945  0.36412  1.0000
  H   H1402     1.0  0.33323  0.78059  0.31635  1.0000
  H   H1403     1.0  0.34818  0.56520  0.26209  1.0000
  H   H1404     1.0  0.59247  0.92279  0.35914  1.0000
  H   H1405     1.0  0.51999  0.50641  0.30298  1.0000
  H   H1406     1.0  0.53011  0.53484  0.24882  1.0000
  C   C1173     1.0  0.62948  0.97594  0.38593  1.0000
  C   C1174     1.0  0.56143  0.69100  0.37909  1.0000
  H   H1407     1.0  0.33603  0.75679  0.29553  1.0000
  Fe  Fe162     1.0  0.41952  0.51142  0.36458  1.0000
  S   S321      1.0  0.63341  0.76967  0.42354  1.0000
  H   H1408     1.0  0.63096  0.67020  0.45402  1.0000
  H   H1409     1.0  0.45740  0.60566  0.36272  1.0000
  C   C1175     1.0  0.33052  0.87887  0.41157  1.0000
  H   H1410     1.0  0.61395  0.65152  0.43870  1.0000
  C   C1176     1.0  0.35725  0.56587  0.27217  1.0000
  C   C1177     1.0  0.55562  0.94878  0.35316  1.0000
  H   H1411     1.0  0.38514  0.84766  0.38203  1.0000
  H   H1412     1.0  0.33602  0.85475  0.36257  1.0000
  C   C1178     1.0  0.47726  0.65190  0.35493  1.0000
  H   H1413     1.0  0.52192  0.52595  0.26656  1.0000
  C   C1179     1.0  0.40898  0.86748  0.28841  1.0000
  N   N81       1.0  0.49316  0.52747  0.25372  1.0000
  C   C1180     1.0  0.58761  0.93760  0.35890  1.0000
  H   H1414     1.0  0.40369  0.55474  0.28415  1.0000
  C   C1181     1.0  0.64729  0.99149  0.36349  1.0000
  H   H1415     1.0  0.55912  0.60840  0.45704  1.0000
  C   C1182     1.0  0.61460  0.66333  0.48151  1.0000
  H   H1416     1.0  0.49871  0.56160  0.24472  1.0000
  S   S322      1.0  0.65053  0.95045  0.46254  1.0000
  H   H1417     1.0  0.56368  0.98606  0.35893  1.0000
  C   C1183     1.0  0.48875  0.53939  0.27929  1.0000
  H   H1418     1.0  0.31956  0.81354  0.37348  1.0000
  H   H1419     1.0  0.37258  0.86454  0.31553  1.0000
  H   H1420     1.0  0.57883  0.91721  0.46422  1.0000
  H   H1421     1.0  0.38223  0.63786  0.32347  1.0000
  S   S323      1.0  0.40470  0.51299  0.34265  1.0000
  H   H1422     1.0  0.53514  0.87925  0.42135  1.0000
  C   C1184     1.0  0.47418  0.54080  0.29012  1.0000
  C   C1185     1.0  0.37476  0.85460  0.38875  1.0000
  C   C1186     1.0  0.37605  0.55908  0.27189  1.0000
  Fe  Fe163     1.0  0.64694  0.74074  0.42088  1.0000
  C   C1187     1.0  0.32912  0.67306  0.24871  1.0000
  H   H1423     1.0  0.38634  0.87514  0.38986  1.0000
  H   H1424     1.0  0.36112  0.58026  0.30776  1.0000
  C   C1188     1.0  0.36380  0.78897  0.28583  1.0000
  H   H1425     1.0  0.54998  0.66876  0.39739  1.0000
  H   H1426     1.0  0.60960  0.50219  0.25014  1.0000
  C   C1189     1.0  0.49565  0.62715  0.34620  1.0000
  C   C1190     1.0  0.33525  0.85586  0.39105  1.0000
  C   C1191     1.0  0.60367  0.96207  0.36438  1.0000
  H   H1427     1.0  0.32176  0.57096  0.30760  1.0000
  C   C1192     1.0  0.63318  0.81451  0.42278  1.0000
  C   C1193     1.0  0.55522  0.69398  0.36523  1.0000
  H   H1428     1.0  0.36583  0.86535  0.29690  1.0000
  H   H1429     1.0  0.64635  0.98788  0.35178  1.0000
  H   H1430     1.0  0.44370  0.51353  0.25294  1.0000
  S   S324      1.0  0.63910  0.71465  0.40181  1.0000
  C   C1194     1.0  0.52215  0.65397  0.38035  1.0000
  H   H1431     1.0  0.57918  0.70398  0.38400  1.0000
  H   H1432     1.0  0.35739  0.61950  0.28256  1.0000
  H   H1433     1.0  0.56823  0.70944  0.35938  1.0000
  C   C1195     1.0  0.35368  0.85912  0.36827  1.0000
  H   H1434     1.0  0.46392  0.49307  0.24431  1.0000
  H   H1435     1.0  0.55020  0.94950  0.44251  1.0000
  H   H1436     1.0  0.39297  0.88984  0.30577  1.0000
  H   H1437     1.0  0.47079  0.62560  0.37815  1.0000
  C   C1196     1.0  0.48022  0.98031  0.31055  1.0000
  C   C1197     1.0  0.53147  0.89459  0.42362  1.0000
  H   H1438     1.0  0.40372  0.85297  0.32311  1.0000
  C   C1198     1.0  0.54585  0.91409  0.43379  1.0000
  C   C1199     1.0  0.48347  0.49934  0.30859  1.0000
  C   C1200     1.0  0.47342  0.98251  0.28109  1.0000
  S   S325      1.0  0.64531  0.96511  0.42037  1.0000
  C   C1201     1.0  0.64916  0.51902  0.24796  1.0000
  C   C1202     1.0  0.53980  0.93379  0.43523  1.0000
  H   H1439     1.0  0.63585  0.94382  0.35785  1.0000
  H   H1440     1.0  0.61427  0.80418  0.42584  1.0000
  H   H1441     1.0  0.36018  0.82509  0.31931  1.0000
  H   H1442     1.0  0.63260  0.84969  0.42318  1.0000
  H   H1443     1.0  0.64823  0.98241  0.39086  1.0000
  C   C1203     1.0  0.58991  0.93669  0.43830  1.0000
  C   C1204     1.0  0.44907  0.53226  0.28758  1.0000
  H   H1444     1.0  0.48416  0.60676  0.37126  1.0000
  H   H1445     1.0  0.51060  0.63871  0.38674  1.0000
  C   C1205     1.0  0.41285  0.85976  0.31291  1.0000
  C   C1206     1.0  0.43840  0.52262  0.27412  1.0000
  H   H1446     1.0  0.32926  0.61495  0.29021  1.0000
  H   H1447     1.0  0.39645  0.86447  0.27901  1.0000
  C   C1207     1.0  0.47847  0.52963  0.26542  1.0000
  C   C1208     1.0  0.51518  0.65647  0.36621  1.0000
  C   C1209     1.0  0.35082  0.57349  0.28513  1.0000
  C   C1210     1.0  0.51226  0.89489  0.41554  1.0000
  C   C1211     1.0  0.56403  0.93124  0.35330  1.0000
  C   C1212     1.0  0.61740  0.65103  0.45030  1.0000
  C   C1213     1.0  0.45284  0.52141  0.26316  1.0000
  H   H1448     1.0  0.39358  0.56830  0.30697  1.0000
  C   C1214     1.0  0.57020  0.89252  0.43986  1.0000
  H   H1449     1.0  0.41876  0.51557  0.27227  1.0000
  H   H1450     1.0  0.48980  0.51124  0.31815  1.0000
  H   H1451     1.0  0.50704  0.61794  0.34886  1.0000
  N   N82       1.0  0.59429  0.64152  0.45811  1.0000
  C   C1215     1.0  0.58314  0.65819  0.45607  1.0000
  C   C1216     1.0  0.64354  0.84035  0.42129  1.0000
  C   C1217     1.0  0.57682  0.61685  0.45149  1.0000
  C   C1218     1.0  0.60010  0.64090  0.47340  1.0000
  H   H1452     1.0  0.48300  0.97971  0.32189  1.0000
  C   C1219     1.0  0.33701  0.82026  0.37993  1.0000
  C   C1220     1.0  0.50057  0.49658  0.29994  1.0000
  H   H1453     1.0  0.58482  0.60387  0.45137  1.0000
  C   C1221     1.0  0.38332  0.56741  0.29722  1.0000
  H   H1454     1.0  0.59618  0.67791  0.45894  1.0000
  H   H1455     1.0  0.57736  0.65798  0.44473  1.0000
  H   H1456     1.0  0.32942  0.58982  0.26388  1.0000
  H   H1457     1.0  0.62642  0.63911  0.45165  1.0000
  C   C1222     1.0  0.57074  0.97280  0.35861  1.0000
  H   H1458     1.0  0.45879  0.63883  0.35000  1.0000
  H   H1459     1.0  0.33427  0.56841  0.34136  1.0000
  H   H1460     1.0  0.57223  0.61824  0.44011  1.0000
  H   H1461     1.0  0.56660  0.65260  0.46254  1.0000
  N   N83       1.0  0.49127  0.63872  0.35915  1.0000
  N   N84       1.0  0.62865  0.96948  0.37057  1.0000
  H   H1462     1.0  0.50197  0.88020  0.40756  1.0000
  H   H1463     1.0  0.39181  0.82274  0.27875  1.0000
  C   C1223     1.0  0.64706  0.80195  0.42044  1.0000
  C   C1224     1.0  0.56352  0.91727  0.45765  1.0000
  H   H1464     1.0  0.60639  0.93756  0.44403  1.0000
  H   H1465     1.0  0.55349  0.87535  0.44258  1.0000
  N   N85       1.0  0.35001  0.84766  0.38226  1.0000
  C   C1225     1.0  0.38086  0.86935  0.30497  1.0000
  C   C1226     1.0  0.63613  0.94969  0.36918  1.0000
  Fe  Fe164     1.0  0.32340  0.63824  0.31818  1.0000
  H   H1466     1.0  0.47423  0.66148  0.36432  1.0000
  H   H1467     1.0  0.42621  0.87974  0.31477  1.0000
  H   H1468     1.0  0.36532  0.77818  0.27692  1.0000
  H   H1469     1.0  0.61652  0.95955  0.39171  1.0000
  H   H1470     1.0  0.37340  0.84667  0.39938  1.0000
  H   H1471     1.0  0.51666  0.94941  0.42805  1.0000
  H   H1472     1.0  0.55178  0.91232  0.34956  1.0000
  H   H1473     1.0  0.48680  0.66601  0.34696  1.0000
  C   C1227     1.0  0.34311  0.60812  0.29009  1.0000
  C   C1228     1.0  0.37903  0.81466  0.28708  1.0000
  H   H1474     1.0  0.47059  0.98309  0.26975  1.0000
  H   H1475     1.0  0.50786  0.54546  0.28223  1.0000
  H   H1476     1.0  0.36381  0.87826  0.40746  1.0000
  C   C1229     1.0  0.53245  0.67705  0.35885  1.0000
  H   H1477     1.0  0.52852  0.68007  0.34806  1.0000
  H   H1478     1.0  0.58998  0.95455  0.44096  1.0000
  H   H1479     1.0  0.58585  0.89351  0.44656  1.0000
  H   H1480     1.0  0.57457  0.89048  0.42863  1.0000
  C   C1230     1.0  0.34712  0.77684  0.29625  1.0000
  H   H1481     1.0  0.42209  0.86032  0.28578  1.0000
  H   H1482     1.0  0.34841  0.81354  0.37400  1.0000
  C   C1231     1.0  0.36457  0.57417  0.29760  1.0000
  N   N86       1.0  0.33148  0.58139  0.28587  1.0000
  H   H1483     1.0  0.38071  0.55340  0.26189  1.0000
  C   C1232     1.0  0.48302  0.50109  0.24891  1.0000
  H   H1484     1.0  0.36457  0.87963  0.36954  1.0000
  C   C1233     1.0  0.34495  0.87128  0.40364  1.0000
  C   C1234     1.0  0.32231  0.91069  0.37397  1.0000
  H   H1485     1.0  0.49414  0.49873  0.24047  1.0000
  H   H1486     1.0  0.56342  0.93491  0.46068  1.0000
  H   H1487     1.0  0.36397  0.85279  0.36116  1.0000
  C   C1235     1.0  0.49194  0.54172  0.24150  1.0000
  H   H1488     1.0  0.33841  0.89108  0.42096  1.0000
  H   H1489     1.0  0.64947  0.77073  0.45268  1.0000
  H   H1490     1.0  0.64343  0.76730  0.47124  1.0000
  S   S326      1.0  0.32963  0.60869  0.32944  1.0000
  H   H1491     1.0  0.33410  0.68428  0.25852  1.0000
  H   H1492     1.0  0.47292  0.53437  0.23684  1.0000
  C   C1236     1.0  0.34557  0.79030  0.30800  1.0000
  H   H1493     1.0  0.62454  0.99099  0.38800  1.0000
  H   H1494     1.0  0.48144  0.78026  0.71538  1.0000
  Fe  Fe165     1.0  0.44520  0.50693  0.71961  1.0000
  S   S327      1.0  0.42882  0.53312  0.72064  1.0000
  H   H1495     1.0  0.54003  0.68924  0.72322  1.0000
  C   C1237     1.0  0.52062  0.50167  0.57240  1.0000
  H   H1496     1.0  0.44980  0.71285  0.72479  1.0000
  S   S328      1.0  0.42764  0.89169  0.71931  1.0000
  C   C1238     1.0  0.49480  0.85661  0.72336  1.0000
  Fe  Fe166     1.0  0.45540  0.93258  0.71979  1.0000
  S   S329      1.0  0.46329  0.94633  0.69698  1.0000
  H   H1497     1.0  0.58079  0.56816  0.71362  1.0000
  Fe  Fe167     1.0  0.59801  0.78700  0.72095  1.0000
  S   S330      1.0  0.55671  0.76907  0.71733  1.0000
  S   S331      1.0  0.62416  0.78504  0.70456  1.0000
  H   H1498     1.0  0.59466  0.60126  0.49993  1.0000
  H   H1499     1.0  0.47696  0.53509  0.69811  1.0000
  H   H1500     1.0  0.63828  0.83770  0.70105  1.0000
  H   H1501     1.0  0.52088  0.58492  0.71440  1.0000
  H   H1502     1.0  0.48097  0.56341  0.70638  1.0000
  Fe  Fe168     1.0  0.40844  0.90219  0.73626  1.0000
  C   C1239     1.0  0.64431  0.80777  0.69300  1.0000
  H   H1503     1.0  0.53335  0.54998  0.67669  1.0000
  C   C1240     1.0  0.51710  0.64969  0.72541  1.0000
  H   H1504     1.0  0.50810  0.60281  0.69703  1.0000
  H   H1505     1.0  0.62819  0.58074  0.60904  1.0000
  C   C1241     1.0  0.61389  0.64091  0.50241  1.0000
  C   C1242     1.0  0.32986  0.84117  0.69258  1.0000
  S   S332      1.0  0.47959  0.53351  0.73183  1.0000
  H   H1506     1.0  0.64775  0.78237  0.73090  1.0000
  H   H1507     1.0  0.54401  0.89980  0.73381  1.0000
  H   H1508     1.0  0.48797  0.74608  0.71469  1.0000
  H   H1509     1.0  0.62680  0.56336  0.56443  1.0000
  S   S333      1.0  0.48823  0.59902  0.72746  1.0000
  H   H1510     1.0  0.55241  0.53607  0.56810  1.0000
  C   C1243     1.0  0.52686  0.52179  0.55001  1.0000
  C   C1244     1.0  0.46700  0.77627  0.72279  1.0000
  H   H1511     1.0  0.48964  0.86744  0.71649  1.0000
  H   H1512     1.0  0.52269  0.60470  0.68047  1.0000
  H   H1513     1.0  0.35037  0.93273  0.69909  1.0000
  H   H1514     1.0  0.51056  0.56554  0.66551  1.0000
  H   H1515     1.0  0.46473  0.95832  0.66763  1.0000
  H   H1516     1.0  0.51967  0.85360  0.70853  1.0000
  H   H1517     1.0  0.52563  0.64463  0.71691  1.0000
  C   C1245     1.0  0.55818  0.55841  0.69434  1.0000
  C   C1246     1.0  0.36074  0.89335  0.69443  1.0000
  C   C1247     1.0  0.53488  0.52132  0.56389  1.0000
  C   C1248     1.0  0.32815  0.52767  0.71908  1.0000
  H   H1518     1.0  0.39198  0.92244  0.67457  1.0000
  C   C1249     1.0  0.51179  0.84864  0.71885  1.0000
  H   H1519     1.0  0.53552  0.99077  0.69402  1.0000
  C   C1250     1.0  0.52538  0.67512  0.72898  1.0000
  H   H1520     1.0  0.38111  0.95480  0.70480  1.0000
  C   C1251     1.0  0.36783  0.93461  0.70396  1.0000
  H   H1521     1.0  0.39830  0.91721  0.71310  1.0000
  C   C1252     1.0  0.63002  0.57528  0.58644  1.0000
  C   C1253     1.0  0.62005  0.55796  0.57494  1.0000
  C   C1254     1.0  0.60119  0.53357  0.57702  1.0000
  C   C1255     1.0  0.59208  0.52590  0.59062  1.0000
  C   C1256     1.0  0.60207  0.54321  0.60212  1.0000
  C   C1257     1.0  0.62076  0.56766  0.60002  1.0000
  H   H1522     1.0  0.56871  0.55087  0.68888  1.0000
  H   H1523     1.0  0.59369  0.52048  0.56801  1.0000
  H   H1524     1.0  0.59537  0.53778  0.61265  1.0000
  H   H1525     1.0  0.36457  0.92835  0.71510  1.0000
  H   H1526     1.0  0.41434  0.94547  0.70393  1.0000
  H   H1527     1.0  0.52899  0.50489  0.68859  1.0000
  H   H1528     1.0  0.49723  0.50774  0.70319  1.0000
  C   C1258     1.0  0.36786  0.87719  0.68715  1.0000
  H   H1529     1.0  0.33207  0.56218  0.72781  1.0000
  H   H1530     1.0  0.49126  0.53578  0.67299  1.0000
  S   S334      1.0  0.53904  0.82360  0.72074  1.0000
  C   C1259     1.0  0.51845  0.83408  0.72746  1.0000
  H   H1531     1.0  0.50813  0.93238  0.66177  1.0000
  H   H1532     1.0  0.48998  0.59427  0.68086  1.0000
  C   C1260     1.0  0.45989  0.71875  0.73532  1.0000
  H   H1533     1.0  0.64833  0.82104  0.72769  1.0000
  H   H1534     1.0  0.53807  0.53705  0.54344  1.0000
  H   H1535     1.0  0.45846  0.80299  0.71310  1.0000
  H   H1536     1.0  0.64219  0.93331  0.60209  1.0000
  H   H1537     1.0  0.49841  0.50304  0.53377  1.0000
  H   H1538     1.0  0.35873  0.83951  0.68097  1.0000
  C   C1261     1.0  0.52130  0.95965  0.67905  1.0000
  H   H1539     1.0  0.63280  0.68057  0.50168  1.0000
  H   H1540     1.0  0.39449  0.95090  0.68156  1.0000
  H   H1541     1.0  0.47862  0.55555  0.66797  1.0000
  H   H1542     1.0  0.61993  0.64096  0.51334  1.0000
  C   C1262     1.0  0.40130  0.92527  0.70246  1.0000
  C   C1263     1.0  0.59978  0.61855  0.49477  1.0000
  C   C1264     1.0  0.31940  0.98502  0.62947  1.0000
  H   H1543     1.0  0.52777  0.50218  0.58307  1.0000
  C   C1265     1.0  0.55127  0.57747  0.71532  1.0000
  N   N87       1.0  0.47651  0.74590  0.73625  1.0000
  C   C1266     1.0  0.35265  0.85150  0.68632  1.0000
  N   N88       1.0  0.37755  0.92044  0.69551  1.0000
  H   H1544     1.0  0.33029  0.89276  0.70653  1.0000
  H   H1545     1.0  0.36484  0.92638  0.67525  1.0000
  C   C1267     1.0  0.38234  0.93043  0.68108  1.0000
  H   H1546     1.0  0.42642  0.79796  0.72992  1.0000
  H   H1547     1.0  0.55648  0.58499  0.72618  1.0000
  C   C1268     1.0  0.64814  0.83224  0.69357  1.0000
  H   H1548     1.0  0.46222  0.55160  0.69059  1.0000
  C   C1269     1.0  0.56494  0.56804  0.70827  1.0000
  C   C1270     1.0  0.62111  0.66324  0.49582  1.0000
  H   H1549     1.0  0.52767  0.96235  0.64349  1.0000
  N   N89       1.0  0.50140  0.56751  0.68736  1.0000
  C   C1271     1.0  0.47950  0.55386  0.69595  1.0000
  C   C1272     1.0  0.50577  0.59343  0.68635  1.0000
  C   C1273     1.0  0.49533  0.55560  0.67281  1.0000
  C   C1274     1.0  0.52325  0.56749  0.69432  1.0000
  C   C1275     1.0  0.53081  0.57730  0.70847  1.0000
  C   C1276     1.0  0.53768  0.55810  0.68740  1.0000
  C   C1277     1.0  0.33720  0.88219  0.70054  1.0000
  C   C1278     1.0  0.45385  0.78958  0.72131  1.0000
  C   C1279     1.0  0.49189  0.49721  0.69315  1.0000
  C   C1280     1.0  0.47670  0.97548  0.68866  1.0000
  Fe  Fe169     1.0  0.46257  0.55903  0.73420  1.0000
  H   H1550     1.0  0.41114  0.91718  0.69625  1.0000
  C   C1281     1.0  0.47480  0.97567  0.67371  1.0000
  S   S335      1.0  0.60034  0.82153  0.73141  1.0000
  C   C1282     1.0  0.31918  0.54329  0.72432  1.0000
  H   H1551     1.0  0.38550  0.88428  0.68226  1.0000
  S   S336      1.0  0.56789  0.49480  0.59244  1.0000
  H   H1552     1.0  0.51180  0.94631  0.68702  1.0000
  H   H1553     1.0  0.50982  0.77126  0.72637  1.0000
  H   H1554     1.0  0.33892  0.99086  0.63012  1.0000
  H   H1555     1.0  0.64640  0.88505  0.63821  1.0000
  C   C1283     1.0  0.51915  0.95189  0.66480  1.0000
  C   C1284     1.0  0.53053  0.96921  0.65443  1.0000
  C   C1285     1.0  0.46221  0.75945  0.73389  1.0000
  C   C1286     1.0  0.49804  0.63084  0.73275  1.0000
  H   H1556     1.0  0.34785  0.53425  0.71864  1.0000
  C   C1287     1.0  0.49588  0.75129  0.72577  1.0000
  C   C1288     1.0  0.43579  0.78677  0.73079  1.0000
  H   H1557     1.0  0.50611  0.74065  0.72773  1.0000
  H   H1558     1.0  0.64397  0.66177  0.61669  1.0000
  C   C1289     1.0  0.33273  0.84440  0.73476  1.0000
  C   C1290     1.0  0.53475  0.98475  0.68298  1.0000
  C   C1291     1.0  0.50455  0.50258  0.54459  1.0000
  H   H1559     1.0  0.64609  0.90398  0.61739  1.0000
  C   C1292     1.0  0.32210  0.85649  0.69958  1.0000
  Fe  Fe170     1.0  0.55883  0.80256  0.72952  1.0000
  C   C1293     1.0  0.50995  0.49580  0.68476  1.0000
  H   H1560     1.0  0.55930  0.98803  0.63128  1.0000
  H   H1561     1.0  0.34799  0.84026  0.73444  1.0000
  S   S337      1.0  0.43531  0.94318  0.73616  1.0000
  C   C1294     1.0  0.33741  0.86914  0.73561  1.0000
  S   S338      1.0  0.36790  0.89478  0.73609  1.0000
  S   S339      1.0  0.57930  0.50898  0.86520  1.0000
  Fe  Fe171     1.0  0.46010  0.51513  0.75155  1.0000
  S   S340      1.0  0.44522  0.54238  0.75479  1.0000
  H   H1562     1.0  0.64344  0.96549  0.97286  1.0000
  H   H1563     1.0  0.51765  0.49279  0.78166  1.0000
  H   H1564     1.0  0.60668  0.61724  0.94941  1.0000
  S   S341      1.0  0.37278  0.50596  0.74746  1.0000
  S   S342      1.0  0.48532  0.50584  0.76582  1.0000
  Fe  Fe172     1.0  0.45845  0.93634  0.75264  1.0000
  S   S343      1.0  0.47079  0.95106  0.77573  1.0000
  C   C1295     1.0  0.34356  0.88391  0.77059  1.0000
  H   H1565     1.0  0.33933  0.84702  0.77021  1.0000
  S   S344      1.0  0.43031  0.89613  0.75366  1.0000
  H   H1566     1.0  0.36298  0.89240  0.76829  1.0000
  H   H1567     1.0  0.51305  0.81680  0.74757  1.0000
  S   S345      1.0  0.61880  0.82679  0.77103  1.0000
  C   C1296     1.0  0.48599  0.89727  0.77140  1.0000
  C   C1297     1.0  0.49547  0.66333  0.74722  1.0000
  Fe  Fe173     1.0  0.59589  0.80194  0.75194  1.0000
  H   H1568     1.0  0.49996  0.53376  0.85068  1.0000
  Fe  Fe174     1.0  0.41208  0.51479  0.74097  1.0000
  H   H1569     1.0  0.53933  0.50282  0.84555  1.0000
  H   H1570     1.0  0.54225  0.94726  0.77748  1.0000
  S   S346      1.0  0.52358  0.71402  0.74470  1.0000
  H   H1571     1.0  0.56144  0.60790  0.81810  1.0000
  C   C1298     1.0  0.54268  0.89684  0.74513  1.0000
  C   C1299     1.0  0.55130  0.87917  0.76569  1.0000
  H   H1572     1.0  0.49290  0.50652  0.83970  1.0000
  S   S347      1.0  0.55445  0.78519  0.75065  1.0000
  H   H1573     1.0  0.59134  0.60544  0.97133  1.0000
  C   C1300     1.0  0.49069  0.83538  0.74517  1.0000
  C   C1301     1.0  0.48676  0.98081  0.78467  1.0000
  H   H1574     1.0  0.65002  0.78544  0.75002  1.0000
  H   H1575     1.0  0.47350  0.96614  0.80511  1.0000
  H   H1576     1.0  0.55964  0.86869  0.77033  1.0000
  S   S348      1.0  0.59570  0.76814  0.74166  1.0000
  H   H1577     1.0  0.63667  0.79009  0.77425  1.0000
  C   C1302     1.0  0.33182  0.89851  0.77199  1.0000
  C   C1303     1.0  0.52905  0.90504  0.75335  1.0000
  H   H1578     1.0  0.50349  0.54254  0.79723  1.0000
  H   H1579     1.0  0.64444  0.58975  0.88462  1.0000
  H   H1580     1.0  0.53663  0.88297  0.78511  1.0000
  H   H1581     1.0  0.32536  0.49806  0.75656  1.0000
  C   C1304     1.0  0.61466  0.57967  0.95702  1.0000
  C   C1305     1.0  0.65042  0.62540  0.98406  1.0000
  H   H1582     1.0  0.50068  0.74382  0.75255  1.0000
  C   C1306     1.0  0.62365  0.56730  0.90155  1.0000
  C   C1307     1.0  0.62929  0.57220  0.88728  1.0000
  C   C1308     1.0  0.61534  0.55427  0.87637  1.0000
  C   C1309     1.0  0.59549  0.53118  0.87950  1.0000
  C   C1310     1.0  0.58964  0.52642  0.89376  1.0000
  C   C1311     1.0  0.60367  0.54431  0.90467  1.0000
  C   C1312     1.0  0.51578  0.53765  0.81797  1.0000
  H   H1583     1.0  0.62015  0.55823  0.86542  1.0000
  H   H1584     1.0  0.57450  0.50883  0.89640  1.0000
  H   H1585     1.0  0.59904  0.54019  0.91563  1.0000
  S   S349      1.0  0.46026  0.85688  0.74202  1.0000
  H   H1586     1.0  0.50276  0.51814  0.81739  1.0000
  H   H1587     1.0  0.48384  0.90103  0.76015  1.0000
  H   H1588     1.0  0.62798  0.61513  0.93769  1.0000
  H   H1589     1.0  0.56362  0.87687  0.74474  1.0000
  H   H1590     1.0  0.62691  0.50951  0.89461  1.0000
  C   C1313     1.0  0.51458  0.68218  0.73992  1.0000
  H   H1591     1.0  0.53174  0.91502  0.79669  1.0000
  C   C1314     1.0  0.53789  0.88748  0.77407  1.0000
  H   H1592     1.0  0.54806  0.53528  0.86290  1.0000
  C   C1315     1.0  0.53208  0.54860  0.83002  1.0000
  H   H1593     1.0  0.50086  0.77325  0.75191  1.0000
  H   H1594     1.0  0.47790  0.87676  0.77194  1.0000
  H   H1595     1.0  0.56859  0.55623  0.85089  1.0000
  C   C1316     1.0  0.52642  0.90085  0.76812  1.0000
  N   N90       1.0  0.51210  0.91003  0.77660  1.0000
  C   C1317     1.0  0.52204  0.93714  0.77504  1.0000
  H   H1596     1.0  0.61823  0.56851  0.96501  1.0000
  C   C1318     1.0  0.50804  0.82780  0.74077  1.0000
  C   C1319     1.0  0.44322  0.75658  0.74315  1.0000
  C   C1320     1.0  0.53868  0.51429  0.83677  1.0000
  H   H1597     1.0  0.34234  0.91838  0.77090  1.0000
  C   C1321     1.0  0.51257  0.90577  0.79204  1.0000
  C   C1322     1.0  0.64282  0.52000  0.88833  1.0000
  H   H1598     1.0  0.52012  0.91422  0.74797  1.0000
  H   H1599     1.0  0.59515  0.57564  0.95775  1.0000
  H   H1600     1.0  0.50195  0.91328  0.79807  1.0000
  H   H1601     1.0  0.50385  0.88559  0.79405  1.0000
  H   H1602     1.0  0.48229  0.82984  0.75531  1.0000
  H   H1603     1.0  0.47559  0.74717  0.75927  1.0000
  C   C1323     1.0  0.53242  0.57678  0.80645  1.0000
  H   H1604     1.0  0.56188  0.58442  0.83836  1.0000
  H   H1605     1.0  0.52532  0.50120  0.82853  1.0000
  H   H1606     1.0  0.54485  0.56200  0.85863  1.0000
  N   N91       1.0  0.63214  0.60646  0.95936  1.0000
  H   H1607     1.0  0.53255  0.58747  0.79742  1.0000
  H   H1608     1.0  0.51313  0.94511  0.78221  1.0000
  H   H1609     1.0  0.47441  0.90343  0.77757  1.0000
  C   C1324     1.0  0.51603  0.55152  0.80637  1.0000
  H   H1610     1.0  0.48695  0.66843  0.75572  1.0000
  C   C1325     1.0  0.65156  0.84283  0.79415  1.0000
  C   C1326     1.0  0.54868  0.58822  0.81811  1.0000
  H   H1611     1.0  0.55721  0.52305  0.83214  1.0000
  C   C1327     1.0  0.54867  0.57443  0.82975  1.0000
  H   H1612     1.0  0.64731  0.82441  0.74655  1.0000
  C   C1328     1.0  0.62596  0.62049  0.94882  1.0000
  C   C1329     1.0  0.63018  0.61492  0.97396  1.0000
  N   N92       1.0  0.53175  0.53319  0.84196  1.0000
  C   C1330     1.0  0.54906  0.54749  0.85407  1.0000
  C   C1331     1.0  0.50662  0.52031  0.84756  1.0000
  C   C1332     1.0  0.55373  0.88388  0.75127  1.0000
  H   H1613     1.0  0.50603  0.50956  0.85703  1.0000
  C   C1333     1.0  0.60749  0.61307  0.97841  1.0000
  H   H1614     1.0  0.51861  0.94170  0.76414  1.0000
  H   H1615     1.0  0.61626  0.57262  0.94622  1.0000
  C   C1334     1.0  0.33019  0.85833  0.77168  1.0000
  C   C1335     1.0  0.43034  0.77016  0.74164  1.0000
  C   C1336     1.0  0.63985  0.82421  0.78332  1.0000
  H   H1616     1.0  0.41636  0.76819  0.74905  1.0000
  C   C1337     1.0  0.48519  0.98259  0.79954  1.0000
  H   H1617     1.0  0.47269  0.62379  0.74950  1.0000
  H   H1618     1.0  0.43856  0.74416  0.75183  1.0000
  H   H1619     1.0  0.62650  0.49647  0.86955  1.0000
  Fe  Fe175     1.0  0.55442  0.75237  0.73868  1.0000
  C   C1338     1.0  0.48733  0.63790  0.74373  1.0000
  C   C1339     1.0  0.48885  0.75284  0.75061  1.0000
  H   H1620     1.0  0.63586  0.68597  0.98089  1.0000
  H   H1621     1.0  0.55055  0.97824  0.82934  1.0000
  S   S350      1.0  0.64116  0.58875  0.91591  1.0000
  C   C1340     1.0  0.64257  0.51258  0.87418  1.0000
  H   H1622     1.0  0.64716  0.85799  0.79499  1.0000
  C   C1341     1.0  0.48388  0.84977  0.73649  1.0000
  H   H1623     1.0  0.63827  0.64077  0.95046  1.0000
  H   H1624     1.0  0.44607  0.71266  0.74369  1.0000
  H   H1625     1.0  0.53199  0.98293  0.85240  1.0000
  C   C1342     1.0  0.64565  0.80467  0.78240  1.0000
  Fe  Fe176     1.0  0.45180  0.88874  0.73677  1.0000
  H   H1626     1.0  0.47041  0.70815  0.73669  1.0000
  H   H1627     1.0  0.32046  0.89300  0.73662  1.0000
  S   S351      1.0  0.48077  0.92871  0.73629  1.0000
  H   H1628     1.0  0.59383  0.99106  0.97466  1.0000
  N   N93       1.0  0.76623  0.07298  0.14323  1.0000
  H   H1629     1.0  0.77012  0.07339  0.17324  1.0000
  C   C1343     1.0  0.66765  0.12045  0.22990  1.0000
  C   C1344     1.0  0.70236  0.00961  0.99506  1.0000
  Fe  Fe177     1.0  0.83539  0.08866  0.11494  1.0000
  S   S352      1.0  0.83349  0.06859  0.13480  1.0000
  S   S353      1.0  0.80283  0.07662  0.09885  1.0000
  Fe  Fe178     1.0  0.88784  0.13039  0.12290  1.0000
  S   S354      1.0  0.88898  0.11236  0.14340  1.0000
  S   S355      1.0  0.92298  0.16744  0.12060  1.0000
  Fe  Fe179     1.0  0.87235  0.07642  0.13053  1.0000
  S   S356      1.0  0.88014  0.04353  0.13255  1.0000
  Fe  Fe180     1.0  0.85028  0.10619  0.14610  1.0000
  S   S357      1.0  0.83800  0.11000  0.16838  1.0000
  S   S358      1.0  0.87341  0.09444  0.10975  1.0000
  S   S359      1.0  0.84996  0.12622  0.12654  1.0000
  C   C1345     1.0  0.74533  0.05843  0.13291  1.0000
  H   H1630     1.0  0.94675  0.25420  0.99611  1.0000
  S   S360      1.0  0.88866  0.43684  0.21857  1.0000
  C   C1346     1.0  0.75191  0.00342  0.10136  1.0000
  C   C1347     1.0  0.75587  0.09768  0.17891  1.0000
  Fe  Fe181     1.0  0.92935  0.46355  0.22052  1.0000
  H   H1631     1.0  0.89321  0.03281  0.16749  1.0000
  Fe  Fe182     1.0  0.78304  0.17860  0.21901  1.0000
  S   S361      1.0  0.76046  0.19810  0.22444  1.0000
  S   S362      1.0  0.78923  0.17288  0.19553  1.0000
  H   H1632     1.0  0.79119  0.06548  0.15623  1.0000
  C   C1348     1.0  0.91140  0.01247  0.19690  1.0000
  C   C1349     1.0  0.75903  0.08613  0.15410  1.0000
  C   C1350     1.0  0.97296  0.48884  0.17496  1.0000
  H   H1633     1.0  0.74998  0.04748  0.12499  1.0000
  C   C1351     1.0  0.74962  0.10231  0.14990  1.0000
  H   H1634     1.0  0.75903  0.09664  0.19020  1.0000
  S   S363      1.0  0.96598  0.24774  0.07250  1.0000
  C   C1352     1.0  0.76216  0.08435  0.16897  1.0000
  H   H1635     1.0  0.72874  0.04521  0.13845  1.0000
  H   H1636     1.0  0.75936  0.04130  0.15556  1.0000
  H   H1637     1.0  0.71878  0.02222  0.00124  1.0000
  H   H1638     1.0  0.84236  0.38806  0.21721  1.0000
  C   C1353     1.0  0.82483  0.12809  0.17561  1.0000
  C   C1354     1.0  0.81831  0.14285  0.16726  1.0000
  C   C1355     1.0  0.80751  0.15648  0.17354  1.0000
  C   C1356     1.0  0.80328  0.15569  0.18821  1.0000
  C   C1357     1.0  0.81002  0.14111  0.19656  1.0000
  C   C1358     1.0  0.82066  0.12736  0.19027  1.0000
  H   H1639     1.0  0.82148  0.14376  0.15600  1.0000
  H   H1640     1.0  0.80238  0.16773  0.16700  1.0000
  H   H1641     1.0  0.80687  0.14030  0.20784  1.0000
  H   H1642     1.0  0.82564  0.11604  0.19683  1.0000
  C   C1359     1.0  0.94842  0.03989  0.15097  1.0000
  C   C1360     1.0  0.92807  0.01859  0.14520  1.0000
  C   C1361     1.0  0.90749  0.02015  0.13946  1.0000
  C   C1362     1.0  0.90701  0.04296  0.13938  1.0000
  C   C1363     1.0  0.92740  0.06426  0.14512  1.0000
  C   C1364     1.0  0.94798  0.06271  0.15086  1.0000
  H   H1643     1.0  0.96157  0.00281  0.19888  1.0000
  H   H1644     1.0  0.89179  0.00357  0.13505  1.0000
  H   H1645     1.0  0.92725  0.08189  0.14519  1.0000
  H   H1646     1.0  0.96361  0.07929  0.15531  1.0000
  C   C1365     1.0  0.74668  0.11335  0.17442  1.0000
  H   H1647     1.0  0.87587  0.04892  0.18587  1.0000
  H   H1648     1.0  0.83375  0.41210  0.21867  1.0000
  H   H1649     1.0  0.74274  0.12434  0.18220  1.0000
  H   H1650     1.0  0.84846  0.22127  0.19367  1.0000
  C   C1366     1.0  0.95419  0.22622  0.08632  1.0000
  C   C1367     1.0  0.96806  0.22810  0.09872  1.0000
  C   C1368     1.0  0.95816  0.20997  0.10905  1.0000
  C   C1369     1.0  0.93428  0.18975  0.10717  1.0000
  C   C1370     1.0  0.92027  0.18807  0.09489  1.0000
  C   C1371     1.0  0.93018  0.20621  0.08456  1.0000
  C   C1372     1.0  0.97998  0.28368  0.00607  1.0000
  H   H1651     1.0  0.96915  0.21156  0.11853  1.0000
  H   H1652     1.0  0.90187  0.17275  0.09327  1.0000
  H   H1653     1.0  0.94324  0.16874  0.07411  1.0000
  H   H1654     1.0  0.86381  0.32313  0.21519  1.0000
  C   C1373     1.0  0.73695  0.02082  0.08327  1.0000
  C   C1374     1.0  0.75814  0.04396  0.08586  1.0000
  C   C1375     1.0  0.77641  0.04700  0.09616  1.0000
  C   C1376     1.0  0.77310  0.02658  0.10396  1.0000
  C   C1377     1.0  0.79502  0.31304  0.21920  1.0000
  H   H1655     1.0  0.93315  0.41512  0.16080  1.0000
  H   H1656     1.0  0.76041  0.05965  0.07982  1.0000
  H   H1657     1.0  0.78699  0.02853  0.11188  1.0000
  C   C1378     1.0  0.84054  0.48546  0.23606  1.0000
  C   C1379     1.0  0.95046  0.01206  0.19570  1.0000
  Fe  Fe183     1.0  0.98057  0.00555  0.16273  1.0000
  H   H1658     1.0  0.81795  0.34782  0.21085  1.0000
  S   S364      1.0  0.97473  0.03907  0.15851  1.0000
  H   H1659     1.0  0.96011  0.03147  0.20020  1.0000
  H   H1660     1.0  0.94714  0.42432  0.18611  1.0000
  C   C1380     1.0  0.78711  0.09146  0.13544  1.0000
  H   H1661     1.0  0.80305  0.10295  0.14287  1.0000
  H   H1662     1.0  0.79344  0.08235  0.12734  1.0000
  H   H1663     1.0  0.78226  0.10424  0.12962  1.0000
  H   H1664     1.0  0.74012  0.07036  0.12651  1.0000
  H   H1665     1.0  0.74743  0.10522  0.13881  1.0000
  H   H1666     1.0  0.73689  0.12832  0.15654  1.0000
  C   C1381     1.0  0.74355  0.11567  0.15995  1.0000
  H   H1667     1.0  0.78702  0.02160  0.06158  1.0000
  C   C1382     1.0  0.77411  0.05552  0.14931  1.0000
  C   C1383     1.0  0.90117  0.02201  0.20726  1.0000
  H   H1668     1.0  0.92817  0.00094  0.14513  1.0000
  C   C1384     1.0  0.77974  0.29998  0.23000  1.0000
  H   H1669     1.0  0.85744  0.18667  0.19785  1.0000
  H   H1670     1.0  0.81464  0.38458  0.20802  1.0000
  H   H1671     1.0  0.77859  0.04533  0.14083  1.0000
  N   N94       1.0  0.89422  0.19445  0.15368  1.0000
  C   C1385     1.0  0.89670  0.17208  0.15698  1.0000
  C   C1386     1.0  0.87928  0.18879  0.14018  1.0000
  C   C1387     1.0  0.91927  0.21484  0.15140  1.0000
  C   C1388     1.0  0.88252  0.20208  0.16502  1.0000
  C   C1389     1.0  0.87780  0.22249  0.16321  1.0000
  C   C1390     1.0  0.87519  0.18957  0.17797  1.0000
  C   C1391     1.0  0.86577  0.22937  0.17346  1.0000
  C   C1392     1.0  0.86349  0.19686  0.18823  1.0000
  C   C1393     1.0  0.85844  0.21643  0.18589  1.0000
  H   H1672     1.0  0.90550  0.16679  0.14827  1.0000
  H   H1673     1.0  0.90854  0.17520  0.16672  1.0000
  H   H1674     1.0  0.87840  0.15572  0.15835  1.0000
  H   H1675     1.0  0.85990  0.17453  0.14166  1.0000
  H   H1676     1.0  0.88684  0.18168  0.13159  1.0000
  H   H1677     1.0  0.87886  0.20536  0.13595  1.0000
  H   H1678     1.0  0.93099  0.22002  0.16137  1.0000
  H   H1679     1.0  0.92870  0.20939  0.14307  1.0000
  H   H1680     1.0  0.91894  0.23180  0.14773  1.0000
  H   H1681     1.0  0.88305  0.23304  0.15372  1.0000
  H   H1682     1.0  0.87759  0.17363  0.18032  1.0000
  H   H1683     1.0  0.86177  0.24459  0.17171  1.0000
  N   N95       1.0  0.81173  0.37990  0.23067  1.0000
  C   C1394     1.0  0.96020  0.42654  0.17799  1.0000
  C   C1395     1.0  0.85502  0.32060  0.22527  1.0000
  C   C1396     1.0  0.73379  0.00029  0.09092  1.0000
  H   H1684     1.0  0.93699  0.01355  0.22214  1.0000
  H   H1685     1.0  0.96250  0.42154  0.14226  1.0000
  C   C1397     1.0  0.96339  0.27115  0.99441  1.0000
  S   S365      1.0  0.81480  0.20401  0.23369  1.0000
  H   H1686     1.0  0.83581  0.28045  0.22260  1.0000
  C   C1398     1.0  0.88851  0.03500  0.20327  1.0000
  C   C1399     1.0  0.77355  0.99907  0.03674  1.0000
  H   H1687     1.0  0.72304  0.01890  0.07537  1.0000
  C   C1400     1.0  0.85946  0.34165  0.23391  1.0000
  C   C1401     1.0  0.88565  0.03884  0.18897  1.0000
  H   H1688     1.0  0.95107  0.01300  0.18393  1.0000
  H   H1689     1.0  0.77242  0.28001  0.23020  1.0000
  Fe  Fe184     1.0  0.89613  0.41362  0.23412  1.0000
  S   S366      1.0  0.94449  0.47731  0.19853  1.0000
  H   H1690     1.0  0.91923  0.20458  0.07504  1.0000
  C   C1402     1.0  0.96938  0.42526  0.15320  1.0000
  C   C1403     1.0  0.83914  0.29630  0.22946  1.0000
  S   S367      1.0  0.76549  0.14906  0.23506  1.0000
  H   H1691     1.0  0.68230  0.12133  0.22341  1.0000
  H   H1692     1.0  0.88085  0.04218  0.21128  1.0000
  C   C1404     1.0  0.90821  0.01686  0.18246  1.0000
  H   H1693     1.0  0.74642  0.01550  0.05101  1.0000
  C   C1405     1.0  0.80550  0.33891  0.21923  1.0000
  C   C1406     1.0  0.82617  0.39153  0.21804  1.0000
  C   C1407     1.0  0.89546  0.02976  0.17861  1.0000
  C   C1408     1.0  0.96118  0.17211  0.07826  1.0000
  H   H1694     1.0  0.76106  0.99382  0.02709  1.0000
  H   H1695     1.0  0.97598  0.27632  0.01656  1.0000
  C   C1409     1.0  0.92655  0.99542  0.21615  1.0000
  H   H1696     1.0  0.80017  0.40827  0.23143  1.0000
  C   C1410     1.0  0.97257  0.48584  0.18977  1.0000
  H   H1697     1.0  0.94619  0.14109  0.09180  1.0000
  H   H1698     1.0  0.90273  0.01974  0.21850  1.0000
  H   H1699     1.0  0.97990  0.20504  0.06700  1.0000
  S   S368      1.0  0.87910  0.37186  0.22766  1.0000
  H   H1700     1.0  0.65662  0.01955  0.01431  1.0000
  C   C1411     1.0  0.95240  0.42151  0.16371  1.0000
  H   H1701     1.0  0.78313  0.01974  0.03735  1.0000
  C   C1412     1.0  0.79227  0.38768  0.23165  1.0000
  H   H1702     1.0  0.77846  0.37933  0.22262  1.0000
  N   N96       1.0  0.92493  0.99866  0.20063  1.0000
  H   H1703     1.0  0.79951  0.30309  0.21105  1.0000
  H   H1704     1.0  0.91568  0.01043  0.17400  1.0000
  C   C1413     1.0  0.80062  0.35248  0.23010  1.0000
  C   C1414     1.0  0.96283  0.15651  0.08822  1.0000
  H   H1705     1.0  0.66779  0.03589  0.99098  1.0000
  S   S369      1.0  0.93731  0.43922  0.23514  1.0000
  H   H1706     1.0  0.95610  0.48516  0.16919  1.0000
  C   C1415     1.0  0.98241  0.19274  0.07411  1.0000
  C   C1416     1.0  0.77724  0.00103  0.06219  1.0000
  H   H1707     1.0  0.76781  0.99780  0.07242  1.0000
  C   C1417     1.0  0.98496  0.43519  0.18181  1.0000
  C   C1418     1.0  0.73950  0.99507  0.05040  1.0000
  H   H1708     1.0  0.78774  0.99291  0.03506  1.0000
  H   H1709     1.0  0.79134  0.99453  0.06305  1.0000
  H   H1710     1.0  0.80676  0.46793  0.24727  1.0000
  C   C1419     1.0  0.67754  0.01679  0.48559  1.0000
  S   S370      1.0  0.96172  0.03004  0.33222  1.0000
  Fe  Fe185     1.0  0.88476  0.12963  0.36064  1.0000
  S   S371      1.0  0.88044  0.12378  0.33666  1.0000
  S   S372      1.0  0.91913  0.15493  0.37445  1.0000
  Fe  Fe186     1.0  0.83471  0.08405  0.36558  1.0000
  S   S373      1.0  0.82683  0.07480  0.34217  1.0000
  S   S374      1.0  0.81388  0.06261  0.38470  1.0000
  Fe  Fe187     1.0  0.86652  0.08323  0.34068  1.0000
  S   S375      1.0  0.87360  0.05736  0.32570  1.0000
  Fe  Fe188     1.0  0.84109  0.11579  0.33957  1.0000
  S   S376      1.0  0.81616  0.12619  0.32602  1.0000
  S   S377      1.0  0.87340  0.08941  0.36425  1.0000
  S   S378      1.0  0.84643  0.12461  0.36332  1.0000
  Fe  Fe189     1.0  0.93008  0.46052  0.25295  1.0000
  H   H1711     1.0  0.86384  0.02879  0.27943  1.0000
  H   H1712     1.0  0.83704  0.41072  0.24430  1.0000
  S   S379      1.0  0.88948  0.43321  0.25273  1.0000
  Fe  Fe190     1.0  0.79595  0.17597  0.25032  1.0000
  S   S380      1.0  0.77409  0.19464  0.25761  1.0000
  S   S381      1.0  0.82342  0.16949  0.26421  1.0000
  H   H1713     1.0  0.95565  0.03221  0.30214  1.0000
  H   H1714     1.0  0.90472  0.07956  0.29090  1.0000
  H   H1715     1.0  0.69030  0.10730  0.26690  1.0000
  C   C1420     1.0  0.97657  0.48468  0.29997  1.0000
  H   H1716     1.0  0.91728  0.01010  0.31306  1.0000
  H   H1717     1.0  0.87431  0.25185  0.25758  1.0000
  H   H1718     1.0  0.87746  0.13338  0.39055  1.0000
  H   H1719     1.0  0.84399  0.14377  0.39261  1.0000
  C   C1421     1.0  0.83685  0.13019  0.40112  1.0000
  C   C1422     1.0  0.82725  0.29265  0.24235  1.0000
  C   C1423     1.0  0.81919  0.13964  0.30917  1.0000
  C   C1424     1.0  0.84095  0.14859  0.30173  1.0000
  C   C1425     1.0  0.84189  0.15775  0.28803  1.0000
  C   C1426     1.0  0.82122  0.15827  0.28164  1.0000
  C   C1427     1.0  0.79961  0.14969  0.28916  1.0000
  C   C1428     1.0  0.79863  0.14041  0.30283  1.0000
  H   H1720     1.0  0.85704  0.14851  0.30653  1.0000
  H   H1721     1.0  0.85877  0.16450  0.28233  1.0000
  H   H1722     1.0  0.78357  0.14999  0.28442  1.0000
  H   H1723     1.0  0.78171  0.13359  0.30849  1.0000
  C   C1429     1.0  0.85083  0.04284  0.26234  1.0000
  C   C1430     1.0  0.87618  0.15825  0.43138  1.0000
  C   C1431     1.0  0.93604  0.03599  0.33068  1.0000
  C   C1432     1.0  0.91721  0.02426  0.32017  1.0000
  C   C1433     1.0  0.89809  0.03078  0.31891  1.0000
  C   C1434     1.0  0.89723  0.04869  0.32830  1.0000
  C   C1435     1.0  0.91565  0.05990  0.33905  1.0000
  C   C1436     1.0  0.93499  0.05368  0.34015  1.0000
  H   H1724     1.0  0.72559  0.02308  0.36967  1.0000
  H   H1725     1.0  0.88382  0.02181  0.31065  1.0000
  H   H1726     1.0  0.91526  0.07367  0.34636  1.0000
  H   H1727     1.0  0.94931  0.06274  0.34839  1.0000
  Fe  Fe191     1.0  0.74445  0.16978  0.24129  1.0000
  C   C1437     1.0  0.83189  0.31367  0.25106  1.0000
  H   H1728     1.0  0.82700  0.01344  0.37622  1.0000
  C   C1438     1.0  0.95597  0.23734  0.38970  1.0000
  C   C1439     1.0  0.96051  0.22015  0.39694  1.0000
  C   C1440     1.0  0.94874  0.19495  0.39227  1.0000
  C   C1441     1.0  0.93164  0.18644  0.38062  1.0000
  C   C1442     1.0  0.92604  0.20336  0.37386  1.0000
  C   C1443     1.0  0.93830  0.22869  0.37832  1.0000
  H   H1729     1.0  0.85128  0.35374  0.25383  1.0000
  H   H1730     1.0  0.95301  0.18197  0.39768  1.0000
  H   H1731     1.0  0.91293  0.19714  0.36490  1.0000
  H   H1732     1.0  0.92958  0.06194  0.28069  1.0000
  C   C1444     1.0  0.73078  0.01235  0.39059  1.0000
  C   C1445     1.0  0.74827  0.01524  0.40124  1.0000
  C   C1446     1.0  0.77357  0.03082  0.39929  1.0000
  C   C1447     1.0  0.78171  0.04358  0.38666  1.0000
  C   C1448     1.0  0.76423  0.04057  0.37599  1.0000
  C   C1449     1.0  0.73893  0.02510  0.37797  1.0000
  H   H1733     1.0  0.96253  0.06599  0.26908  1.0000
  H   H1734     1.0  0.78693  0.03291  0.40760  1.0000
  H   H1735     1.0  0.77018  0.05024  0.36623  1.0000
  H   H1736     1.0  0.96568  0.18165  0.35364  1.0000
  H   H1737     1.0  0.88543  0.17244  0.39638  1.0000
  H   H1738     1.0  0.82447  0.23755  0.29134  1.0000
  C   C1450     1.0  0.95099  0.10104  0.31612  1.0000
  H   H1739     1.0  0.82566  0.13578  0.40801  1.0000
  N   N97       1.0  0.82439  0.07343  0.29556  1.0000
  C   C1451     1.0  0.84595  0.09323  0.30360  1.0000
  C   C1452     1.0  0.80869  0.08431  0.29038  1.0000
  C   C1453     1.0  0.80961  0.05381  0.30545  1.0000
  C   C1454     1.0  0.83322  0.06304  0.28401  1.0000
  C   C1455     1.0  0.83027  0.06668  0.26937  1.0000
  C   C1456     1.0  0.84597  0.04944  0.28727  1.0000
  C   C1457     1.0  0.67082  0.09418  0.26710  1.0000
  H   H1740     1.0  0.97306  0.22625  0.40612  1.0000
  H   H1741     1.0  0.96944  0.02965  0.28613  1.0000
  H   H1742     1.0  0.84014  0.10164  0.31239  1.0000
  H   H1743     1.0  0.85785  0.08615  0.30858  1.0000
  H   H1744     1.0  0.85759  0.10838  0.29660  1.0000
  H   H1745     1.0  0.81921  0.10100  0.28410  1.0000
  H   H1746     1.0  0.80132  0.09078  0.29937  1.0000
  H   H1747     1.0  0.79247  0.07052  0.28385  1.0000
  H   H1748     1.0  0.80092  0.06060  0.31351  1.0000
  H   H1749     1.0  0.79462  0.03739  0.29959  1.0000
  H   H1750     1.0  0.82096  0.04739  0.31170  1.0000
  H   H1751     1.0  0.82139  0.07730  0.26584  1.0000
  H   H1752     1.0  0.84956  0.04651  0.29817  1.0000
  C   C1458     1.0  0.84792  0.33795  0.24693  1.0000
  H   H1753     1.0  0.67144  0.00501  0.46324  1.0000
  Fe  Fe192     1.0  0.79150  0.22160  0.24029  1.0000
  C   C1459     1.0  0.65729  0.09418  0.27876  1.0000
  C   C1460     1.0  0.67356  0.13491  0.24261  1.0000
  S   S382      1.0  0.94587  0.47170  0.27596  1.0000
  C   C1461     1.0  0.78742  0.99531  0.37521  1.0000
  C   C1462     1.0  0.90211  0.19794  0.41401  1.0000
  H   H1754     1.0  0.86032  0.10225  0.39544  1.0000
  S   S383      1.0  0.97209  0.26975  0.39412  1.0000
  C   C1463     1.0  0.86344  0.27518  0.27957  1.0000
  H   H1755     1.0  0.86433  0.23884  0.29635  1.0000
  C   C1464     1.0  0.88666  0.17437  0.40787  1.0000
  H   H1756     1.0  0.87642  0.31620  0.30821  1.0000
  H   H1757     1.0  0.86076  0.21817  0.28184  1.0000
  H   H1758     1.0  0.84828  0.22196  0.25904  1.0000
  H   H1759     1.0  0.93439  0.24177  0.37275  1.0000
  H   H1760     1.0  0.83336  0.09070  0.41417  1.0000
  H   H1761     1.0  0.85731  0.03491  0.25407  1.0000
  C   C1465     1.0  0.84525  0.10903  0.41977  1.0000
  C   C1466     1.0  0.85501  0.24220  0.26108  1.0000
  H   H1762     1.0  0.84387  0.38521  0.24286  1.0000
  H   H1763     1.0  0.86671  0.14383  0.43872  1.0000
  H   H1764     1.0  0.81885  0.21481  0.27741  1.0000
  N   N98       1.0  0.85343  0.24823  0.27629  1.0000
  C   C1467     1.0  0.67068  0.99918  0.47404  1.0000
  Fe  Fe193     1.0  0.88420  0.45798  0.23722  1.0000
  C   C1468     1.0  0.87324  0.15374  0.41636  1.0000
  H   H1765     1.0  0.86900  0.28790  0.25764  1.0000
  C   C1469     1.0  0.88241  0.32663  0.28649  1.0000
  H   H1766     1.0  0.88721  0.24852  0.28305  1.0000
  C   C1470     1.0  0.88024  0.31830  0.27235  1.0000
  C   C1471     1.0  0.87076  0.29299  0.26885  1.0000
  H   H1767     1.0  0.66956  0.07907  0.24609  1.0000
  S   S384      1.0  0.70471  0.15391  0.24923  1.0000
  H   H1768     1.0  0.68361  0.03607  0.48350  1.0000
  H   H1769     1.0  0.81619  0.24224  0.27374  1.0000
  H   H1770     1.0  0.84332  0.24719  0.25408  1.0000
  H   H1771     1.0  0.83301  0.11261  0.42694  1.0000
  C   C1472     1.0  0.77478  0.31270  0.24087  1.0000
  C   C1473     1.0  0.93638  0.07320  0.29043  1.0000
  C   C1474     1.0  0.82713  0.23517  0.27988  1.0000
  H   H1772     1.0  0.82293  0.31115  0.26108  1.0000
  C   C1475     1.0  0.86550  0.28429  0.29385  1.0000
  H   H1773     1.0  0.85955  0.27183  0.30252  1.0000
  C   C1476     1.0  0.87497  0.30965  0.29722  1.0000
  H   H1774     1.0  0.78236  0.38237  0.24171  1.0000
  S   S385      1.0  0.80611  0.26252  0.24802  1.0000
  H   H1775     1.0  0.95604  0.11102  0.32638  1.0000
  H   H1776     1.0  0.78106  0.34759  0.24981  1.0000
  C   C1477     1.0  0.89177  0.18194  0.43740  1.0000
  H   H1777     1.0  0.88809  0.12298  0.40543  1.0000
  C   C1478     1.0  0.98116  0.19475  0.36036  1.0000
  H   H1778     1.0  0.91685  0.22003  0.43343  1.0000
  H   H1779     1.0  0.88561  0.33151  0.26397  1.0000
  C   C1479     1.0  0.92201  0.08320  0.29615  1.0000
  H   H1780     1.0  0.74231  0.00576  0.41106  1.0000
  C   C1480     1.0  0.92938  0.09720  0.30894  1.0000
  N   N99       1.0  0.85692  0.12901  0.40954  1.0000
  H   H1781     1.0  0.89385  0.18504  0.44887  1.0000
  H   H1782     1.0  0.91225  0.21338  0.40729  1.0000
  H   H1783     1.0  0.85935  0.10681  0.42629  1.0000
  C   C1481     1.0  0.82861  0.39012  0.24339  1.0000
  C   C1482     1.0  0.90473  0.20171  0.42873  1.0000
  C   C1483     1.0  0.87130  0.12161  0.39987  1.0000
  C   C1484     1.0  0.86708  0.23814  0.28477  1.0000
  C   C1485     1.0  0.83890  0.05658  0.25875  1.0000
  C   C1486     1.0  0.96542  0.09098  0.31056  1.0000
  H   H1784     1.0  0.82417  0.11191  0.39575  1.0000
  C   C1487     1.0  0.85446  0.03938  0.27659  1.0000
  C   C1488     1.0  0.97925  0.07352  0.27625  1.0000
  H   H1785     1.0  0.88966  0.34627  0.28910  1.0000
  H   H1786     1.0  0.95970  0.47758  0.30568  1.0000
  H   H1787     1.0  0.94118  0.03121  0.28525  1.0000
  C   C1489     1.0  0.97529  0.48344  0.28497  1.0000
  C   C1490     1.0  0.78501  0.33855  0.24096  1.0000
  C   C1491     1.0  0.95871  0.07700  0.29737  1.0000
  H   H1788     1.0  0.81916  0.38311  0.25345  1.0000
  H   H1789     1.0  0.91779  0.10421  0.31362  1.0000
  Fe  Fe194     1.0  0.97271  0.00461  0.31934  1.0000
  H   H1790     1.0  0.65828  0.14429  0.26074  1.0000
  H   H1791     1.0  0.76340  0.30244  0.24944  1.0000
  C   C1492     1.0  0.95927  0.03864  0.29111  1.0000
  H   H1792     1.0  0.97309  0.22486  0.35714  1.0000
  H   H1793     1.0  0.66640  0.99668  0.36749  1.0000
  C   C1493     1.0  0.81030  0.99891  0.38036  1.0000
  H   H1794     1.0  0.78657  0.00723  0.36714  1.0000
  C   C1494     1.0  0.65907  0.07819  0.25537  1.0000
  N   N100      1.0  0.97350  0.06603  0.29114  1.0000
  C   C1495     1.0  0.81824  0.48348  0.24102  1.0000
  S   S386      1.0  0.84915  0.46213  0.24036  1.0000
  S   S387      1.0  0.92435  0.48644  0.23839  1.0000
  H   H1795     1.0  0.66648  0.10718  0.28769  1.0000
  S   S388      1.0  0.69860  0.99317  0.39244  1.0000
  H   H1796     1.0  0.83628  0.05945  0.24765  1.0000
  C   C1496     1.0  0.65404  0.13328  0.25088  1.0000
  H   H1797     1.0  0.98131  0.09380  0.31703  1.0000
  Fe  Fe195     1.0  0.73834  0.06533  0.55912  1.0000
  S   S389      1.0  0.70895  0.07164  0.54851  1.0000
  S   S390      1.0  0.77867  0.09483  0.56408  1.0000
  Fe  Fe196     1.0  0.70127  0.01131  0.56513  1.0000
  S   S391      1.0  0.66923  0.01459  0.55488  1.0000
  Fe  Fe197     1.0  0.69531  0.03383  0.53751  1.0000
  S   S392      1.0  0.68361  0.03249  0.51394  1.0000
  Fe  Fe198     1.0  0.68477  0.05188  0.56655  1.0000
  H   H1798     1.0  0.74216  0.99596  0.58506  1.0000
  S   S393      1.0  0.72653  0.02861  0.54702  1.0000
  S   S394      1.0  0.71501  0.04742  0.57788  1.0000
  Fe  Fe199     1.0  0.89090  0.23505  0.55196  1.0000
  S   S395      1.0  0.90978  0.25390  0.57297  1.0000
  S   S396      1.0  0.84939  0.20796  0.54888  1.0000
  Fe  Fe200     1.0  0.93846  0.26412  0.53521  1.0000
  S   S397      1.0  0.96034  0.28465  0.55523  1.0000
  S   S398      1.0  0.95524  0.26220  0.51373  1.0000
  Fe  Fe201     1.0  0.94165  0.24827  0.56577  1.0000
  C   C1497     1.0  0.65406  0.43791  0.61655  1.0000
  Fe  Fe202     1.0  0.92719  0.28933  0.56120  1.0000
  S   S399      1.0  0.93747  0.32812  0.57117  1.0000
  S   S400      1.0  0.92153  0.22707  0.54560  1.0000
  S   S401      1.0  0.90648  0.27113  0.54038  1.0000
  Fe  Fe203     1.0  0.89334  0.46605  0.60964  1.0000
  S   S402      1.0  0.89166  0.47478  0.63286  1.0000
  Fe  Fe204     1.0  0.88733  0.41372  0.61557  1.0000
  S   S403      1.0  0.88558  0.41928  0.63932  1.0000
  S   S404      1.0  0.87946  0.37608  0.60508  1.0000
  Fe  Fe205     1.0  0.86034  0.43544  0.63351  1.0000
  S   S405      1.0  0.82690  0.42950  0.64648  1.0000
  Fe  Fe206     1.0  0.91677  0.45799  0.63706  1.0000
  H   H1799     1.0  0.87562  0.44931  0.56681  1.0000
  S   S406      1.0  0.86039  0.42795  0.60995  1.0000
  S   S407      1.0  0.92010  0.45111  0.61369  1.0000
  H   H1800     1.0  0.75520  0.31667  0.66444  1.0000
  H   H1801     1.0  0.97357  0.19747  0.52643  1.0000
  S   S408      1.0  0.90208  0.49120  0.59050  1.0000
  H   H1802     1.0  0.94731  0.29838  0.59164  1.0000
  Fe  Fe207     1.0  0.68141  0.33426  0.65871  1.0000
  S   S409      1.0  0.71439  0.34375  0.64457  1.0000
  S   S410      1.0  0.67997  0.35868  0.67648  1.0000
  C   C1498     1.0  0.65314  0.40253  0.62793  1.0000
  H   H1803     1.0  0.69799  0.41185  0.65042  1.0000
  C   C1499     1.0  0.98257  0.43811  0.66204  1.0000
  H   H1804     1.0  0.90233  0.41392  0.58425  1.0000
  H   H1805     1.0  0.79199  0.33437  0.65078  1.0000
  C   C1500     1.0  0.79547  0.40591  0.64532  1.0000
  C   C1501     1.0  0.78692  0.38549  0.63565  1.0000
  C   C1502     1.0  0.76212  0.36676  0.63560  1.0000
  C   C1503     1.0  0.74548  0.36810  0.64519  1.0000
  C   C1504     1.0  0.75389  0.38880  0.65464  1.0000
  C   C1505     1.0  0.77871  0.40747  0.65473  1.0000
  H   H1806     1.0  0.79951  0.38394  0.62834  1.0000
  H   H1807     1.0  0.75585  0.35098  0.62816  1.0000
  H   H1808     1.0  0.74135  0.39055  0.66188  1.0000
  H   H1809     1.0  0.78506  0.42321  0.66221  1.0000
  Fe  Fe208     1.0  0.66285  0.32423  0.68910  1.0000
  H   H1810     1.0  0.65198  0.07327  0.54356  1.0000
  H   H1811     1.0  0.69925  0.38304  0.64876  1.0000
  C   C1506     1.0  0.92116  0.34070  0.58113  1.0000
  C   C1507     1.0  0.93364  0.36581  0.58595  1.0000
  C   C1508     1.0  0.92148  0.37683  0.59361  1.0000
  C   C1509     1.0  0.89654  0.36286  0.59654  1.0000
  C   C1510     1.0  0.88411  0.33773  0.59175  1.0000
  C   C1511     1.0  0.89629  0.32670  0.58415  1.0000
  H   H1812     1.0  0.95283  0.37692  0.58363  1.0000
  H   H1813     1.0  0.93134  0.39618  0.59709  1.0000
  H   H1814     1.0  0.86479  0.32672  0.59384  1.0000
  H   H1815     1.0  0.88634  0.30742  0.58050  1.0000
  H   H1816     1.0  0.98182  0.32588  0.57936  1.0000
  S   S411      1.0  0.67744  0.32002  0.71082  1.0000
  N   N101      1.0  0.88289  0.41792  0.56591  1.0000
  C   C1512     1.0  0.69052  0.43226  0.61733  1.0000
  H   H1817     1.0  0.67029  0.38297  0.64866  1.0000
  H   H1818     1.0  0.92027  0.44015  0.57389  1.0000
  C   C1513     1.0  0.79847  0.12563  0.55866  1.0000
  C   C1514     1.0  0.82335  0.13760  0.56356  1.0000
  C   C1515     1.0  0.83944  0.16241  0.56029  1.0000
  C   C1516     1.0  0.83077  0.17580  0.55220  1.0000
  C   C1517     1.0  0.80600  0.16370  0.54710  1.0000
  C   C1518     1.0  0.79006  0.13876  0.55014  1.0000
  H   H1819     1.0  0.83020  0.12769  0.57008  1.0000
  H   H1820     1.0  0.85837  0.17133  0.56431  1.0000
  H   H1821     1.0  0.79909  0.17374  0.54076  1.0000
  H   H1822     1.0  0.77127  0.12981  0.54591  1.0000
  C   C1519     1.0  0.71610  0.40533  0.62532  1.0000
  H   H1823     1.0  0.70951  0.43956  0.61453  1.0000
  H   H1824     1.0  0.73445  0.29967  0.68561  1.0000
  C   C1520     1.0  0.95474  0.48433  0.69220  1.0000
  C   C1521     1.0  0.94663  0.47880  0.67776  1.0000
  H   H1825     1.0  0.85892  0.38798  0.57902  1.0000
  H   H1826     1.0  0.86763  0.43221  0.55003  1.0000
  N   N102      1.0  0.74404  0.13304  0.58557  1.0000
  C   C1522     1.0  0.73445  0.12505  0.57072  1.0000
  C   C1523     1.0  0.74066  0.11059  0.59300  1.0000
  C   C1524     1.0  0.72874  0.14266  0.59265  1.0000
  C   C1525     1.0  0.77004  0.15270  0.58556  1.0000
  C   C1526     1.0  0.78995  0.14970  0.59141  1.0000
  C   C1527     1.0  0.77614  0.17557  0.57918  1.0000
  C   C1528     1.0  0.81430  0.16854  0.59095  1.0000
  C   C1529     1.0  0.80058  0.19412  0.57861  1.0000
  C   C1530     1.0  0.81961  0.19063  0.58451  1.0000
  H   H1827     1.0  0.74509  0.11704  0.56523  1.0000
  H   H1828     1.0  0.71478  0.11060  0.57029  1.0000
  H   H1829     1.0  0.73558  0.14051  0.56434  1.0000
  H   H1830     1.0  0.75062  0.10155  0.58772  1.0000
  H   H1831     1.0  0.72089  0.09625  0.59286  1.0000
  H   H1832     1.0  0.74720  0.11508  0.60434  1.0000
  H   H1833     1.0  0.73606  0.14994  0.60366  1.0000
  H   H1834     1.0  0.72795  0.15782  0.58681  1.0000
  H   H1835     1.0  0.70924  0.12789  0.59332  1.0000
  H   H1836     1.0  0.78738  0.13267  0.59596  1.0000
  H   H1837     1.0  0.76214  0.17900  0.57418  1.0000
  H   H1838     1.0  0.82928  0.16554  0.59500  1.0000
  H   H1839     1.0  0.80500  0.21098  0.57312  1.0000
  H   H1840     1.0  0.83859  0.20466  0.58352  1.0000
  S   S412      1.0  0.98137  0.00145  0.65115  1.0000
  H   H1841     1.0  0.98072  0.24511  0.55333  1.0000
  C   C1531     1.0  0.76731  0.34815  0.67999  1.0000
  H   H1842     1.0  0.74502  0.37407  0.68960  1.0000
  C   C1532     1.0  0.89028  0.38142  0.56073  1.0000
  H   H1843     1.0  0.76197  0.32893  0.70568  1.0000
  H   H1844     1.0  0.72428  0.39336  0.62878  1.0000
  H   H1845     1.0  0.67597  0.37027  0.61070  1.0000
  C   C1533     1.0  0.67634  0.36967  0.62251  1.0000
  C   C1534     1.0  0.96956  0.28147  0.49916  1.0000
  S   S413      1.0  0.66664  0.30021  0.67176  1.0000
  H   H1846     1.0  0.89957  0.45281  0.55548  1.0000
  H   H1847     1.0  0.68487  0.35780  0.62552  1.0000
  H   H1848     1.0  0.85179  0.41281  0.57831  1.0000
  C   C1535     1.0  0.67806  0.41004  0.62479  1.0000
  H   H1849     1.0  0.94129  0.47840  0.70036  1.0000
  H   H1850     1.0  0.84437  0.39160  0.56313  1.0000
  C   C1536     1.0  0.90456  0.39595  0.53321  1.0000
  H   H1851     1.0  0.95192  0.47197  0.73368  1.0000
  C   C1537     1.0  0.80827  0.38195  0.67510  1.0000
  C   C1538     1.0  0.88134  0.43887  0.55915  1.0000
  H   H1852     1.0  0.71619  0.34813  0.69304  1.0000
  C   C1539     1.0  0.90479  0.37478  0.53818  1.0000
  H   H1853     1.0  0.89780  0.42633  0.53751  1.0000
  H   H1854     1.0  0.71932  0.31085  0.67323  1.0000
  C   C1540     1.0  0.97479  0.30636  0.49895  1.0000
  H   H1855     1.0  0.91019  0.40151  0.52250  1.0000
  H   H1856     1.0  0.89733  0.44046  0.58522  1.0000
  H   H1857     1.0  0.89806  0.35117  0.55582  1.0000
  C   C1541     1.0  0.68936  0.39316  0.64492  1.0000
  H   H1858     1.0  0.97089  0.33869  0.60277  1.0000
  S   S414      1.0  0.97135  0.00751  0.68476  1.0000
  N   N103      1.0  0.74493  0.33857  0.68848  1.0000
  H   H1859     1.0  0.71795  0.40653  0.61360  1.0000
  H   H1860     1.0  0.78649  0.38388  0.69178  1.0000
  H   H1861     1.0  0.73479  0.33116  0.71033  1.0000
  C   C1542     1.0  0.75154  0.33940  0.70383  1.0000
  C   C1543     1.0  0.90151  0.42853  0.57782  1.0000
  H   H1862     1.0  0.88507  0.37513  0.57131  1.0000
  C   C1544     1.0  0.66797  0.32660  0.72736  1.0000
  C   C1545     1.0  0.78727  0.37216  0.68322  1.0000
  H   H1863     1.0  0.86970  0.99312  0.61530  1.0000
  H   H1864     1.0  0.95009  0.28506  0.60773  1.0000
  H   H1865     1.0  0.92714  0.46867  0.67493  1.0000
  S   S415      1.0  0.95472  0.47929  0.64866  1.0000
  H   H1866     1.0  0.71012  0.30586  0.69116  1.0000
  H   H1867     1.0  0.82289  0.40070  0.67736  1.0000
  H   H1868     1.0  0.82601  0.37625  0.65701  1.0000
  C   C1546     1.0  0.89731  0.41006  0.54199  1.0000
  H   H1869     1.0  0.76285  0.35863  0.70829  1.0000
  H   H1870     1.0  0.98002  0.20876  0.59890  1.0000
  C   C1547     1.0  0.85847  0.40187  0.57178  1.0000
  H   H1871     1.0  0.91057  0.36397  0.53141  1.0000
  C   C1548     1.0  0.81006  0.36820  0.66357  1.0000
  H   H1872     1.0  0.95868  0.27633  0.59109  1.0000
  H   H1873     1.0  0.97399  0.26608  0.61120  1.0000
  C   C1549     1.0  0.65336  0.33848  0.72820  1.0000
  C   C1550     1.0  0.89767  0.36755  0.55192  1.0000
  C   C1551     1.0  0.76966  0.33468  0.66806  1.0000
  C   C1552     1.0  0.88989  0.40312  0.55608  1.0000
  C   C1553     1.0  0.72653  0.31258  0.68441  1.0000
  H   H1874     1.0  0.72661  0.35326  0.67522  1.0000
  C   C1554     1.0  0.67660  0.00971  0.49978  1.0000
  H   H1875     1.0  0.97664  0.32693  0.61898  1.0000
  C   C1555     1.0  0.73275  0.35425  0.68652  1.0000
  H   H1876     1.0  0.97931  0.44443  0.69749  1.0000
  C   C1556     1.0  0.79081  0.34464  0.66006  1.0000
  S   S416      1.0  0.66619  0.07268  0.57755  1.0000
  S   S417      1.0  0.95914  0.23176  0.58092  1.0000
  H   H1877     1.0  0.96149  0.21881  0.52355  1.0000
  N   N104      1.0  0.68995  0.39500  0.62924  1.0000
  C   C1557     1.0  0.95915  0.29210  0.59754  1.0000
  H   H1878     1.0  0.68834  0.46284  0.60768  1.0000
  H   H1879     1.0  0.95898  0.20598  0.54035  1.0000
  H   H1880     1.0  0.97979  0.20499  0.55917  1.0000
  H   H1881     1.0  0.97105  0.43446  0.65245  1.0000
  H   H1882     1.0  0.96988  0.31455  0.50783  1.0000
  H   H1883     1.0  0.65691  0.35980  0.62574  1.0000
  H   H1884     1.0  0.72773  0.42398  0.63055  1.0000
  C   C1558     1.0  0.96375  0.48625  0.66706  1.0000
  C   C1559     1.0  0.67857  0.44591  0.61331  1.0000
  C   C1560     1.0  0.97292  0.43808  0.67527  1.0000
  C   C1561     1.0  0.97621  0.27131  0.48743  1.0000
  H   H1885     1.0  0.95391  0.43438  0.67586  1.0000
  H   H1886     1.0  0.66053  0.05242  0.53489  1.0000
  C   C1562     1.0  0.97158  0.21314  0.53139  1.0000
  H   H1887     1.0  0.98239  0.26067  0.53726  1.0000
  H   H1888     1.0  0.91052  0.99983  0.62247  1.0000
  C   C1563     1.0  0.98354  0.33282  0.60818  1.0000
  H   H1889     1.0  0.70868  0.99264  0.62049  1.0000
  H   H1890     1.0  0.97229  0.25211  0.48739  1.0000
  N   N105      1.0  0.98477  0.31242  0.59993  1.0000
  Fe  Fe209     1.0  0.69272  0.05213  0.90858  1.0000
  S   S418      1.0  0.73303  0.06551  0.90432  1.0000
  H   H1891     1.0  0.70163  0.39592  0.87838  1.0000
  Fe  Fe210     1.0  0.69755  0.03057  0.93736  1.0000
  S   S419      1.0  0.73798  0.04342  0.93495  1.0000
  H   H1892     1.0  0.91514  0.18699  0.94761  1.0000
  Fe  Fe211     1.0  0.74067  0.07923  0.92717  1.0000
  S   S420      1.0  0.77031  0.11823  0.93513  1.0000
  Fe  Fe212     1.0  0.72746  0.02881  0.91218  1.0000
  S   S421      1.0  0.70054  0.06753  0.93127  1.0000
  S   S422      1.0  0.68690  0.01433  0.91474  1.0000
  Fe  Fe213     1.0  0.90786  0.23336  0.91762  1.0000
  S   S423      1.0  0.91143  0.26655  0.93073  1.0000
  S   S424      1.0  0.87340  0.19680  0.91051  1.0000
  Fe  Fe214     1.0  0.96431  0.25707  0.91369  1.0000
  S   S425      1.0  0.97143  0.29158  0.92671  1.0000
  C   C1564     1.0  0.74232  0.37515  0.86518  1.0000
  Fe  Fe215     1.0  0.94431  0.26631  0.94204  1.0000
  S   S426      1.0  0.94592  0.26387  0.96645  1.0000
  Fe  Fe216     1.0  0.93831  0.28972  0.91441  1.0000
  S   S427      1.0  0.94299  0.32650  0.90544  1.0000
  S   S428      1.0  0.93893  0.23187  0.92973  1.0000
  S   S429      1.0  0.93289  0.25653  0.90057  1.0000
  Fe  Fe217     1.0  0.68329  0.33162  0.81758  1.0000
  S   S430      1.0  0.67315  0.36030  0.80997  1.0000
  S   S431      1.0  0.72032  0.33721  0.82704  1.0000
  H   H1893     1.0  0.98301  0.40434  0.83015  1.0000
  S   S432      1.0  0.66316  0.30466  0.79904  1.0000
  H   H1894     1.0  0.86981  0.20916  0.95516  1.0000
  C   C1565     1.0  0.78444  0.40822  0.86666  1.0000
  Fe  Fe218     1.0  0.86389  0.43490  0.84579  1.0000
  S   S433      1.0  0.87363  0.43704  0.86925  1.0000
  S   S434      1.0  0.82731  0.43113  0.83668  1.0000
  Fe  Fe219     1.0  0.91657  0.44687  0.83721  1.0000
  S   S435      1.0  0.92953  0.44976  0.86012  1.0000
  S   S436      1.0  0.93874  0.44494  0.81829  1.0000
  Fe  Fe220     1.0  0.89382  0.41527  0.86329  1.0000
  S   S437      1.0  0.88696  0.37825  0.87298  1.0000
  H   H1895     1.0  0.80945  0.01549  0.86125  1.0000
  S   S438      1.0  0.88166  0.41128  0.84013  1.0000
  S   S439      1.0  0.89795  0.47046  0.84110  1.0000
  C   C1566     1.0  0.67158  0.13132  0.89306  1.0000
  C   C1567     1.0  0.96173  0.46859  0.80832  1.0000
  C   C1568     1.0  0.75131  0.41700  0.85975  1.0000
  H   H1896     1.0  0.74617  0.02382  0.87018  1.0000
  C   C1569     1.0  0.75035  0.36330  0.82864  1.0000
  C   C1570     1.0  0.75533  0.38675  0.82409  1.0000
  C   C1571     1.0  0.77906  0.40713  0.82645  1.0000
  C   C1572     1.0  0.79827  0.40434  0.83313  1.0000
  C   C1573     1.0  0.79352  0.38074  0.83727  1.0000
  C   C1574     1.0  0.76968  0.36042  0.83510  1.0000
  H   H1897     1.0  0.74097  0.38927  0.81878  1.0000
  H   H1898     1.0  0.78257  0.42525  0.82311  1.0000
  H   H1899     1.0  0.80806  0.37825  0.84241  1.0000
  H   H1900     1.0  0.76614  0.34238  0.83859  1.0000
  H   H1901     1.0  0.81063  0.10238  0.94979  1.0000
  H   H1902     1.0  0.96397  0.44214  0.79357  1.0000
  C   C1575     1.0  0.95272  0.37314  0.84990  1.0000
  H   H1903     1.0  0.92312  0.45542  0.74198  1.0000
  C   C1576     1.0  0.96808  0.28038  0.98063  1.0000
  C   C1577     1.0  0.92687  0.34067  0.89673  1.0000
  C   C1578     1.0  0.93963  0.36613  0.89396  1.0000
  C   C1579     1.0  0.92787  0.37801  0.88678  1.0000
  C   C1580     1.0  0.90305  0.36458  0.88224  1.0000
  C   C1581     1.0  0.89030  0.33912  0.88500  1.0000
  C   C1582     1.0  0.90208  0.32727  0.89216  1.0000
  H   H1904     1.0  0.95882  0.37676  0.89738  1.0000
  H   H1905     1.0  0.93799  0.39758  0.88489  1.0000
  H   H1906     1.0  0.87114  0.32849  0.88153  1.0000
  H   H1907     1.0  0.89217  0.30775  0.89402  1.0000
  H   H1908     1.0  0.68677  0.31063  0.73945  1.0000
  H   H1909     1.0  0.91618  0.17681  0.96522  1.0000
  C   C1583     1.0  0.82967  0.13146  0.96589  1.0000
  C   C1584     1.0  0.79877  0.13982  0.92795  1.0000
  C   C1585     1.0  0.80826  0.13411  0.91584  1.0000
  C   C1586     1.0  0.83107  0.15174  0.91072  1.0000
  C   C1587     1.0  0.84468  0.17538  0.91754  1.0000
  C   C1588     1.0  0.83487  0.18130  0.92943  1.0000
  C   C1589     1.0  0.81228  0.16355  0.93468  1.0000
  H   H1910     1.0  0.79814  0.11603  0.91048  1.0000
  H   H1911     1.0  0.83826  0.14697  0.90143  1.0000
  H   H1912     1.0  0.84442  0.19965  0.93443  1.0000
  H   H1913     1.0  0.80504  0.16831  0.94396  1.0000
  C   C1590     1.0  0.91276  0.45671  0.78516  1.0000
  H   H1914     1.0  0.74610  0.43065  0.85630  1.0000
  C   C1591     1.0  0.77946  0.02193  0.86594  1.0000
  H   H1915     1.0  0.88677  0.20345  0.94154  1.0000
  H   H1916     1.0  0.95610  0.42927  0.84373  1.0000
  C   C1592     1.0  0.96078  0.33980  0.86695  1.0000
  H   H1917     1.0  0.67096  0.35167  0.85732  1.0000
  S   S440      1.0  0.95183  0.99607  0.81021  1.0000
  N   N106      1.0  0.70702  0.38378  0.85771  1.0000
  C   C1593     1.0  0.91587  0.47665  0.79403  1.0000
  H   H1918     1.0  0.77395  0.37031  0.87076  1.0000
  H   H1919     1.0  0.68970  0.13613  0.88922  1.0000
  C   C1594     1.0  0.65666  0.13981  0.88630  1.0000
  C   C1595     1.0  0.70001  0.01406  0.98057  1.0000
  C   C1596     1.0  0.84532  0.13043  0.94278  1.0000
  S   S441      1.0  0.74699  0.00759  0.90355  1.0000
  C   C1597     1.0  0.95860  0.41514  0.84978  1.0000
  H   H1920     1.0  0.71447  0.40814  0.84013  1.0000
  C   C1598     1.0  0.76744  0.38341  0.86804  1.0000
  H   H1921     1.0  0.81517  0.12312  0.97338  1.0000
  C   C1599     1.0  0.77640  0.42497  0.86248  1.0000
  C   C1600     1.0  0.88721  0.20855  0.95302  1.0000
  H   H1922     1.0  0.93012  0.20932  0.96169  1.0000
  C   C1601     1.0  0.67545  0.31982  0.74000  1.0000
  H   H1923     1.0  0.80401  0.41431  0.86822  1.0000
  H   H1924     1.0  0.69530  0.34509  0.85261  1.0000
  H   H1925     1.0  0.94881  0.41257  0.85991  1.0000
  N   N107      1.0  0.94817  0.49020  0.75279  1.0000
  H   H1926     1.0  0.73039  0.35550  0.86589  1.0000
  C   C1602     1.0  0.69844  0.39806  0.86693  1.0000
  H   H1927     1.0  0.91453  0.36559  0.83082  1.0000
  C   C1603     1.0  0.93281  0.35062  0.85416  1.0000
  N   N108      1.0  0.84094  0.24780  0.90140  1.0000
  C   C1604     1.0  0.84249  0.26759  0.91157  1.0000
  C   C1605     1.0  0.86460  0.24698  0.90277  1.0000
  C   C1606     1.0  0.83822  0.25512  0.88683  1.0000
  C   C1607     1.0  0.82026  0.22295  0.90387  1.0000
  C   C1608     1.0  0.81662  0.20206  0.89515  1.0000
  C   C1609     1.0  0.80341  0.21860  0.91490  1.0000
  C   C1610     1.0  0.79738  0.17839  0.89731  1.0000
  C   C1611     1.0  0.78429  0.19478  0.91699  1.0000
  C   C1612     1.0  0.78128  0.17474  0.90822  1.0000
  H   H1928     1.0  0.84549  0.26367  0.92273  1.0000
  H   H1929     1.0  0.85828  0.28600  0.90948  1.0000
  H   H1930     1.0  0.82562  0.26993  0.91081  1.0000
  H   H1931     1.0  0.86631  0.23979  0.91323  1.0000
  H   H1932     1.0  0.88085  0.26560  0.90191  1.0000
  H   H1933     1.0  0.86637  0.23465  0.89448  1.0000
  H   H1934     1.0  0.85297  0.27410  0.88474  1.0000
  H   H1935     1.0  0.83934  0.24249  0.87849  1.0000
  H   H1936     1.0  0.82016  0.25495  0.88520  1.0000
  H   H1937     1.0  0.82903  0.20374  0.88681  1.0000
  H   H1938     1.0  0.80476  0.23316  0.92220  1.0000
  H   H1939     1.0  0.79544  0.16258  0.89081  1.0000
  H   H1940     1.0  0.77200  0.19163  0.92567  1.0000
  H   H1941     1.0  0.76693  0.15618  0.91017  1.0000
  H   H1942     1.0  0.91171  0.38104  0.84686  1.0000
  C   C1613     1.0  0.96691  0.10248  0.83365  1.0000
  H   H1943     1.0  0.92026  0.44439  0.76560  1.0000
  H   H1944     1.0  0.66405  0.15139  0.87735  1.0000
  H   H1945     1.0  0.92154  0.31745  0.86588  1.0000
  C   C1614     1.0  0.93689  0.48513  0.76687  1.0000
  S   S442      1.0  0.67215  0.06118  0.89075  1.0000
  H   H1946     1.0  0.67442  0.31969  0.76298  1.0000
  C   C1615     1.0  0.69069  0.35701  0.85982  1.0000
  H   H1947     1.0  0.67835  0.39174  0.86503  1.0000
  Fe  Fe221     1.0  0.90857  0.47139  0.86427  1.0000
  N   N109      1.0  0.89035  0.19097  0.96228  1.0000
  H   H1948     1.0  0.68399  0.38285  0.83987  1.0000
  C   C1616     1.0  0.93697  0.33420  0.86243  1.0000
  S   S443      1.0  0.95962  0.99347  0.77061  1.0000
  H   H1949     1.0  0.89452  0.18774  0.98482  1.0000
  C   C1617     1.0  0.97087  0.46160  0.79638  1.0000
  H   H1950     1.0  0.87869  0.16158  0.93766  1.0000
  H   H1951     1.0  0.84292  0.12149  0.93232  1.0000
  H   H1952     1.0  0.95688  0.37804  0.82177  1.0000
  H   H1953     1.0  0.96373  0.32746  0.87388  1.0000
  H   H1954     1.0  0.71449  0.02996  0.97579  1.0000
  C   C1618     1.0  0.92306  0.46071  0.77176  1.0000
  C   C1619     1.0  0.97788  0.09587  0.82273  1.0000
  H   H1955     1.0  0.91379  0.34556  0.85161  1.0000
  N   N110      1.0  0.94911  0.39131  0.84142  1.0000
  H   H1956     1.0  0.90293  0.43805  0.78894  1.0000
  C   C1620     1.0  0.86918  0.16597  0.95945  1.0000
  H   H1957     1.0  0.79113  0.03942  0.87165  1.0000
  C   C1621     1.0  0.73344  0.39181  0.86099  1.0000
  H   H1958     1.0  0.78989  0.44403  0.86088  1.0000
  C   C1622     1.0  0.70361  0.38835  0.84266  1.0000
  H   H1959     1.0  0.95106  0.45658  0.74961  1.0000
  C   C1623     1.0  0.89274  0.20051  0.97725  1.0000
  H   H1960     1.0  0.87692  0.20361  0.98010  1.0000
  C   C1624     1.0  0.66839  0.32483  0.75335  1.0000
  C   C1625     1.0  0.91384  0.19088  0.95906  1.0000
  H   H1961     1.0  0.90846  0.47338  0.80457  1.0000
  H   H1962     1.0  0.70795  0.41818  0.86492  1.0000
  C   C1626     1.0  0.86590  0.15336  0.94603  1.0000
  C   C1627     1.0  0.78973  0.00784  0.85994  1.0000
  H   H1963     1.0  0.85096  0.16256  0.97971  1.0000
  H   H1964     1.0  0.81817  0.99796  0.83976  1.0000
  H   H1965     1.0  0.90944  0.21892  0.97909  1.0000
  H   H1966     1.0  0.97709  0.17330  0.84387  1.0000
  S   S444      1.0  0.67382  0.00380  0.95432  1.0000
  H   H1967     1.0  0.70932  0.37745  0.83543  1.0000
  H   H1968     1.0  0.69192  0.35219  0.87100  1.0000
  C   C1628     1.0  0.82711  0.11962  0.95263  1.0000
  H   H1969     1.0  0.95081  0.08820  0.83843  1.0000
  C   C1629     1.0  0.92289  0.38328  0.83734  1.0000
  H   H1970     1.0  0.92085  0.39723  0.83085  1.0000
  C   C1630     1.0  0.85038  0.15427  0.96935  1.0000
  C   C1631     1.0  0.67870  0.99831  0.97243  1.0000
  H   H1971     1.0  0.97861  0.42345  0.85256  1.0000
  H   H1972     1.0  0.90250  0.22771  0.95475  1.0000
  H   H1973     1.0  0.67431  0.10875  0.90941  1.0000
  C   C1632     1.0  0.75409  0.01323  0.86508  1.0000
  H   H1974     1.0  0.95959  0.40866  0.82127  1.0000
  C   C1633     1.0  0.65388  0.33683  0.75417  1.0000
  H   H1975     1.0  0.94679  0.99794  0.74177  1.0000
  C   C1634     1.0  0.96276  0.39570  0.82810  1.0000
  C   C1635     1.0  0.94321  0.46743  0.74420  1.0000
  C   C1636     1.0  0.97695  0.12721  0.83869  1.0000
  C   C1637     1.0  0.66300  0.11597  0.90449  1.0000
  H   H1976     1.0  0.65314  0.07816  0.86789  1.0000
  C   C1638     1.0  0.97681  0.37802  0.85447  1.0000
  H   H1977     1.0  0.96771  0.13095  0.84730  1.0000
  H   H1978     1.0  0.97052  0.07657  0.81918  1.0000
  C   C1639     1.0  0.98069  0.36162  0.86292  1.0000
  S   S445      1.0  0.68454  0.93880  0.04898  1.0000
  H   H1979     1.0  0.65901  0.65265  0.11501  1.0000
  Fe  Fe222     1.0  0.67857  0.95509  0.06940  1.0000
  S   S446      1.0  0.68644  0.73616  0.04593  1.0000
  H   H1980     1.0  0.93898  0.77605  0.13152  1.0000
  Fe  Fe223     1.0  0.67649  0.70955  0.06378  1.0000
  S   S447      1.0  0.69883  0.69466  0.07631  1.0000
  C   C1640     1.0  0.74454  0.94612  0.03734  1.0000
  H   H1981     1.0  0.66751  0.54605  0.18247  1.0000
  H   H1982     1.0  0.74971  0.98770  0.10735  1.0000
  H   H1983     1.0  0.70691  0.55673  0.21581  1.0000
  H   H1984     1.0  0.89049  0.72787  0.06682  1.0000
  S   S448      1.0  0.95961  0.92042  0.14104  1.0000
  S   S449      1.0  0.95364  0.96732  0.16913  1.0000
  Fe  Fe224     1.0  0.88248  0.74457  0.11763  1.0000
  S   S450      1.0  0.88900  0.74596  0.14131  1.0000
  S   S451      1.0  0.91203  0.75280  0.10122  1.0000
  Fe  Fe225     1.0  0.83189  0.74387  0.12083  1.0000
  S   S452      1.0  0.83539  0.74494  0.14484  1.0000
  S   S453      1.0  0.80387  0.75333  0.10967  1.0000
  Fe  Fe226     1.0  0.87489  0.77383  0.14250  1.0000
  S   S454      1.0  0.89219  0.80820  0.15757  1.0000
  Fe  Fe227     1.0  0.84904  0.71681  0.14178  1.0000
  S   S455      1.0  0.84169  0.68283  0.15470  1.0000
  S   S456      1.0  0.87083  0.77439  0.11890  1.0000
  S   S457      1.0  0.84321  0.71385  0.11768  1.0000
  Fe  Fe228     1.0  0.77740  0.60084  0.22226  1.0000
  S   S458      1.0  0.75747  0.55918  0.21864  1.0000
  S   S459      1.0  0.77655  0.62999  0.20779  1.0000
  H   H1985     1.0  0.91868  0.66428  0.06919  1.0000
  N   N111      1.0  0.69774  0.58108  0.20400  1.0000
  C   C1641     1.0  0.97643  0.97629  0.22544  1.0000
  C   C1642     1.0  0.85514  0.50577  0.22802  1.0000
  H   H1986     1.0  0.83826  0.66671  0.21835  1.0000
  H   H1987     1.0  0.70224  0.58387  0.18130  1.0000
  S   S460      1.0  0.67618  0.79206  0.06224  1.0000
  H   H1988     1.0  0.95848  0.67636  0.03937  1.0000
  C   C1643     1.0  0.97450  0.54474  0.19249  1.0000
  H   H1989     1.0  0.71844  0.69519  0.99314  1.0000
  C   C1644     1.0  0.98135  0.85364  0.13889  1.0000
  C   C1645     1.0  0.74923  0.96125  0.04999  1.0000
  H   H1990     1.0  0.94889  0.80337  0.10533  1.0000
  C   C1646     1.0  0.65405  0.64602  0.10371  1.0000
  C   C1647     1.0  0.65844  0.54657  0.19205  1.0000
  C   C1648     1.0  0.79499  0.64455  0.19311  1.0000
  C   C1649     1.0  0.79331  0.66456  0.18706  1.0000
  C   C1650     1.0  0.80746  0.67659  0.17537  1.0000
  C   C1651     1.0  0.82331  0.66856  0.16945  1.0000
  C   C1652     1.0  0.82490  0.64850  0.17549  1.0000
  C   C1653     1.0  0.81097  0.63665  0.18728  1.0000
  H   H1991     1.0  0.78107  0.67090  0.19148  1.0000
  H   H1992     1.0  0.80601  0.69197  0.17087  1.0000
  H   H1993     1.0  0.83705  0.64209  0.17101  1.0000
  H   H1994     1.0  0.81244  0.62125  0.19173  1.0000
  C   C1654     1.0  0.94064  0.88937  0.14582  1.0000
  C   C1655     1.0  0.93267  0.87007  0.13529  1.0000
  C   C1656     1.0  0.91758  0.84518  0.13865  1.0000
  C   C1657     1.0  0.91031  0.83932  0.15261  1.0000
  C   C1658     1.0  0.91802  0.85864  0.16309  1.0000
  C   C1659     1.0  0.93314  0.88353  0.15974  1.0000
  H   H1995     1.0  0.93829  0.87442  0.12449  1.0000
  H   H1996     1.0  0.91179  0.83055  0.13048  1.0000
  H   H1997     1.0  0.91252  0.85431  0.17392  1.0000
  H   H1998     1.0  0.93906  0.89816  0.16795  1.0000
  C   C1660     1.0  0.67109  0.56326  0.20383  1.0000
  C   C1661     1.0  0.96244  0.55067  0.18177  1.0000
  C   C1662     1.0  0.89566  0.67801  0.07753  1.0000
  C   C1663     1.0  0.96360  0.71890  0.09174  1.0000
  Fe  Fe229     1.0  0.97635  0.95405  0.15667  1.0000
  C   C1664     1.0  0.95094  0.75078  0.08856  1.0000
  C   C1665     1.0  0.93199  0.73962  0.09819  1.0000
  C   C1666     1.0  0.92944  0.71852  0.10495  1.0000
  C   C1667     1.0  0.94504  0.70814  0.10164  1.0000
  C   C1668     1.0  0.66296  0.50702  0.22676  1.0000
  H   H1999     1.0  0.95325  0.76726  0.08338  1.0000
  H   H2000     1.0  0.91505  0.70979  0.11244  1.0000
  H   H2001     1.0  0.94249  0.69144  0.10667  1.0000
  C   C1669     1.0  0.72826  0.71135  0.08532  1.0000
  C   C1670     1.0  0.74076  0.73727  0.08657  1.0000
  C   C1671     1.0  0.76383  0.74966  0.09403  1.0000
  C   C1672     1.0  0.77482  0.73639  0.10028  1.0000
  C   C1673     1.0  0.76234  0.71046  0.09901  1.0000
  C   C1674     1.0  0.73919  0.69805  0.09162  1.0000
  H   H2002     1.0  0.73266  0.74779  0.08181  1.0000
  H   H2003     1.0  0.77326  0.76971  0.09490  1.0000
  H   H2004     1.0  0.77049  0.69996  0.10374  1.0000
  H   H2005     1.0  0.72977  0.67800  0.09070  1.0000
  H   H2006     1.0  0.80725  0.65002  0.23402  1.0000
  H   H2007     1.0  0.70890  0.56083  0.18930  1.0000
  Fe  Fe230     1.0  0.66274  0.75067  0.05657  1.0000
  C   C1675     1.0  0.68362  0.98929  0.00166  1.0000
  H   H2008     1.0  0.74887  0.95379  0.02698  1.0000
  C   C1676     1.0  0.65704  0.56195  0.21585  1.0000
  H   H2009     1.0  0.93647  0.98457  0.21848  1.0000
  H   H2010     1.0  0.72953  0.90899  0.02795  1.0000
  C   C1677     1.0  0.68655  0.69682  0.00111  1.0000
  H   H2011     1.0  0.69160  0.61094  0.19692  1.0000
  H   H2012     1.0  0.69387  0.70133  0.01197  1.0000
  H   H2013     1.0  0.67764  0.50813  0.22023  1.0000
  S   S461      1.0  0.98167  0.70399  0.08741  1.0000
  H   H2014     1.0  0.72135  0.62068  0.20556  1.0000
  H   H2015     1.0  0.91237  0.97414  0.18176  1.0000
  C   C1678     1.0  0.82498  0.52149  0.22968  1.0000
  S   S462      1.0  0.65555  0.72597  0.07512  1.0000
  C   C1679     1.0  0.84986  0.69836  0.20586  1.0000
  C   C1680     1.0  0.74124  0.94870  0.06286  1.0000
  C   C1681     1.0  0.84265  0.68606  0.21856  1.0000
  S   S463      1.0  0.66261  0.97649  0.05826  1.0000
  C   C1682     1.0  0.88753  0.69574  0.07702  1.0000
  C   C1683     1.0  0.84615  0.72356  0.23015  1.0000
  N   N112      1.0  0.93963  0.69655  0.04671  1.0000
  C   C1684     1.0  0.70141  0.60681  0.20567  1.0000
  H   H2016     1.0  0.98153  0.74975  0.07823  1.0000
  C   C1685     1.0  0.92153  0.69574  0.05709  1.0000
  H   H2017     1.0  0.91958  0.72824  0.04947  1.0000
  H   H2018     1.0  0.88949  0.66473  0.08584  1.0000
  C   C1686     1.0  0.71011  0.57950  0.19091  1.0000
  H   H2019     1.0  0.96994  0.78329  0.13748  1.0000
  C   C1687     1.0  0.96314  0.71963  0.04941  1.0000
  H   H2020     1.0  0.73019  0.59307  0.19150  1.0000
  C   C1688     1.0  0.72998  0.92282  0.06309  1.0000
  C   C1689     1.0  0.89622  0.71358  0.06679  1.0000
  C   C1690     1.0  0.67478  0.83655  0.06368  1.0000
  H   H2021     1.0  0.92195  0.96239  0.19637  1.0000
  H   H2022     1.0  0.72362  0.91372  0.07302  1.0000
  H   H2023     1.0  0.87516  0.69627  0.08490  1.0000
  H   H2024     1.0  0.71685  0.88851  0.05074  1.0000
  C   C1691     1.0  0.85491  0.72299  0.20520  1.0000
  H   H2025     1.0  0.95966  0.77499  0.11923  1.0000
  S   S464      1.0  0.81011  0.60112  0.23335  1.0000
  H   H2026     1.0  0.72824  0.98735  0.05983  1.0000
  H   H2027     1.0  0.96694  0.71084  0.99733  1.0000
  C   C1692     1.0  0.95870  0.78559  0.12880  1.0000
  C   C1693     1.0  0.91251  0.97353  0.19355  1.0000
  C   C1694     1.0  0.66306  0.69403  0.99782  1.0000
  N   N113      1.0  0.84331  0.82799  0.12494  1.0000
  C   C1695     1.0  0.84903  0.82275  0.11037  1.0000
  C   C1696     1.0  0.84505  0.80976  0.13434  1.0000
  C   C1697     1.0  0.81751  0.82374  0.12447  1.0000
  C   C1698     1.0  0.86007  0.85350  0.13061  1.0000
  C   C1699     1.0  0.85786  0.86096  0.14471  1.0000
  C   C1700     1.0  0.87909  0.87145  0.12257  1.0000
  C   C1701     1.0  0.87413  0.88455  0.15053  1.0000
  C   C1702     1.0  0.89509  0.89506  0.12848  1.0000
  C   C1703     1.0  0.89277  0.90152  0.14244  1.0000
  H   H2028     1.0  0.86799  0.82484  0.11007  1.0000
  H   H2029     1.0  0.83638  0.80335  0.10649  1.0000
  H   H2030     1.0  0.84689  0.83492  0.10251  1.0000
  H   H2031     1.0  0.86425  0.81272  0.13518  1.0000
  H   H2032     1.0  0.83314  0.79034  0.13027  1.0000
  H   H2033     1.0  0.83931  0.81080  0.14532  1.0000
  H   H2034     1.0  0.81547  0.83743  0.11778  1.0000
  H   H2035     1.0  0.80457  0.80478  0.11992  1.0000
  H   H2036     1.0  0.81106  0.82514  0.13522  1.0000
  H   H2037     1.0  0.84386  0.84837  0.15145  1.0000
  H   H2038     1.0  0.88244  0.86759  0.11182  1.0000
  H   H2039     1.0  0.87266  0.88950  0.16148  1.0000
  H   H2040     1.0  0.91012  0.90818  0.12240  1.0000
  H   H2041     1.0  0.90592  0.91951  0.14709  1.0000
  C   C1704     1.0  0.93039  0.69632  0.03196  1.0000
  H   H2042     1.0  0.85117  0.68861  0.19637  1.0000
  C   C1705     1.0  0.96685  0.74069  0.08548  1.0000
  H   H2043     1.0  0.94377  0.54750  0.18325  1.0000
  C   C1706     1.0  0.85308  0.73557  0.21731  1.0000
  C   C1707     1.0  0.97402  0.55997  0.16906  1.0000
  S   S465      1.0  0.81590  0.54424  0.22481  1.0000
  H   H2044     1.0  0.97678  0.72174  0.04132  1.0000
  C   C1708     1.0  0.66450  0.81258  0.05713  1.0000
  Fe  Fe231     1.0  0.78938  0.55927  0.23145  1.0000
  C   C1709     1.0  0.94512  0.67538  0.04747  1.0000
  H   H2045     1.0  0.69463  0.61021  0.21592  1.0000
  H   H2046     1.0  0.92891  0.71335  0.02981  1.0000
  H   H2047     1.0  0.70447  0.57994  0.22664  1.0000
  C   C1710     1.0  0.70044  0.69327  0.99037  1.0000
  H   H2048     1.0  0.68966  0.84212  0.07159  1.0000
  C   C1711     1.0  0.72604  0.90861  0.05055  1.0000
  H   H2049     1.0  0.97224  0.86845  0.17255  1.0000
  H   H2050     1.0  0.67387  0.87159  0.06539  1.0000
  C   C1712     1.0  0.91295  0.71364  0.05695  1.0000
  H   H2051     1.0  0.74268  0.95859  0.07282  1.0000
  H   H2052     1.0  0.91192  0.68004  0.02980  1.0000
  H   H2053     1.0  0.89304  0.96306  0.19668  1.0000
  H   H2054     1.0  0.85860  0.53884  0.21833  1.0000
  H   H2055     1.0  0.72669  0.98737  0.04087  1.0000
  Fe  Fe232     1.0  0.98089  0.97369  0.18724  1.0000
  C   C1713     1.0  0.91253  0.67799  0.06781  1.0000
  H   H2056     1.0  0.96514  0.53670  0.20212  1.0000
  C   C1714     1.0  0.71044  0.57637  0.21616  1.0000
  H   H2057     1.0  0.73067  0.58856  0.21618  1.0000
  C   C1715     1.0  0.66591  0.85335  0.06017  1.0000
  C   C1716     1.0  0.95003  0.81377  0.11548  1.0000
  H   H2058     1.0  0.95384  0.67539  0.05799  1.0000
  C   C1717     1.0  0.84731  0.52350  0.22478  1.0000
  C   C1718     1.0  0.73325  0.92022  0.03771  1.0000
  H   H2059     1.0  0.95544  0.83326  0.11290  1.0000
  C   C1719     1.0  0.97440  0.69905  0.99339  1.0000
  H   H2060     1.0  0.85699  0.75477  0.21670  1.0000
  H   H2061     1.0  0.97164  0.71950  0.05993  1.0000
  Fe  Fe233     1.0  0.66656  0.95869  0.03779  1.0000
  H   H2062     1.0  0.92819  0.65731  0.04557  1.0000
  H   H2063     1.0  0.96080  0.73656  0.04931  1.0000
  C   C1720     1.0  0.98286  0.86822  0.15097  1.0000
  S   S466      1.0  0.70815  0.97028  0.08759  1.0000
  C   C1721     1.0  0.84072  0.69831  0.23115  1.0000
  H   H2064     1.0  0.86008  0.73224  0.19521  1.0000
  H   H2065     1.0  0.66375  0.64215  0.00507  1.0000
  H   H2066     1.0  0.67109  0.65667  0.09770  1.0000
  N   N114      1.0  0.96742  0.81219  0.12602  1.0000
  S   S467      1.0  0.68746  0.98547  0.02021  1.0000
  C   C1722     1.0  0.97171  0.85708  0.16336  1.0000
  H   H2067     1.0  0.94307  0.69542  0.02393  1.0000
  S   S468      1.0  0.96541  0.95990  0.20882  1.0000
  H   H2068     1.0  0.87232  0.50767  0.22412  1.0000
  C   C1723     1.0  0.96895  0.82731  0.13897  1.0000
  H   H2069     1.0  0.96344  0.56381  0.16115  1.0000
  C   C1724     1.0  0.66252  0.97323  0.99344  1.0000
  H   H2070     1.0  0.93106  0.80564  0.11954  1.0000
  H   H2071     1.0  0.65625  0.68776  0.09348  1.0000
  H   H2072     1.0  0.94882  0.82276  0.17305  1.0000
  H   H2073     1.0  0.94582  0.79679  0.15245  1.0000
  C   C1725     1.0  0.95706  0.81655  0.15164  1.0000
  H   H2074     1.0  0.66543  0.57372  0.22529  1.0000
  H   H2075     1.0  0.97856  0.56410  0.13949  1.0000
  H   H2076     1.0  0.90798  0.98488  0.22056  1.0000
  C   C1726     1.0  0.95867  0.83133  0.16365  1.0000
  N   N115      1.0  0.75983  0.98862  0.04978  1.0000
  H   H2077     1.0  0.90541  0.58902  0.26357  1.0000
  H   H2078     1.0  0.74702  0.64554  0.48517  1.0000
  S   S469      1.0  0.69020  0.95140  0.42820  1.0000
  H   H2079     1.0  0.82047  0.54718  0.25666  1.0000
  Fe  Fe234     1.0  0.67790  0.96544  0.40937  1.0000
  H   H2080     1.0  0.71715  0.80376  0.45714  1.0000
  H   H2081     1.0  0.71865  0.93608  0.38010  1.0000
  H   H2082     1.0  0.65540  0.74917  0.46210  1.0000
  N   N116      1.0  0.94830  0.82654  0.35336  1.0000
  C   C1727     1.0  0.82876  0.56009  0.26616  1.0000
  H   H2083     1.0  0.65329  0.52960  0.25797  1.0000
  C   C1728     1.0  0.74287  0.91792  0.39563  1.0000
  H   H2084     1.0  0.74349  0.91364  0.38411  1.0000
  Fe  Fe235     1.0  0.67568  0.71596  0.40786  1.0000
  S   S470      1.0  0.70146  0.72313  0.38934  1.0000
  S   S471      1.0  0.68424  0.74408  0.42602  1.0000
  C   C1729     1.0  0.66875  0.52098  0.23966  1.0000
  H   H2085     1.0  0.98407  0.73758  0.38534  1.0000
  Fe  Fe236     1.0  0.96619  0.95387  0.30905  1.0000
  S   S472      1.0  0.94743  0.91160  0.30594  1.0000
  Fe  Fe237     1.0  0.88178  0.74446  0.35372  1.0000
  S   S473      1.0  0.87753  0.75854  0.33234  1.0000
  S   S474      1.0  0.92013  0.74819  0.35864  1.0000
  Fe  Fe238     1.0  0.83116  0.73787  0.36297  1.0000
  S   S475      1.0  0.82462  0.75258  0.34268  1.0000
  S   S476      1.0  0.80422  0.72283  0.38098  1.0000
  Fe  Fe239     1.0  0.83821  0.72791  0.33190  1.0000
  S   S477      1.0  0.81288  0.70340  0.31327  1.0000
  Fe  Fe240     1.0  0.86446  0.78178  0.34482  1.0000
  S   S478      1.0  0.87753  0.82363  0.34492  1.0000
  S   S479      1.0  0.84333  0.71205  0.35225  1.0000
  S   S480      1.0  0.87002  0.76877  0.36610  1.0000
  C   C1730     1.0  0.85520  0.53220  0.26624  1.0000
  Fe  Fe241     1.0  0.79085  0.59762  0.25377  1.0000
  S   S481      1.0  0.77130  0.55579  0.25245  1.0000
  S   S482      1.0  0.81717  0.62018  0.27237  1.0000
  H   H2086     1.0  0.95154  0.90455  0.36052  1.0000
  H   H2087     1.0  0.72561  0.90273  0.39964  1.0000
  H   H2088     1.0  0.96647  0.72229  0.45388  1.0000
  H   H2089     1.0  0.71978  0.95839  0.39362  1.0000
  C   C1731     1.0  0.81441  0.68010  0.30221  1.0000
  C   C1732     1.0  0.79505  0.66653  0.29213  1.0000
  C   C1733     1.0  0.79542  0.64795  0.28304  1.0000
  C   C1734     1.0  0.81531  0.64284  0.28386  1.0000
  C   C1735     1.0  0.83466  0.65640  0.29393  1.0000
  C   C1736     1.0  0.83422  0.67488  0.30308  1.0000
  H   H2090     1.0  0.77961  0.67037  0.29138  1.0000
  H   H2091     1.0  0.78025  0.63753  0.27546  1.0000
  H   H2092     1.0  0.85013  0.65260  0.29470  1.0000
  H   H2093     1.0  0.84924  0.68514  0.31078  1.0000
  H   H2094     1.0  0.82021  0.57262  0.26635  1.0000
  C   C1737     1.0  0.92755  0.88746  0.31681  1.0000
  C   C1738     1.0  0.92139  0.86276  0.31289  1.0000
  C   C1739     1.0  0.90593  0.84296  0.32122  1.0000
  C   C1740     1.0  0.89648  0.84764  0.33366  1.0000
  C   C1741     1.0  0.90238  0.87231  0.33748  1.0000
  C   C1742     1.0  0.91782  0.89212  0.32913  1.0000
  H   H2095     1.0  0.92861  0.85893  0.30330  1.0000
  H   H2096     1.0  0.90119  0.82411  0.31794  1.0000
  H   H2097     1.0  0.89504  0.87614  0.34702  1.0000
  H   H2098     1.0  0.92224  0.91096  0.33225  1.0000
  H   H2099     1.0  0.85139  0.71653  0.25926  1.0000
  H   H2100     1.0  0.79257  0.70013  0.34137  1.0000
  C   C1743     1.0  0.94847  0.71551  0.39385  1.0000
  C   C1744     1.0  0.92326  0.70892  0.39252  1.0000
  C   C1745     1.0  0.91429  0.71892  0.38195  1.0000
  C   C1746     1.0  0.93043  0.73554  0.37248  1.0000
  C   C1747     1.0  0.95567  0.74224  0.37386  1.0000
  C   C1748     1.0  0.96468  0.73238  0.38450  1.0000
  H   H2101     1.0  0.91052  0.69583  0.39964  1.0000
  H   H2102     1.0  0.89485  0.71355  0.38104  1.0000
  H   H2103     1.0  0.85652  0.57621  0.24277  1.0000
  C   C1749     1.0  0.73115  0.72503  0.38811  1.0000
  C   C1750     1.0  0.74019  0.71408  0.39784  1.0000
  C   C1751     1.0  0.76288  0.71416  0.39568  1.0000
  C   C1752     1.0  0.77699  0.72544  0.38389  1.0000
  C   C1753     1.0  0.76827  0.73701  0.37438  1.0000
  C   C1754     1.0  0.74536  0.73649  0.37639  1.0000
  H   H2104     1.0  0.72944  0.70503  0.40684  1.0000
  H   H2105     1.0  0.76941  0.70516  0.40311  1.0000
  H   H2106     1.0  0.77893  0.74598  0.36533  1.0000
  H   H2107     1.0  0.73855  0.74498  0.36878  1.0000
  C   C1755     1.0  0.72075  0.94080  0.39172  1.0000
  C   C1756     1.0  0.66214  0.97404  0.47654  1.0000
  C   C1757     1.0  0.97248  0.90279  0.34303  1.0000
  C   C1758     1.0  0.76903  0.66237  0.35869  1.0000
  H   H2108     1.0  0.93750  0.72142  0.46908  1.0000
  C   C1759     1.0  0.93407  0.81018  0.34095  1.0000
  C   C1760     1.0  0.80816  0.66364  0.24238  1.0000
  H   H2109     1.0  0.93934  0.52235  0.28657  1.0000
  C   C1761     1.0  0.76574  0.97723  0.38080  1.0000
  H   H2110     1.0  0.70425  0.92599  0.39657  1.0000
  H   H2111     1.0  0.76559  0.70071  0.33431  1.0000
  C   C1762     1.0  0.95656  0.85279  0.35009  1.0000
  C   C1763     1.0  0.94663  0.53664  0.30833  1.0000
  N   N117      1.0  0.75854  0.66829  0.34590  1.0000
  H   H2112     1.0  0.67365  0.62917  0.33366  1.0000
  N   N118      1.0  0.85600  0.57428  0.26554  1.0000
  S   S483      1.0  0.95846  0.70175  0.40721  1.0000
  C   C1764     1.0  0.86828  0.55843  0.26536  1.0000
  H   H2113     1.0  0.92752  0.53157  0.31010  1.0000
  C   C1765     1.0  0.73261  0.66232  0.34810  1.0000
  H   H2114     1.0  0.78149  0.65957  0.33224  1.0000
  C   C1766     1.0  0.69006  0.84961  0.48247  1.0000
  C   C1767     1.0  0.90623  0.55462  0.26370  1.0000
  C   C1768     1.0  0.67155  0.81560  0.41659  1.0000
  S   S484      1.0  0.65871  0.68272  0.42172  1.0000
  H   H2115     1.0  0.91505  0.81974  0.36390  1.0000
  H   H2116     1.0  0.80173  0.65323  0.25226  1.0000
  H   H2117     1.0  0.92599  0.56318  0.26254  1.0000
  C   C1769     1.0  0.65648  0.76787  0.46309  1.0000
  C   C1770     1.0  0.69818  0.78816  0.45527  1.0000
  H   H2118     1.0  0.68325  0.87648  0.47160  1.0000
  H   H2119     1.0  0.72759  0.93404  0.41843  1.0000
  H   H2120     1.0  0.74077  0.68600  0.36737  1.0000
  S   S485      1.0  0.75949  0.60029  0.24297  1.0000
  H   H2121     1.0  0.97766  0.85253  0.33178  1.0000
  S   S486      1.0  0.68245  0.88682  0.41618  1.0000
  H   H2122     1.0  0.79331  0.49942  0.24175  1.0000
  H   H2123     1.0  0.70099  0.85186  0.41236  1.0000
  H   H2124     1.0  0.90196  0.51753  0.26370  1.0000
  H   H2125     1.0  0.94197  0.82926  0.37567  1.0000
  C   C1771     1.0  0.79010  0.96581  0.39654  1.0000
  H   H2126     1.0  0.76994  0.67391  0.36827  1.0000
  H   H2127     1.0  0.75827  0.91667  0.40127  1.0000
  Fe  Fe242     1.0  0.66494  0.71086  0.43962  1.0000
  H   H2128     1.0  0.88136  0.60235  0.25198  1.0000
  H   H2129     1.0  0.82301  0.54936  0.27596  1.0000
  C   C1772     1.0  0.66807  0.85403  0.41757  1.0000
  C   C1773     1.0  0.68349  0.65288  0.35255  1.0000
  H   H2130     1.0  0.98263  0.53366  0.28242  1.0000
  C   C1774     1.0  0.67142  0.67151  0.47479  1.0000
  N   N119      1.0  0.74396  0.94255  0.39793  1.0000
  C   C1775     1.0  0.86743  0.51784  0.26585  1.0000
  H   H2131     1.0  0.82953  0.98700  0.39493  1.0000
  H   H2132     1.0  0.84507  0.73442  0.23908  1.0000
  N   N120      1.0  0.93409  0.68713  0.44843  1.0000
  C   C1776     1.0  0.92913  0.66419  0.44001  1.0000
  C   C1777     1.0  0.92057  0.69860  0.44115  1.0000
  C   C1778     1.0  0.96087  0.70423  0.44810  1.0000
  C   C1779     1.0  0.92685  0.68270  0.46340  1.0000
  C   C1780     1.0  0.91727  0.65891  0.46929  1.0000
  C   C1781     1.0  0.92991  0.70274  0.47272  1.0000
  C   C1782     1.0  0.95323  0.53165  0.29504  1.0000
  H   H2133     1.0  0.84965  0.66079  0.24057  1.0000
  C   C1783     1.0  0.67510  0.82156  0.45687  1.0000
  H   H2134     1.0  0.93465  0.66816  0.42879  1.0000
  H   H2135     1.0  0.93994  0.65535  0.44437  1.0000
  H   H2136     1.0  0.92637  0.79846  0.36789  1.0000
  H   H2137     1.0  0.90030  0.68693  0.44179  1.0000
  S   S487      1.0  0.69986  0.54087  0.24607  1.0000
  H   H2138     1.0  0.69123  0.79035  0.44466  1.0000
  Fe  Fe243     1.0  0.66557  0.91300  0.41859  1.0000
  H   H2139     1.0  0.95841  0.55096  0.32956  1.0000
  H   H2140     1.0  0.83542  0.52216  0.26690  1.0000
  H   H2141     1.0  0.92800  0.79034  0.34297  1.0000
  C   C1784     1.0  0.97191  0.86336  0.33847  1.0000
  H   H2142     1.0  0.74594  0.96658  0.41562  1.0000
  C   C1785     1.0  0.94959  0.86847  0.35806  1.0000
  H   H2143     1.0  0.94475  0.81426  0.33116  1.0000
  H   H2144     1.0  0.91481  0.64262  0.46321  1.0000
  C   C1786     1.0  0.67552  0.84460  0.45800  1.0000
  H   H2145     1.0  0.96698  0.70857  0.43704  1.0000
  C   C1787     1.0  0.95766  0.89313  0.35459  1.0000
  H   H2146     1.0  0.75146  0.63425  0.33452  1.0000
  H   H2147     1.0  0.97160  0.69585  0.45303  1.0000
  H   H2148     1.0  0.98191  0.54492  0.34609  1.0000
  H   H2149     1.0  0.76025  0.94749  0.41922  1.0000
  H   H2150     1.0  0.86175  0.58166  0.28816  1.0000
  H   H2151     1.0  0.92560  0.71741  0.44570  1.0000
  C   C1788     1.0  0.68856  0.64151  0.34097  1.0000
  C   C1789     1.0  0.72668  0.67341  0.35981  1.0000
  H   H2152     1.0  0.75587  0.65965  0.32330  1.0000
  H   H2153     1.0  0.85578  0.60362  0.27879  1.0000
  C   C1790     1.0  0.86158  0.58872  0.25248  1.0000
  H   H2154     1.0  0.98475  0.66435  0.46814  1.0000
  C   C1791     1.0  0.91125  0.65561  0.48359  1.0000
  C   C1792     1.0  0.67924  0.69690  0.47700  1.0000
  H   H2155     1.0  0.66576  0.66305  0.46422  1.0000
  C   C1793     1.0  0.97953  0.88792  0.33496  1.0000
  C   C1794     1.0  0.86516  0.59182  0.27814  1.0000
  H   H2156     1.0  0.88522  0.60469  0.27793  1.0000
  H   H2157     1.0  0.68252  0.80626  0.41481  1.0000
  C   C1795     1.0  0.68198  0.84149  0.41522  1.0000
  C   C1796     1.0  0.70254  0.66883  0.36194  1.0000
  H   H2158     1.0  0.96752  0.96603  0.26093  1.0000
  H   H2159     1.0  0.84651  0.66634  0.25884  1.0000
  C   C1797     1.0  0.74454  0.94794  0.41345  1.0000
  H   H2160     1.0  0.90919  0.65055  0.43955  1.0000
  H   H2161     1.0  0.85116  0.59946  0.25174  1.0000
  H   H2162     1.0  0.92481  0.70104  0.42965  1.0000
  C   C1798     1.0  0.85062  0.67523  0.24838  1.0000
  C   C1799     1.0  0.96443  0.54756  0.31943  1.0000
  C   C1800     1.0  0.89424  0.56922  0.26424  1.0000
  C   C1801     1.0  0.83289  0.70042  0.25684  1.0000
  C   C1802     1.0  0.68231  0.81184  0.46850  1.0000
  H   H2163     1.0  0.96833  0.75500  0.36657  1.0000
  H   H2164     1.0  0.69963  0.77066  0.45435  1.0000
  N   N121      1.0  0.83327  0.68486  0.24451  1.0000
  C   C1803     1.0  0.76645  0.96188  0.39169  1.0000
  H   H2165     1.0  0.96419  0.80315  0.35945  1.0000
  H   H2166     1.0  0.91728  0.81208  0.33854  1.0000
  H   H2167     1.0  0.74876  0.97610  0.37660  1.0000
  H   H2168     1.0  0.66907  0.81133  0.44678  1.0000
  H   H2169     1.0  0.98164  0.82588  0.34713  1.0000
  H   H2170     1.0  0.79211  0.95485  0.40477  1.0000
  H   H2171     1.0  0.95457  0.94394  0.23725  1.0000
  C   C1804     1.0  0.96735  0.96360  0.23795  1.0000
  C   C1805     1.0  0.71274  0.64614  0.33868  1.0000
  H   H2172     1.0  0.69867  0.67796  0.37089  1.0000
  C   C1806     1.0  0.77317  0.69512  0.34356  1.0000
  H   H2173     1.0  0.71540  0.63696  0.32943  1.0000
  H   H2174     1.0  0.93731  0.86198  0.36677  1.0000
  S   S488      1.0  0.95320  0.97992  0.29994  1.0000
  C   C1807     1.0  0.68980  0.82658  0.48143  1.0000
  C   C1808     1.0  0.89281  0.52895  0.26443  1.0000
  S   S489      1.0  0.98340  0.97733  0.32914  1.0000
  S   S490      1.0  0.67840  0.71594  0.46314  1.0000
  C   C1809     1.0  0.96995  0.82263  0.35646  1.0000
  C   C1810     1.0  0.93229  0.81830  0.36577  1.0000
  H   H2175     1.0  0.77389  0.70684  0.35297  1.0000
  H   H2176     1.0  0.78837  0.66610  0.35722  1.0000
  C   C1811     1.0  0.76174  0.65467  0.33346  1.0000
  H   H2177     1.0  0.75790  0.64258  0.36126  1.0000
  C   C1812     1.0  0.68298  0.85861  0.47077  1.0000
  H   H2178     1.0  0.82754  0.68980  0.26673  1.0000
  H   H2179     1.0  0.67004  0.85164  0.44888  1.0000
  N   N122      1.0  0.68193  0.78748  0.46685  1.0000
  C   C1813     1.0  0.97465  0.97609  0.25139  1.0000
  H   H2180     1.0  0.69003  0.76179  0.47825  1.0000
  H   H2181     1.0  0.86997  0.69043  0.24911  1.0000
  H   H2182     1.0  0.81922  0.70725  0.25502  1.0000
  Fe  Fe244     1.0  0.74068  0.55855  0.23991  1.0000
  H   H2183     1.0  0.66480  0.64948  0.35424  1.0000
  C   C1814     1.0  0.97770  0.53803  0.29272  1.0000
  H   H2184     1.0  0.98165  0.83523  0.36543  1.0000
  C   C1815     1.0  0.81165  0.98412  0.39096  1.0000
  H   H2185     1.0  0.97779  0.92157  0.33999  1.0000
  C   C1816     1.0  0.69044  0.78011  0.47990  1.0000
  H   H2186     1.0  0.70983  0.79363  0.48306  1.0000
  H   H2187     1.0  0.85704  0.49778  0.26619  1.0000
  C   C1817     1.0  0.98237  0.67271  0.47786  1.0000
  C   C1818     1.0  0.81059  0.50143  0.23796  1.0000
  H   H2188     1.0  0.66376  0.63718  0.48455  1.0000
  H   H2189     1.0  0.79461  0.66994  0.23902  1.0000
  H   H2190     1.0  0.65522  0.95609  0.37363  1.0000
  Fe  Fe245     1.0  0.65600  0.94813  0.43856  1.0000
  S   S491      1.0  0.65547  0.92730  0.39921  1.0000
  Fe  Fe246     1.0  0.69036  0.65416  0.53758  1.0000
  S   S492      1.0  0.73011  0.67966  0.54392  1.0000
  S   S493      1.0  0.67427  0.64767  0.51457  1.0000
  Fe  Fe247     1.0  0.67914  0.62996  0.56703  1.0000
  S   S494      1.0  0.71869  0.65377  0.57481  1.0000
  H   H2191     1.0  0.76239  0.58775  0.57249  1.0000
  Fe  Fe248     1.0  0.71573  0.68543  0.56484  1.0000
  S   S495      1.0  0.73542  0.72235  0.57778  1.0000
  Fe  Fe249     1.0  0.73034  0.64651  0.55352  1.0000
  S   S496      1.0  0.75851  0.63293  0.54840  1.0000
  S   S497      1.0  0.67572  0.66219  0.55788  1.0000
  S   S498      1.0  0.69100  0.62034  0.54633  1.0000
  Fe  Fe250     1.0  0.90471  0.66752  0.55668  1.0000
  S   S499      1.0  0.89979  0.63161  0.54656  1.0000
  S   S500      1.0  0.87521  0.67993  0.56036  1.0000
  Fe  Fe251     1.0  0.95940  0.68490  0.56522  1.0000
  S   S501      1.0  0.95767  0.64966  0.55582  1.0000
  Fe  Fe252     1.0  0.93710  0.65517  0.53724  1.0000
  S   S502      1.0  0.94453  0.64778  0.51421  1.0000
  Fe  Fe253     1.0  0.92091  0.62890  0.56586  1.0000
  S   S503      1.0  0.90658  0.59740  0.58180  1.0000
  S   S504      1.0  0.94064  0.69134  0.54612  1.0000
  S   S505      1.0  0.92415  0.66402  0.57639  1.0000
  C   C1819     1.0  0.67770  0.84299  0.67452  1.0000
  H   H2192     1.0  0.74002  0.75597  0.62778  1.0000
  H   H2193     1.0  0.79629  0.92537  0.59585  1.0000
  S   S506      1.0  0.96428  0.95342  0.67170  1.0000
  H   H2194     1.0  0.78915  0.65253  0.50422  1.0000
  C   C1820     1.0  0.67161  0.71267  0.61663  1.0000
  H   H2195     1.0  0.77052  0.63702  0.51900  1.0000
  N   N123      1.0  0.68056  0.67827  0.60836  1.0000
  Fe  Fe254     1.0  0.72665  0.83695  0.61784  1.0000
  S   S507      1.0  0.73832  0.83768  0.64084  1.0000
  S   S508      1.0  0.70465  0.80137  0.60394  1.0000
  Fe  Fe255     1.0  0.74359  0.89333  0.61865  1.0000
  S   S509      1.0  0.75686  0.89762  0.64161  1.0000
  S   S510      1.0  0.75264  0.92997  0.60805  1.0000
  Fe  Fe256     1.0  0.77285  0.87254  0.63564  1.0000
  S   S511      1.0  0.81147  0.87765  0.64140  1.0000
  Fe  Fe257     1.0  0.72135  0.86280  0.64509  1.0000
  S   S512      1.0  0.69842  0.86593  0.66324  1.0000
  S   S513      1.0  0.76195  0.87022  0.61237  1.0000
  S   S514      1.0  0.70736  0.86001  0.62240  1.0000
  C   C1821     1.0  0.65996  0.92314  0.61878  1.0000
  H   H2196     1.0  0.88557  0.92160  0.62137  1.0000
  H   H2197     1.0  0.97464  0.59012  0.58645  1.0000
  C   C1822     1.0  0.94982  0.59784  0.61674  1.0000
  C   C1823     1.0  0.88375  0.94642  0.65697  1.0000
  C   C1824     1.0  0.86131  0.94735  0.65662  1.0000
  C   C1825     1.0  0.83891  0.92622  0.65253  1.0000
  C   C1826     1.0  0.83875  0.90405  0.64824  1.0000
  C   C1827     1.0  0.86108  0.90289  0.64897  1.0000
  C   C1828     1.0  0.88344  0.92388  0.65339  1.0000
  H   H2198     1.0  0.86127  0.96456  0.65957  1.0000
  H   H2199     1.0  0.82179  0.92708  0.65270  1.0000
  H   H2200     1.0  0.86115  0.88574  0.64587  1.0000
  H   H2201     1.0  0.90049  0.92280  0.65368  1.0000
  C   C1829     1.0  0.70835  0.96162  0.58348  1.0000
  C   C1830     1.0  0.69698  0.93648  0.58696  1.0000
  C   C1831     1.0  0.71008  0.92645  0.59453  1.0000
  C   C1832     1.0  0.73487  0.94147  0.59866  1.0000
  C   C1833     1.0  0.74627  0.96657  0.59514  1.0000
  C   C1834     1.0  0.66111  0.96696  0.49073  1.0000
  H   H2202     1.0  0.70107  0.90706  0.59696  1.0000
  C   C1835     1.0  0.90078  0.96122  0.62189  1.0000
  H   H2203     1.0  0.91079  0.67310  0.50363  1.0000
  C   C1836     1.0  0.73275  0.64469  0.51258  1.0000
  H   H2204     1.0  0.95068  0.52482  0.64677  1.0000
  C   C1837     1.0  0.90608  0.56812  0.58400  1.0000
  C   C1838     1.0  0.89685  0.55551  0.59658  1.0000
  C   C1839     1.0  0.89584  0.53228  0.59887  1.0000
  C   C1840     1.0  0.90382  0.52107  0.58850  1.0000
  C   C1841     1.0  0.91316  0.53372  0.57596  1.0000
  C   C1842     1.0  0.91440  0.55709  0.57373  1.0000
  H   H2205     1.0  0.89043  0.56380  0.60465  1.0000
  H   H2206     1.0  0.88849  0.52287  0.60855  1.0000
  H   H2207     1.0  0.91940  0.52535  0.56783  1.0000
  H   H2208     1.0  0.92156  0.56642  0.56400  1.0000
  C   C1843     1.0  0.67817  0.66754  0.50023  1.0000
  C   C1844     1.0  0.77490  0.72336  0.52250  1.0000
  H   H2209     1.0  0.71545  0.68378  0.60063  1.0000
  C   C1845     1.0  0.97530  0.87314  0.62538  1.0000
  C   C1846     1.0  0.68708  0.69313  0.50235  1.0000
  C   C1847     1.0  0.79109  0.64691  0.55140  1.0000
  C   C1848     1.0  0.80375  0.63440  0.54621  1.0000
  C   C1849     1.0  0.82947  0.64436  0.54857  1.0000
  C   C1850     1.0  0.84289  0.66690  0.55634  1.0000
  C   C1851     1.0  0.83028  0.67962  0.56128  1.0000
  C   C1852     1.0  0.80458  0.66977  0.55881  1.0000
  H   H2210     1.0  0.79355  0.61677  0.54040  1.0000
  H   H2211     1.0  0.83884  0.63456  0.54438  1.0000
  H   H2212     1.0  0.84043  0.69714  0.56722  1.0000
  H   H2213     1.0  0.79518  0.67968  0.56283  1.0000
  C   C1853     1.0  0.72663  0.74462  0.58435  1.0000
  C   C1854     1.0  0.74399  0.76541  0.59255  1.0000
  C   C1855     1.0  0.73781  0.78322  0.59839  1.0000
  C   C1856     1.0  0.71404  0.78036  0.59616  1.0000
  C   C1857     1.0  0.69676  0.75974  0.58781  1.0000
  C   C1858     1.0  0.70300  0.74205  0.58187  1.0000
  H   H2214     1.0  0.76235  0.76770  0.59451  1.0000
  H   H2215     1.0  0.75131  0.79894  0.60478  1.0000
  H   H2216     1.0  0.67837  0.75742  0.58596  1.0000
  H   H2217     1.0  0.68955  0.72653  0.57536  1.0000
  H   H2218     1.0  0.83571  0.97853  0.59769  1.0000
  H   H2219     1.0  0.84385  0.91346  0.61510  1.0000
  H   H2220     1.0  0.82452  0.57193  0.58667  1.0000
  C   C1859     1.0  0.66476  0.84971  0.68440  1.0000
  H   H2221     1.0  0.81865  0.71435  0.54001  1.0000
  H   H2222     1.0  0.72206  0.65506  0.51178  1.0000
  H   H2223     1.0  0.66389  0.65789  0.58860  1.0000
  H   H2224     1.0  0.86269  0.63506  0.60413  1.0000
  C   C1860     1.0  0.67896  0.73657  0.62239  1.0000
  N   N124      1.0  0.82676  0.94720  0.61073  1.0000
  H   H2225     1.0  0.79888  0.67545  0.52633  1.0000
  H   H2226     1.0  0.69948  0.94009  0.65606  1.0000
  H   H2227     1.0  0.72174  0.62655  0.50669  1.0000
  C   C1861     1.0  0.82360  0.63854  0.59018  1.0000
  H   H2228     1.0  0.68370  0.81307  0.66647  1.0000
  H   H2229     1.0  0.97290  0.82951  0.61449  1.0000
  C   C1862     1.0  0.77114  0.68270  0.51530  1.0000
  H   H2230     1.0  0.80374  0.65936  0.59324  1.0000
  H   H2231     1.0  0.95439  0.51929  0.60818  1.0000
  H   H2232     1.0  0.70434  0.84269  0.72620  1.0000
  H   H2233     1.0  0.72412  0.93385  0.63754  1.0000
  C   C1863     1.0  0.79491  0.72820  0.53163  1.0000
  H   H2234     1.0  0.83658  0.59430  0.56418  1.0000
  C   C1864     1.0  0.85174  0.60949  0.57066  1.0000
  H   H2235     1.0  0.82986  0.98324  0.61606  1.0000
  C   C1865     1.0  0.66505  0.88767  0.63576  1.0000
  C   C1866     1.0  0.76999  0.64282  0.50793  1.0000
  C   C1867     1.0  0.80266  0.64195  0.58945  1.0000
  H   H2236     1.0  0.71360  0.96430  0.63641  1.0000
  C   C1868     1.0  0.72080  0.74354  0.62497  1.0000
  C   C1869     1.0  0.65738  0.80112  0.68319  1.0000
  H   H2237     1.0  0.97658  0.55756  0.59998  1.0000
  C   C1870     1.0  0.80331  0.71073  0.53271  1.0000
  C   C1871     1.0  0.66088  0.65954  0.61681  1.0000
  H   H2238     1.0  0.85723  0.62696  0.56504  1.0000
  H   H2239     1.0  0.66865  0.87527  0.64282  1.0000
  H   H2240     1.0  0.87313  0.65003  0.58746  1.0000
  H   H2241     1.0  0.69290  0.70161  0.51294  1.0000
  C   C1872     1.0  0.70057  0.67123  0.60753  1.0000
  H   H2242     1.0  0.70912  0.91000  0.62395  1.0000
  H   H2243     1.0  0.94190  0.60901  0.62107  1.0000
  H   H2244     1.0  0.85532  0.58558  0.59371  1.0000
  N   N125      1.0  0.68415  0.91402  0.63799  1.0000
  H   H2245     1.0  0.95750  0.61598  0.59683  1.0000
  H   H2246     1.0  0.79337  0.93393  0.62221  1.0000
  C   C1873     1.0  0.68408  0.92137  0.65314  1.0000
  H   H2247     1.0  0.67786  0.92467  0.58376  1.0000
  H   H2248     1.0  0.71162  0.90233  0.64199  1.0000
  H   H2249     1.0  0.93030  0.53584  0.64037  1.0000
  H   H2250     1.0  0.83223  0.58916  0.60347  1.0000
  C   C1874     1.0  0.91465  0.67571  0.49243  1.0000
  C   C1875     1.0  0.70827  0.91517  0.63526  1.0000
  C   C1876     1.0  0.83884  0.58864  0.59262  1.0000
  H   H2251     1.0  0.66651  0.92148  0.65556  1.0000
  S   S515      1.0  0.91156  0.97420  0.66125  1.0000
  H   H2252     1.0  0.86765  0.60555  0.57060  1.0000
  C   C1877     1.0  0.95050  0.57912  0.62467  1.0000
  H   H2253     1.0  0.79834  0.58072  0.57386  1.0000
  H   H2254     1.0  0.76544  0.97839  0.59822  1.0000
  C   C1878     1.0  0.73312  0.97662  0.58764  1.0000
  H   H2255     1.0  0.75988  0.62527  0.50135  1.0000
  C   C1879     1.0  0.77940  0.60160  0.57774  1.0000
  C   C1880     1.0  0.96021  0.56382  0.61902  1.0000
  H   H2256     1.0  0.97830  0.82126  0.63189  1.0000
  C   C1881     1.0  0.70348  0.75194  0.62659  1.0000
  H   H2257     1.0  0.81289  0.90991  0.60140  1.0000
  H   H2258     1.0  0.69582  0.86060  0.49241  1.0000
  C   C1882     1.0  0.82290  0.61618  0.58483  1.0000
  H   H2259     1.0  0.88248  0.62814  0.59336  1.0000
  H   H2260     1.0  0.80367  0.74533  0.53809  1.0000
  C   C1883     1.0  0.89594  0.98108  0.62017  1.0000
  H   H2261     1.0  0.96042  0.55728  0.64825  1.0000
  H   H2262     1.0  0.68624  0.90831  0.66040  1.0000
  C   C1884     1.0  0.97640  0.69376  0.50345  1.0000
  C   C1885     1.0  0.79169  0.68829  0.52470  1.0000
  C   C1886     1.0  0.82444  0.96949  0.60693  1.0000
  H   H2263     1.0  0.70343  0.81292  0.72693  1.0000
  C   C1887     1.0  0.69482  0.97331  0.62028  1.0000
  H   H2264     1.0  0.84024  0.65397  0.59464  1.0000
  H   H2265     1.0  0.74700  0.69768  0.50800  1.0000
  S   S516      1.0  0.69048  0.97336  0.57440  1.0000
  C   C1888     1.0  0.78064  0.62355  0.58324  1.0000
  C   C1889     1.0  0.68033  0.93117  0.62869  1.0000
  C   C1890     1.0  0.80014  0.59786  0.57853  1.0000
  H   H2266     1.0  0.96245  0.90651  0.65026  1.0000
  C   C1891     1.0  0.67389  0.81855  0.67397  1.0000
  C   C1892     1.0  0.96398  0.66794  0.50127  1.0000
  H   H2267     1.0  0.73366  0.64083  0.52401  1.0000
  H   H2268     1.0  0.76472  0.62668  0.58219  1.0000
  C   C1893     1.0  0.67060  0.67675  0.59368  1.0000
  C   C1894     1.0  0.88196  0.93704  0.61951  1.0000
  C   C1895     1.0  0.69755  0.95684  0.62925  1.0000
  H   H2269     1.0  0.80500  0.96468  0.60397  1.0000
  N   N126      1.0  0.96082  0.54347  0.62692  1.0000
  C   C1896     1.0  0.68878  0.70350  0.61477  1.0000
  H   H2270     1.0  0.69378  0.72727  0.49271  1.0000
  C   C1897     1.0  0.86661  0.63221  0.59295  1.0000
  C   C1898     1.0  0.97079  0.89601  0.64551  1.0000
  H   H2271     1.0  0.90488  0.63754  0.48806  1.0000
  N   N127      1.0  0.75775  0.65874  0.50706  1.0000
  C   C1899     1.0  0.68744  0.70763  0.49082  1.0000
  H   H2272     1.0  0.82111  0.95044  0.63295  1.0000
  H   H2273     1.0  0.94613  0.50382  0.62444  1.0000
  C   C1900     1.0  0.96690  0.65759  0.48833  1.0000
  C   C1901     1.0  0.69188  0.82244  0.72691  1.0000
  C   C1902     1.0  0.85809  0.93259  0.61573  1.0000
  C   C1903     1.0  0.66856  0.98464  0.50226  1.0000
  H   H2274     1.0  0.81165  0.91926  0.62633  1.0000
  C   C1904     1.0  0.81262  0.93728  0.62360  1.0000
  N   N128      1.0  0.84468  0.61188  0.58534  1.0000
  H   H2275     1.0  0.70925  0.77077  0.63059  1.0000
  H   H2276     1.0  0.68506  0.69014  0.58693  1.0000
  C   C1905     1.0  0.76309  0.70096  0.51447  1.0000
  H   H2277     1.0  0.69367  0.65208  0.60277  1.0000
  C   C1906     1.0  0.98002  0.49738  0.69616  1.0000
  H   H2278     1.0  0.95004  0.88847  0.62574  1.0000
  C   C1907     1.0  0.96397  0.88597  0.63167  1.0000
  H   H2279     1.0  0.65485  0.68086  0.59324  1.0000
  C   C1908     1.0  0.85250  0.95239  0.61376  1.0000
  H   H2280     1.0  0.82641  0.93442  0.58913  1.0000
  H   H2281     1.0  0.94299  0.57683  0.63510  1.0000
  H   H2282     1.0  0.72833  0.71495  0.61761  1.0000
  C   C1909     1.0  0.81525  0.92848  0.59876  1.0000
  H   H2283     1.0  0.92732  0.51597  0.61654  1.0000
  H   H2284     1.0  0.67311  0.97748  0.60339  1.0000
  Fe  Fe258     1.0  0.95086  0.98083  0.66615  1.0000
  H   H2285     1.0  0.70876  0.67159  0.61824  1.0000
  H   H2286     1.0  0.66475  0.88062  0.62467  1.0000
  H   H2287     1.0  0.97581  0.74520  0.58002  1.0000
  C   C1910     1.0  0.95870  0.60189  0.60307  1.0000
  C   C1911     1.0  0.71374  0.71978  0.61907  1.0000
  H   H2288     1.0  0.96940  0.86573  0.61462  1.0000
  C   C1912     1.0  0.75540  0.66315  0.49180  1.0000
  C   C1913     1.0  0.87222  0.97688  0.61611  1.0000
  H   H2289     1.0  0.92698  0.71489  0.49401  1.0000
  C   C1914     1.0  0.95008  0.54040  0.64118  1.0000
  H   H2290     1.0  0.66756  0.86856  0.68496  1.0000
  H   H2291     1.0  0.76805  0.73676  0.52194  1.0000
  H   H2292     1.0  0.74324  0.67176  0.48993  1.0000
  H   H2293     1.0  0.68015  0.81592  0.71689  1.0000
  C   C1915     1.0  0.94662  0.51967  0.61867  1.0000
  H   H2294     1.0  0.66730  0.66079  0.62810  1.0000
  H   H2295     1.0  0.67838  0.77816  0.48894  1.0000
  C   C1916     1.0  0.96922  0.56858  0.60507  1.0000
  H   H2296     1.0  0.97405  0.70201  0.51320  1.0000
  C   C1917     1.0  0.96834  0.58727  0.59724  1.0000
  H   H2297     1.0  0.65465  0.78228  0.68267  1.0000
  H   H2298     1.0  0.69555  0.82081  0.49090  1.0000
  H   H2299     1.0  0.94620  0.50758  0.73349  1.0000
  H   H2300     1.0  0.91893  0.96454  0.62560  1.0000
  H   H2301     1.0  0.77374  0.67556  0.48757  1.0000
  C   C1918     1.0  0.67474  0.96483  0.61066  1.0000
  H   H2302     1.0  0.66756  0.97878  0.51307  1.0000
  H   H2303     1.0  0.66580  0.74362  0.62324  1.0000
  C   C1919     1.0  0.92392  0.69922  0.48701  1.0000
  C   C1920     1.0  0.96785  0.98661  0.72821  1.0000
  H   H2304     1.0  0.95732  0.63767  0.48646  1.0000
  C   C1921     1.0  0.98505  0.97774  0.72764  1.0000
  C   C1922     1.0  0.65732  0.93985  0.60994  1.0000
  S   S517      1.0  0.65348  0.60672  0.58455  1.0000
  H   H2305     1.0  0.65503  0.64027  0.61251  1.0000
  H   H2306     1.0  0.65446  0.94760  0.49285  1.0000
  H   H2307     1.0  0.96026  0.98968  0.71844  1.0000
  H   H2308     1.0  0.65245  0.70165  0.61332  1.0000
  C   C1923     1.0  0.67064  0.65693  0.48634  1.0000
  Fe  Fe259     1.0  0.70105  0.68287  0.90909  1.0000
  S   S518      1.0  0.73361  0.69267  0.92414  1.0000
  S   S519      1.0  0.69239  0.70831  0.89533  1.0000
  Fe  Fe260     1.0  0.67503  0.62769  0.91683  1.0000
  S   S520      1.0  0.70584  0.63425  0.93269  1.0000
  H   H2309     1.0  0.96669  0.57368  0.85300  1.0000
  Fe  Fe261     1.0  0.70494  0.66947  0.93964  1.0000
  S   S521      1.0  0.70945  0.68204  0.96325  1.0000
  Fe  Fe262     1.0  0.73210  0.65671  0.91617  1.0000
  S   S522      1.0  0.76235  0.64754  0.90846  1.0000
  S   S523      1.0  0.67254  0.66146  0.92504  1.0000
  S   S524      1.0  0.70113  0.64838  0.89990  1.0000
  Fe  Fe263     1.0  0.90159  0.66521  0.92523  1.0000
  S   S525      1.0  0.90652  0.63428  0.93479  1.0000
  S   S526      1.0  0.87136  0.67463  0.93236  1.0000
  Fe  Fe264     1.0  0.94822  0.68196  0.90786  1.0000
  S   S527      1.0  0.95610  0.65210  0.91618  1.0000
  Fe  Fe265     1.0  0.91560  0.62638  0.91276  1.0000
  S   S528      1.0  0.89643  0.58681  0.90263  1.0000
  Fe  Fe266     1.0  0.94673  0.66209  0.93773  1.0000
  C   C1924     1.0  0.73883  0.99033  0.85829  1.0000
  S   S529      1.0  0.90795  0.65551  0.90307  1.0000
  S   S530      1.0  0.94167  0.69386  0.92954  1.0000
  C   C1925     1.0  0.70188  0.58617  0.90660  1.0000
  N   N129      1.0  0.69308  0.95072  0.93503  1.0000
  H   H2310     1.0  0.90385  0.94589  0.76109  1.0000
  H   H2311     1.0  0.73660  0.73108  0.94775  1.0000
  C   C1926     1.0  0.70701  0.85269  0.77485  1.0000
  C   C1927     1.0  0.81920  0.90732  0.78964  1.0000
  Fe  Fe267     1.0  0.94966  0.96189  0.81961  1.0000
  S   S531      1.0  0.91562  0.93032  0.82870  1.0000
  Fe  Fe268     1.0  0.72719  0.88392  0.85824  1.0000
  S   S532      1.0  0.73740  0.88812  0.83525  1.0000
  S   S533      1.0  0.70772  0.90520  0.86728  1.0000
  Fe  Fe269     1.0  0.74397  0.84417  0.86213  1.0000
  S   S534      1.0  0.75584  0.84625  0.83945  1.0000
  S   S535      1.0  0.75193  0.82214  0.87903  1.0000
  Fe  Fe270     1.0  0.77233  0.88763  0.84267  1.0000
  S   S536      1.0  0.80696  0.91811  0.83307  1.0000
  Fe  Fe271     1.0  0.72013  0.84659  0.83354  1.0000
  S   S537      1.0  0.69825  0.82184  0.81411  1.0000
  S   S538      1.0  0.76306  0.88602  0.86582  1.0000
  S   S539      1.0  0.70730  0.84194  0.85609  1.0000
  H   H2312     1.0  0.74244  0.74797  0.90335  1.0000
  H   H2313     1.0  0.73234  0.57405  0.88055  1.0000
  H   H2314     1.0  0.72303  0.61824  0.88713  1.0000
  C   C1928     1.0  0.83736  0.92168  0.83279  1.0000
  C   C1929     1.0  0.85600  0.94303  0.82696  1.0000
  C   C1930     1.0  0.88020  0.94633  0.82604  1.0000
  C   C1931     1.0  0.88595  0.92806  0.83070  1.0000
  C   C1932     1.0  0.86740  0.90688  0.83671  1.0000
  C   C1933     1.0  0.84327  0.90374  0.83784  1.0000
  H   H2315     1.0  0.85166  0.95705  0.82307  1.0000
  H   H2316     1.0  0.89441  0.96293  0.82172  1.0000
  H   H2317     1.0  0.87166  0.89268  0.84042  1.0000
  H   H2318     1.0  0.82917  0.88725  0.84238  1.0000
  C   C1934     1.0  0.69848  0.90485  0.90856  1.0000
  C   C1935     1.0  0.73797  0.74716  0.94177  1.0000
  H   H2319     1.0  0.66067  0.68043  0.96198  1.0000
  C   C1936     1.0  0.90092  0.53363  0.92634  1.0000
  H   H2320     1.0  0.95496  0.69163  0.97287  1.0000
  H   H2321     1.0  0.89825  0.62082  0.85818  1.0000
  C   C1937     1.0  0.94425  0.52988  0.92399  1.0000
  C   C1938     1.0  0.75016  0.96695  0.89278  1.0000
  C   C1939     1.0  0.74194  0.94433  0.88487  1.0000
  C   C1940     1.0  0.71853  0.93293  0.87813  1.0000
  C   C1941     1.0  0.70294  0.94372  0.88010  1.0000
  C   C1942     1.0  0.71097  0.96611  0.88826  1.0000
  H   H2322     1.0  0.66119  0.54656  0.90508  1.0000
  H   H2323     1.0  0.75366  0.93564  0.88406  1.0000
  H   H2324     1.0  0.68466  0.93488  0.87508  1.0000
  H   H2325     1.0  0.93473  0.59708  0.92484  1.0000
  H   H2326     1.0  0.67674  0.92314  0.90875  1.0000
  H   H2327     1.0  0.91099  0.93725  0.79874  1.0000
  C   C1943     1.0  0.77401  0.95815  0.83270  1.0000
  H   H2328     1.0  0.66782  0.78903  0.79114  1.0000
  H   H2329     1.0  0.73271  0.84762  0.78842  1.0000
  C   C1944     1.0  0.90614  0.56562  0.89539  1.0000
  C   C1945     1.0  0.93084  0.57072  0.89573  1.0000
  C   C1946     1.0  0.93739  0.55306  0.89007  1.0000
  C   C1947     1.0  0.91946  0.53013  0.88394  1.0000
  C   C1948     1.0  0.89479  0.52511  0.88353  1.0000
  C   C1949     1.0  0.88821  0.54272  0.88925  1.0000
  H   H2330     1.0  0.94492  0.58808  0.90044  1.0000
  H   H2331     1.0  0.95650  0.55711  0.89050  1.0000
  H   H2332     1.0  0.88077  0.50757  0.87890  1.0000
  H   H2333     1.0  0.86905  0.53850  0.88893  1.0000
  C   C1950     1.0  0.69119  0.68699  0.97619  1.0000
  C   C1951     1.0  0.67509  0.82278  0.80283  1.0000
  H   H2334     1.0  0.69068  0.89560  0.89827  1.0000
  C   C1952     1.0  0.66008  0.82850  0.73762  1.0000
  H   H2335     1.0  0.96737  0.63719  0.87874  1.0000
  H   H2336     1.0  0.94405  0.52293  0.74933  1.0000
  C   C1953     1.0  0.79260  0.65532  0.91537  1.0000
  C   C1954     1.0  0.80672  0.64633  0.90801  1.0000
  C   C1955     1.0  0.83072  0.65192  0.91302  1.0000
  C   C1956     1.0  0.84103  0.66667  0.92549  1.0000
  C   C1957     1.0  0.82687  0.67559  0.93286  1.0000
  C   C1958     1.0  0.80286  0.66997  0.92787  1.0000
  H   H2337     1.0  0.79911  0.63505  0.89832  1.0000
  H   H2338     1.0  0.84127  0.64491  0.90720  1.0000
  H   H2339     1.0  0.83455  0.68700  0.94251  1.0000
  H   H2340     1.0  0.79237  0.67707  0.93368  1.0000
  C   C1959     1.0  0.71021  0.73950  0.89017  1.0000
  C   C1960     1.0  0.69962  0.74920  0.88042  1.0000
  C   C1961     1.0  0.71239  0.77415  0.87653  1.0000
  C   C1962     1.0  0.73590  0.78989  0.88249  1.0000
  C   C1963     1.0  0.74661  0.78013  0.89214  1.0000
  C   C1964     1.0  0.73395  0.75508  0.89589  1.0000
  H   H2341     1.0  0.68129  0.73737  0.87590  1.0000
  H   H2342     1.0  0.70385  0.78131  0.86912  1.0000
  H   H2343     1.0  0.76475  0.79212  0.89683  1.0000
  H   H2344     1.0  0.96350  0.78291  0.86810  1.0000
  C   C1965     1.0  0.96756  0.68817  0.97946  1.0000
  H   H2345     1.0  0.75459  0.83131  0.92863  1.0000
  C   C1966     1.0  0.71688  0.90127  0.91525  1.0000
  C   C1967     1.0  0.72288  0.80840  0.91517  1.0000
  H   H2346     1.0  0.68550  0.58923  0.90745  1.0000
  H   H2347     1.0  0.74275  0.74492  0.93066  1.0000
  H   H2348     1.0  0.69308  0.75577  0.95732  1.0000
  C   C1968     1.0  0.65714  0.60995  0.95639  1.0000
  H   H2349     1.0  0.66234  0.52040  0.85492  1.0000
  C   C1969     1.0  0.67461  0.95426  0.92634  1.0000
  C   C1970     1.0  0.81730  0.88989  0.79942  1.0000
  H   H2350     1.0  0.89194  0.57396  0.93246  1.0000
  C   C1971     1.0  0.90099  0.51413  0.91823  1.0000
  H   H2351     1.0  0.90515  0.91464  0.78436  1.0000
  H   H2352     1.0  0.69901  0.97449  0.88937  1.0000
  H   H2353     1.0  0.74924  0.79811  0.94435  1.0000
  C   C1972     1.0  0.71927  0.92910  0.93477  1.0000
  H   H2354     1.0  0.78552  0.95422  0.86776  1.0000
  C   C1973     1.0  0.66282  0.54148  0.89422  1.0000
  C   C1974     1.0  0.69282  0.82686  0.75269  1.0000
  H   H2355     1.0  0.71075  0.80368  0.74954  1.0000
  C   C1975     1.0  0.66269  0.52621  0.86595  1.0000
  H   H2356     1.0  0.92056  0.55486  0.96201  1.0000
  H   H2357     1.0  0.69699  0.71902  0.92610  1.0000
  S   S540      1.0  0.92891  0.50833  0.87742  1.0000
  H   H2358     1.0  0.94999  0.65237  0.88380  1.0000
  C   C1976     1.0  0.83791  0.88721  0.80314  1.0000
  C   C1977     1.0  0.88583  0.93378  0.76585  1.0000
  C   C1978     1.0  0.97747  0.67336  0.97404  1.0000
  C   C1979     1.0  0.90605  0.55743  0.85447  1.0000
  C   C1980     1.0  0.77818  0.94742  0.85670  1.0000
  C   C1981     1.0  0.66796  0.68481  0.97282  1.0000
  C   C1982     1.0  0.90782  0.58028  0.85890  1.0000
  C   C1983     1.0  0.77464  0.98434  0.85294  1.0000
  C   C1984     1.0  0.96987  0.78398  0.87901  1.0000
  H   H2359     1.0  0.66287  0.59942  0.96369  1.0000
  H   H2360     1.0  0.65726  0.93658  0.92441  1.0000
  H   H2361     1.0  0.83643  0.87393  0.81097  1.0000
  C   C1985     1.0  0.71671  0.76918  0.93288  1.0000
  C   C1986     1.0  0.71023  0.75396  0.95678  1.0000
  C   C1987     1.0  0.92259  0.51230  0.91701  1.0000
  H   H2362     1.0  0.93239  0.51625  0.79673  1.0000
  H   H2363     1.0  0.70817  0.73873  0.96380  1.0000
  H   H2364     1.0  0.72323  0.88926  0.91017  1.0000
  H   H2365     1.0  0.69102  0.78120  0.90325  1.0000
  H   H2366     1.0  0.78265  0.94747  0.82778  1.0000
  C   C1988     1.0  0.97093  0.49386  0.81183  1.0000
  H   H2367     1.0  0.80310  0.90941  0.78687  1.0000
  H   H2368     1.0  0.72425  0.98295  0.92776  1.0000
  N   N130      1.0  0.70471  0.57938  0.89174  1.0000
  C   C1989     1.0  0.66009  0.97777  0.97897  1.0000
  N   N131      1.0  0.93383  0.62625  0.86593  1.0000
  C   C1990     1.0  0.73915  0.81293  0.92674  1.0000
  C   C1991     1.0  0.89352  0.96362  0.78518  1.0000
  C   C1992     1.0  0.73603  0.79372  0.93558  1.0000
  H   H2369     1.0  0.74156  0.91046  0.93352  1.0000
  H   H2370     1.0  0.72781  0.93798  0.94494  1.0000
  C   C1993     1.0  0.70088  0.93359  0.92810  1.0000
  N   N132      1.0  0.71470  0.74889  0.94192  1.0000
  C   C1994     1.0  0.68352  0.55608  0.88605  1.0000
  H   H2371     1.0  0.93240  0.58799  0.96396  1.0000
  H   H2372     1.0  0.84239  0.93565  0.77621  1.0000
  H   H2373     1.0  0.91268  0.64491  0.87171  1.0000
  H   H2374     1.0  0.70557  0.86575  0.78232  1.0000
  H   H2375     1.0  0.81878  0.96904  0.84119  1.0000
  H   H2376     1.0  0.89951  0.61339  0.87659  1.0000
  C   C1995     1.0  0.70933  0.81748  0.75632  1.0000
  H   H2377     1.0  0.96609  0.64776  0.85388  1.0000
  H   H2378     1.0  0.89066  0.58040  0.86086  1.0000
  H   H2379     1.0  0.97064  0.61415  0.86026  1.0000
  C   C1996     1.0  0.95657  0.76349  0.88722  1.0000
  C   C1997     1.0  0.73485  0.97811  0.89441  1.0000
  N   N133      1.0  0.67669  0.81731  0.73964  1.0000
  H   H2380     1.0  0.67542  0.95320  0.95412  1.0000
  H   H2381     1.0  0.95061  0.52409  0.77345  1.0000
  C   C1998     1.0  0.95030  0.57576  0.85441  1.0000
  H   H2382     1.0  0.87603  0.89985  0.80130  1.0000
  H   H2383     1.0  0.75789  0.93564  0.85710  1.0000
  C   C1999     1.0  0.89912  0.57235  0.94314  1.0000
  H   H2384     1.0  0.92579  0.94661  0.78225  1.0000
  H   H2385     1.0  0.72587  0.56118  0.89783  1.0000
  H   H2386     1.0  0.72560  0.77130  0.96158  1.0000
  N   N134      1.0  0.78471  0.96829  0.84721  1.0000
  H   H2387     1.0  0.69061  0.60202  0.88227  1.0000
  H   H2388     1.0  0.88372  0.53435  0.92633  1.0000
  H   H2389     1.0  0.98433  0.50968  0.74436  1.0000
  H   H2390     1.0  0.74379  0.59413  0.89609  1.0000
  C   C2000     1.0  0.70015  0.76532  0.92112  1.0000
  H   H2391     1.0  0.69809  0.55756  0.86495  1.0000
  H   H2392     1.0  0.88027  0.96897  0.78023  1.0000
  C   C2001     1.0  0.90997  0.62621  0.86815  1.0000
  H   H2393     1.0  0.70034  0.57179  0.91407  1.0000
  H   H2394     1.0  0.89379  0.96685  0.79689  1.0000
  C   C2002     1.0  0.70780  0.60021  0.88282  1.0000
  H   H2395     1.0  0.95982  0.59945  0.93600  1.0000
  H   H2396     1.0  0.71255  0.59799  0.87176  1.0000
  C   C2003     1.0  0.69441  0.72419  0.93715  1.0000
  C   C2004     1.0  0.94438  0.54934  0.93224  1.0000
  C   C2005     1.0  0.93113  0.60176  0.86112  1.0000
  H   H2397     1.0  0.79995  0.87878  0.80438  1.0000
  C   C2006     1.0  0.90812  0.93372  0.78700  1.0000
  C   C2007     1.0  0.72761  0.57699  0.89150  1.0000
  H   H2398     1.0  0.71803  0.60373  0.91058  1.0000
  C   C2008     1.0  0.72370  0.82509  0.76900  1.0000
  C   C2009     1.0  0.84182  0.92234  0.78369  1.0000
  C   C2010     1.0  0.86070  0.90235  0.79742  1.0000
  H   H2399     1.0  0.88816  0.54111  0.85320  1.0000
  H   H2400     1.0  0.66606  0.92210  0.94729  1.0000
  H   H2401     1.0  0.88439  0.50081  0.91238  1.0000
  C   C2011     1.0  0.93238  0.57280  0.95709  1.0000
  H   H2402     1.0  0.77654  0.97325  0.82554  1.0000
  C   C2012     1.0  0.81197  0.98129  0.84625  1.0000
  H   H2403     1.0  0.67790  0.85662  0.81209  1.0000
  S   S541      1.0  0.96814  0.95319  0.80142  1.0000
  H   H2404     1.0  0.72852  0.97525  0.94545  1.0000
  S   S542      1.0  0.97157  0.66114  0.95607  1.0000
  N   N135      1.0  0.92347  0.57288  0.94232  1.0000
  H   H2405     1.0  0.67993  0.85278  0.76075  1.0000
  H   H2406     1.0  0.69545  0.93983  0.95646  1.0000
  H   H2407     1.0  0.66863  0.62829  0.98163  1.0000
  C   C2013     1.0  0.66898  0.84210  0.80388  1.0000
  H   H2408     1.0  0.73546  0.81699  0.77185  1.0000
  C   C2014     1.0  0.71472  0.97551  0.93777  1.0000
  H   H2409     1.0  0.88066  0.91420  0.76269  1.0000
  H   H2410     1.0  0.88528  0.55506  0.94786  1.0000
  H   H2411     1.0  0.67611  0.72365  0.93755  1.0000
  H   H2412     1.0  0.87207  0.93829  0.76074  1.0000
  H   H2413     1.0  0.93929  0.62048  0.88781  1.0000
  C   C2015     1.0  0.92269  0.55182  0.93370  1.0000
  C   C2016     1.0  0.69227  0.84496  0.76232  1.0000
  C   C2017     1.0  0.72239  0.84252  0.77830  1.0000
  H   H2414     1.0  0.66931  0.96742  0.93177  1.0000
  H   H2415     1.0  0.73598  0.95749  0.84829  1.0000
  C   C2018     1.0  0.94828  0.63438  0.87963  1.0000
  H   H2416     1.0  0.71902  0.98318  0.85811  1.0000
  H   H2417     1.0  0.68206  0.96218  0.91594  1.0000
  C   C2019     1.0  0.72720  0.91329  0.92836  1.0000
  H   H2418     1.0  0.76856  0.97592  0.89763  1.0000
  C   C2020     1.0  0.92721  0.55514  0.85232  1.0000
  H   H2419     1.0  0.67114  0.62992  0.95732  1.0000
  C   C2021     1.0  0.86338  0.92057  0.78754  1.0000
  H   H2420     1.0  0.96172  0.56268  0.93728  1.0000
  H   H2421     1.0  0.94070  0.74722  0.88258  1.0000
  N   N136      1.0  0.88733  0.93749  0.78156  1.0000
  H   H2422     1.0  0.75386  0.76382  0.94678  1.0000
  C   C2022     1.0  0.68299  0.54753  0.87178  1.0000
  H   H2423     1.0  0.72587  0.82301  0.90796  1.0000
  C   C2023     1.0  0.92939  0.50077  0.78960  1.0000
  H   H2424     1.0  0.69359  0.70934  0.94403  1.0000
  C   C2024     1.0  0.94060  0.59653  0.93603  1.0000
  H   H2425     1.0  0.90024  0.58816  0.94989  1.0000
  C   C2025     1.0  0.97525  0.50525  0.75472  1.0000
  C   C2026     1.0  0.69060  0.92083  0.91478  1.0000
  H   H2426     1.0  0.78586  0.93509  0.85312  1.0000
  C   C2027     1.0  0.65398  0.68818  0.98357  1.0000
  H   H2427     1.0  0.75405  0.94476  0.83269  1.0000
  H   H2428     1.0  0.95163  0.57575  0.95763  1.0000
  H   H2429     1.0  0.97326  0.82286  0.86328  1.0000
  H   H2430     1.0  0.91202  0.97687  0.78148  1.0000
  H   H2431     1.0  0.68518  0.74729  0.91794  1.0000
  C   C2028     1.0  0.94707  0.64492  0.85527  1.0000
  H   H2432     1.0  0.94132  0.61281  0.94206  1.0000
  C   C2029     1.0  0.66096  0.79010  0.74026  1.0000
  C   C2030     1.0  0.68205  0.94099  0.94881  1.0000
  C   C2031     1.0  0.70324  0.78476  0.91251  1.0000
  H   H2433     1.0  0.93712  0.63921  0.84469  1.0000
  H   H2434     1.0  0.94899  0.66348  0.85852  1.0000
  H   H2435     1.0  0.96110  0.52859  0.92274  1.0000
  H   H2436     1.0  0.65793  0.60322  0.94539  1.0000
  C   C2032     1.0  0.66323  0.80405  0.79206  1.0000
  C   C2033     1.0  0.95231  0.59878  0.85866  1.0000
  S   S543      1.0  0.96863  0.70471  0.88901  1.0000
  C   C2034     1.0  0.74882  0.97586  0.85252  1.0000
  H   H2437     1.0  0.96417  0.49958  0.82097  1.0000
  H   H2438     1.0  0.98098  0.52330  0.76055  1.0000
  H   H2439     1.0  0.82149  0.98678  0.85694  1.0000
  H   H2440     1.0  0.92269  0.49764  0.91025  1.0000
  H   H2441     1.0  0.95361  0.74755  0.90759  1.0000
  C   C2035     1.0  0.96382  0.76364  0.90135  1.0000
  H   H2442     1.0  0.67178  0.77982  0.74029  1.0000
  H   H2443     1.0  0.92571  0.53712  0.84947  1.0000
  C   C2036     1.0  0.93868  0.50429  0.74436  1.0000
  H   H2444     1.0  0.70929  0.98917  0.94233  1.0000
  C   C2037     1.0  0.93979  0.50503  0.77625  1.0000
  C   C2038     1.0  0.96015  0.99115  0.74145  1.0000
  Fe  Fe272     1.0  0.97242  0.98886  0.79270  1.0000
  H   H2445     1.0  0.98321  0.49523  0.76081  1.0000
  H   H2446     1.0  0.91822  0.49413  0.74317  1.0000
  C   C2039     1.0  0.96966  0.98704  0.75424  1.0000
  H   H2447     1.0  0.98032  0.84183  0.87939  1.0000
  C   C2040     1.0  0.98450  0.78422  0.90731  1.0000
  H   H2448     1.0  0.67057  0.84894  0.73667  1.0000
  S   S544      1.0  0.98516  0.98311  0.83264  1.0000
