data_image0
_chemical_formula_structural       FeS2FeS2FeSFeS3HFeS2HCSFeSC2SCHFeSFeHCS2FeSCSH3CFeCH5C2HCH2C6SH3C6H4CHCHCH2C7H4C6H4C6H4C6H3CNC8NH15CHC2H3FeH2CH3S2C7H4SHSCSHCHNHCH2CFeHCHCH3C2SC2H5NC4SCHC2H9CH3CNHCHSH2CFeHCHC2NHNH3C2H6CH3C2HCHCHC2H2CHC2H3CHC3FeCH2C2HCH3CHFeSFeS2CSH3C2SCSCHCFeS2FeS2FeS2FeCSC4HCHCH2C2H2C2H2C7H4CHC3H2C2H3CH4CHC4H2CH2CHCH2CH4CFeS2C2FeH2CHCH4CSH2SHSH3CHCSHC3HC2HCNHNHC3H2C2FeCH2SCHSCHNCH3CFeHCHCHFeSH2SHCNH2CHCH8SH7CHCNC2HC2SCH3CH2FeSFeHNC9H4CH9CH3C3H2C2HSFeH2CH2CHCH2CSH3SH2C3H6CHC2HCHSHCHC2HSHFeS2FeS2FeSFeS3FeS2FeS2FeSFeS3HSHCSCFeSFeS2C2SC6H4FeC6H2CSC2H3C6H5C6H3C6H4CHC4H4CH2C3HC3H4CHC3H4CH6C2HC5HSHCHCH3CHC2H6CHCH3CNCH3CHCFeH2CHCFeH4CH3C2H3C2HCHCFeC2H3CNH2N2C9H14NHCHC6H5CSCHCHNC6H13NC8H2CNFeHCHCH6CHCH8CH3FeSFeS2HFeS3FeS2FeS2FeSFeS3FeS2HCFeSFeS3CFeNSCNHS2FeS2FeS2FeSFeS3FeS2HSFeSFeS3CH5C6H3C7H4C6HNH2C6H8C6H4C6H5C2H2C7H5CHC8H4CHCFeHCHC3H4CSHNH2NHC4HCSH3SC3NH2C6HC2HCHFeH3C4SFeCHNHCHSH4CHCH3C3H3CH2C2FeHCNC3H9CHNC9H14C2H3C4H9C3HCFeC2H3C2H2CH5CSHCH3C2H4C2H9CHCH2CH3CNC2H3CH7CH2CH2C2H2C2H2CH2SHCH6CHC2HSHSCSCH2CHCHFeS2C2FeSHSH2CSFeHSHCHCH4FeS2FeS2FeSFeS3HSCFeS2FeS2HSHFeS2FeS2FeHFeHS2H2SC6H4C6H2NHC2H2C2HCHC7H4C6H4C6H2CH2FeC6H4C2H4CHNCHNHCH2CHCHNH8CSC2HCH5C4H2CH2SC2HC4H2C4H4CH2CH2C2FeH3CH2C2HC2H4CH2C3HCHCH2SH2C2HCHCH3C2NC6NHCH3CH4C2H4SH2NHSH3CH5CNSCHC3H2SH2C2H2C2H3CHNC9H3C2HCSCNH3C2HFeH2FeSHCFeHC2H4CH2FeHC3SHCH2C2H3CH2CH3C2SCFeC4NHCH5SHCHCFeS2H2SC2HC2HFeHFeH2CSHSHSH3C7H3NCHCHC7H2CH2CHSC3H3C3H2CH2C2HSH5CHCFeHC3NH4C6HCH3C4H2S2CNH2C3SH3CH2CNH3C4HCHCHCSFeCNH3CH3SH7CHSCH2CH2FeCH2C3HCH2C2H8C3HCHC5HCFeH5CHCHSNHFeS2FeS2FeSFeS3CFeS2FeSHSH2FeS2FeCFeS3HSH2FeSHNCHFeS2H2FeSHSH3SHSHFeH2FeHSCSHS3CFeC2H2CHC2HC2H2CH2CH2C4NH3CH3C9H4C6H5CH5C6HC2HC7H3C6H9CHNC2NH3C2H3C2HCHC4H5CSH3FeH2NC3H2CHCSFeHCSCFeH4CH3NCH3C3HSHCSHCFeHCH3SCHFeC3NC2HC2H2CSH5CH2CHCH3CH4C2HC2NCHC2H2SH4NCHCH2FeC3H2C2H3SC4S2C3H3C2H3CH2SFeC2NFeH3CHSCH2C2H2C3HCH2CHSFeS2FeSHFeSCSFeS2FeS2FeSFeS3CHFeSCFeS4FeS2CHFeCSCFeS2CHC2HNC6H3C6H4C6H4C7H4C6H4CHNHC4HC8H7CHCH3CHC3H2C2HCH3CHCH6NC9H16CH3FeNC2HC4NH4C3H10CHCH2C2HCHCHNH3C3SH4CHNC2SHS2H3C2H4CHCH3SFeH3C3SH2CH2SH2C2H2NCH2CHFeCH2CH3CFeCSCH2SH6FeCHFeH2FeHFeS2FeS3HSFeSHFeS2FeSFeS4CH2S2CSFeS2FeS2FeSFeS2H3C6H5SHCSC4H3C6H4C6H6C5H5C6H3C6H4CH2CH3NH2FeC5SCFeSH2C3HCHCH2NHCH2SH4SHCHSNH2C2HNC9H14NC8SH11C2H2C2SHCH2FeC2SHCHNHSH3C2NHCHCH2CHNCH2C2H2C2H2SC2FeC2FeH2FeCH2CFeHCHC2HSHC2FeH2CHCHSH4CH5C2H2FeHSH2CH3CHCHCH2NC3H4CH4C4HS2FeSFeSHFeS2FeS2FeSFeS4CHFe2S2FeS2FeSFeS3HSHCSCSCHC7H4C6H4C6H4C6H5C3H2C6H4C6H3C7H3NC9H14CHCH2C2H3C2HCH6CH2CH2CH3CHCHC3HC5HC2H2CH4NC7SCH7SH2CH2CH2CHC2HC3SHCHC2HSHC2SCHNC9H14NCHCFeH4FeH3CHCH2C3H2C2H4SFeH2NHCHFeN2CSH2C2H2NCH3CH3CH3SCHSHFeS2FeS2FeS2FeSFeS3C2FeS2FeS2FeSFeS3CHFeS2C6H3SC6H4C6H4C6H4C6H3C2HC2HC6H4C7H5CHCH3CH3CHCH2FeC2H2C2H2CH3CHCHCSCHC2HSHC2H3CHC2HCHCHCHFeHCH2C2HNSCHNHSHCH2CHCH6C3H2CH5C2H2CH4NH10C2SCH3NHCHCH3NC9H8SH4CHCH4CFeCH3C2H5SFeSFeC2SCSCFeS2FeHSFeS2FeS2FeSFeS4HSCS2HSC2FeSHFeSFeSCSC7H4C6H4C5H3C6SHCH2C6H5SCHC6H3C2H2NHC3H3CH3C2HNCH3CH2CHFeH2CHN2C9H20C2H4CH3CHC2H2C2NSCSC2SHFeH5CHS2HCHNC9H14NH3NH3C3HC3H2FeC5FeNCHSHFeHCHCHC2HFeH3NC9H11CSFeH3CSH2SH2C4HC2SCH2C3HC2H9SCHC7NCH2CH6C2H5FeSCHFeCH4CHCSCH2CH2SFeSCSHFeSFeSCSC2SFeS4FeS2FeS2FeSFeS3FeSCFeS2FeSFeHSH2C6H4C3HC6HCH5C2H4C6H3C5HC3H2C6HCH2C7HSHC4H3FeHC2H8CHNC6HC2H17C2H5CHC4HFeH4SNSCNC2SC3H3CHCNC9H15N3HCHC2HCH2S2CH2FeH2C3H2C2HNC9H13FeHCSCH3CS2H3CHCHSCH3C3H4CH2CH2FeH2C4FeH2C3H4CSC2HCHC2H2SHCSH2C2H2CH3CH3SCH2CHCH3C4H2CFeS2FeS2FeSFeS4HSCHSCFeSFeSH2FeS2FeS2FeSFeS3H3FeSC7H2SHC6HCH2C6H4C6H4C6H4C6H8C4H2C6H2CH2N2HCHCHCH2CHCHC3HFeH4CSC3HCH2SCH4CH2CHCH2C2HFeHCH2CH2CFeCH4SH3CNC9H16C5HSH4C2H2C2HC4H3CHCHC2H3NC7H12NC6SHC4H2CHCH4NHSC2H3CH2CNHCH2SCSFeHCSH2CFeSCFeHCSCFeSFeS2FeS2FeSFeS3HSHFeS2FeS2FeSFeS4C6H4C6H4C6H4C6H4C6H4SC6H4C7H5NC2H6NC9H14CHC2HSHC2HCHC2NC2HSC2H3C2HC2H4C5H3SCNHC2HCHSH2CH2C2H3NCNHCH5CHNSHCHC2H4SH2CNFeH2CH3C2H3NC9H14CH3FeCHCFeCH2CH8C3HCHCH2SH8CFeHC2H3C2HNFeS2HSFeSFeHSH2CFeS2FeSFeSFeS4HSFeCHCSHFeCS2HFeSFeS2FeSFeS3H2C2HC3H4C6H2NHC6H4C6H5CH2C2HCHNC6H4C6H5C6H4CHCSH5CNHC2H2C2H4FeH2CH5SH2CHCSC3H3CSH4SH4CH3CH3CH2CHFeH3CFeCHCH4SHSCSH3CH8FeCNC9H14CHC3H2CHNHSNC9H12NC9H2CH4NC5HC3HSH2NC2HCH7SC2SH3CHC2HFeS2FeS2FeSFeS3FeS2FeS2FeS2H3CHCS2FeSFeS5H2FeNSFeH2CH2S2HCFeH3CHCH2CNFeC3HSC6H4C6H4C6H4C6H4C6H4C6H4CH2CH2CH2CH3CHCHNC9H8C2HCH2C7H7NHNC4H3C5H3FeHC2H4CH3FeH2CHCS2CH2NC2H2NH11C2HCH3CH2C2HCHC2HCH2C3HCSNH2C2H2CH3CFeC2H2C3H3CH7CSCHCHSHFeHFeS2C2HSFeS2FeS2FeSFeS3FeS2FeHSHSFeSHCHSHC2FeS2C2FeCFeSCSC2FeH3C2H3CH2C2HFeCH2NC3SC4H4C6H2CHC6H4C6H4C4H4C6H4C6H4SH2C2H3CFeHCH2SCH4SH2NSC3H2CHCH3NHC2H4CS2HCH2C3SC2HCNC6NCH3CH2CH3FeH3NCH2CHCH3CHFeH2C2HSH2SHCHNC5HCHCH12CHC4NC2HFeH6CHC3HCHCSCHFeH2CH2CH2FeSHCH2CH3CH3C2HSHCH2SHCHCH2C2HSHS2CSHCHCSHSHFeSFeS3CH2FeSHC2HSFeC2HCHS4HSCFeH2SHCHSC2SCHCH2FeHCH3CH2C2SFeC4HC6H3CSC2FeC9H4C2H2CSC7FeHCHCHCH3CHCFeH2CH2SHCHCHSH7CH4S2CHCHSFeCH3C4H2FeH3CNH4CH5NC9H18CH2NH3CH5FeHSHSHCSHCHSH2CH2C3H2SH2CH2C6H2FeSFeS2FeHNCSFeS2FeS2FeSFeCS2H2FeS2HSCH2FeS2FeS2CFeHS2H2C2H3C6HSH2C6H4C6H4C6H4C6H4C3HFeHCFeSH2CH2C2SH7CHCH2C2HC3H3CH2C2H2CFeC2H3SHFeCHNHCH5C3H2CH2CH2C2H3C2HSHNC6H8C2H5CHC2HC3HC2HC2HCHS2N2H4C4H3CH2CH4SH2NH4CH2CHC2NHSCH2CHSCH3CFeHCHC2FeCH3CHCNCHC3HSHSH2C2H2CH4CHSC2NCHCHCHFeH2CH2CH2SHNCHC2NFeS2FeS2FeSFeS3FeS2CS2CH2CFeS2FeS2H2SHFeS2FeS2FeSFeS3FeS2HCFeSFeCS2CSFeS2FeSFeS2HC6H4C6H4C6H4C6H5CHNFeCH2C2HCHC6H4CHCH2C6H4C6H4C6H4CHCNC6HFeNH11CSH5NH2CFeHSCH2CH5CH2CH2NC9H2C2H13C2H2C2H3C2H3C3HCHCH2CHCHCHC2H3CH2SH8SC2H3C5HC2H4NH6NHC4HCH2CH2C2H2C2HCHCHC2H2CHC2H3NC8H4SCH4CHFeH2CH3C3HCH2C2H3CHCSHNCHC2H3CH2CHSH4NCH2CH2C3HSC2FeHC2NC4SNS2H7SH3SHFeS2FeS2FeSFeS3H2FeCS2FeS2H3FeS2FeS2FeSFeS3C2H2C2HC2HC6H4C6H4C6H4C6H5C2H4CH4NCH2C6H4C6H4C3H4NC9H14NC6HCH13NC3H7CNC9H2C2HC2HCH2CHCH3C3H2SCH2C2NHCHC2H2CHC5HNCHSCHC3HC2HCHCH2C3HCH3CHC2H5C2H2CFeHCHCFeHSFeCH4NH2CH3C2HC2HC2FeCH2S2HSFeCHC2HCHFeH2C2H2SC2FeH3C2HNSHCH3CHC2HFeS2FeS2FeSHFeS2CH7CH2Fe2H2CH2CHC2HC2SH2C4H2CNH3CH4SC3HCH2SH3CSCNHC6H3CH2CSCHCH6C2FeH3C2HCNHCH3CHCNH2CH2S2HCHNCHC7HC2H2C2H3CH2C3H3C2HC2H4CHCH2C3NFeH2C2H2C3H3CHC2HSCHS2FeC2HCSNHCSCH2CH3CH2SC2NH4CHCSHC2H3C4HSHCH2C7H2FeSC4HCHSCNCFeHC2HC4HCHCH3FeHSFeHSH4S3FeHSFeHCFeSHCH2FeS2FeS2FeSFeS3H2SH2FeSCNHS2H3CHC2H3C6H4C6H3C7H5CHFeC6HCH5CHC7HCH2C6H4SH2NH3C5H2CSHSCHCHC3HCHCSHC3FeH2CHCHCFeHC2N2C3H8C2H2CH2C2SCH3NHCH2FeC2HCH3CHCSHCHC2SCH9SHSCH2CHCHSH2CHCH4FeCH4CHCNSH2SHSH5CH2CHC2HC2FeNC2HC3HCHCH
_chemical_formula_sum              "Fe400 S800 H3600 C3000 N200"
_cell_length_a       82.185
_cell_length_b       80.8876
_cell_length_c       60.1561
_cell_angle_alpha    79.7777
_cell_angle_beta     79.7126
_cell_angle_gamma    102.957

_space_group_name_H-M_alt    "P 1"
_space_group_IT_number       1

loop_
  _space_group_symop_operation_xyz
  'x, y, z'

loop_
  _atom_site_type_symbol
  _atom_site_label
  _atom_site_symmetry_multiplicity
  _atom_site_fract_x
  _atom_site_fract_y
  _atom_site_fract_z
  _atom_site_occupancy
  Fe  Fe1       1.0  0.11817  0.11134  0.36011  1.0000
  S   S1        1.0  0.13393  0.11670  0.32379  1.0000
  S   S2        1.0  0.11851  0.09196  0.39208  1.0000
  Fe  Fe2       1.0  0.10113  0.14023  0.34862  1.0000
  S   S3        1.0  0.11562  0.14830  0.31137  1.0000
  S   S4        1.0  0.08209  0.15468  0.36157  1.0000
  Fe  Fe3       1.0  0.10980  0.11959  0.31286  1.0000
  S   S5        1.0  0.10162  0.11075  0.28201  1.0000
  Fe  Fe4       1.0  0.13888  0.14518  0.32472  1.0000
  S   S6        1.0  0.16617  0.16094  0.30574  1.0000
  S   S7        1.0  0.09354  0.11172  0.34904  1.0000
  S   S8        1.0  0.12487  0.13954  0.36212  1.0000
  H   H1        1.0  0.20078  0.28681  0.99456  1.0000
  Fe  Fe5       1.0  0.98846  0.01355  0.09125  1.0000
  S   S9        1.0  0.11186  0.01162  0.39641  1.0000
  S   S10       1.0  0.01627  0.11041  0.43842  1.0000
  H   H2        1.0  0.01332  0.09839  0.39305  1.0000
  C   C1        1.0  0.98736  0.02495  0.16872  1.0000
  S   S11       1.0  0.12653  0.12197  0.99612  1.0000
  Fe  Fe6       1.0  0.10017  0.12506  0.99454  1.0000
  S   S12       1.0  0.07578  0.11385  0.02254  1.0000
  C   C2        1.0  0.00576  0.00992  0.14917  1.0000
  C   C3        1.0  0.03610  0.08866  0.33323  1.0000
  S   S13       1.0  0.01935  0.04526  0.25335  1.0000
  C   C4        1.0  0.07373  0.01739  0.34900  1.0000
  H   H3        1.0  0.08231  0.10036  0.40657  1.0000
  Fe  Fe7       1.0  0.02642  0.03102  0.28437  1.0000
  S   S14       1.0  0.04867  0.03666  0.30197  1.0000
  Fe  Fe8       1.0  0.00963  0.01863  0.24631  1.0000
  H   H4        1.0  0.03228  0.07315  0.30803  1.0000
  C   C5        1.0  0.02887  0.09813  0.34778  1.0000
  S   S15       1.0  0.04128  0.03511  0.02443  1.0000
  S   S16       1.0  0.20917  0.23842  0.30044  1.0000
  Fe  Fe9       1.0  0.21931  0.22724  0.04868  1.0000
  S   S17       1.0  0.19469  0.20721  0.04815  1.0000
  C   C6        1.0  0.02601  0.22829  0.46077  1.0000
  S   S18       1.0  0.21779  0.24865  0.06789  1.0000
  H   H5        1.0  0.07853  0.09580  0.25569  1.0000
  H   H6        1.0  0.98955  0.11993  0.34126  1.0000
  H   H7        1.0  0.22337  0.26828  0.19890  1.0000
  C   C7        1.0  0.00140  0.10057  0.38824  1.0000
  Fe  Fe10      1.0  0.13624  0.14961  0.97443  1.0000
  C   C8        1.0  0.20065  0.25936  0.23904  1.0000
  H   H8        1.0  0.18724  0.17659  0.17225  1.0000
  H   H9        1.0  0.20232  0.26286  0.19349  1.0000
  H   H10       1.0  0.99054  0.02783  0.20292  1.0000
  H   H11       1.0  0.18919  0.26346  0.23525  1.0000
  H   H12       1.0  0.14781  0.20808  0.02064  1.0000
  C   C9        1.0  0.23085  0.31199  0.04366  1.0000
  C   C10       1.0  0.09082  0.09085  0.44674  1.0000
  H   H13       1.0  0.23307  0.18023  0.04912  1.0000
  C   C11       1.0  0.00772  0.01412  0.18806  1.0000
  H   H14       1.0  0.04930  0.25816  0.46245  1.0000
  H   H15       1.0  0.14991  0.19256  0.23743  1.0000
  C   C12       1.0  0.16944  0.18082  0.99574  1.0000
  C   C13       1.0  0.18519  0.19374  0.98801  1.0000
  C   C14       1.0  0.19310  0.20200  0.00364  1.0000
  C   C15       1.0  0.18537  0.19741  0.02736  1.0000
  C   C16       1.0  0.16960  0.18455  0.03509  1.0000
  C   C17       1.0  0.16167  0.17632  0.01944  1.0000
  S   S19       1.0  0.00092  0.02717  0.30786  1.0000
  H   H16       1.0  0.20509  0.21194  0.99727  1.0000
  H   H17       1.0  0.16343  0.18088  0.05336  1.0000
  H   H18       1.0  0.14956  0.16647  0.02571  1.0000
  C   C18       1.0  0.05059  0.05693  0.02448  1.0000
  C   C19       1.0  0.06833  0.06380  0.01610  1.0000
  C   C20       1.0  0.07609  0.08133  0.01512  1.0000
  C   C21       1.0  0.06615  0.09206  0.02270  1.0000
  C   C22       1.0  0.04837  0.08523  0.03087  1.0000
  C   C23       1.0  0.04059  0.06771  0.03177  1.0000
  H   H19       1.0  0.07616  0.05555  0.01044  1.0000
  H   H20       1.0  0.08984  0.08645  0.00888  1.0000
  H   H21       1.0  0.04064  0.09358  0.03643  1.0000
  H   H22       1.0  0.02688  0.06258  0.03793  1.0000
  C   C24       1.0  0.18133  0.22204  0.25020  1.0000
  H   H23       1.0  0.16439  0.20971  0.19766  1.0000
  C   C25       1.0  0.01108  0.08299  0.10379  1.0000
  H   H24       1.0  0.16090  0.20020  0.27103  1.0000
  C   C26       1.0  0.18348  0.22737  0.20876  1.0000
  H   H25       1.0  0.17811  0.27703  0.99945  1.0000
  H   H26       1.0  0.14655  0.20806  0.97998  1.0000
  C   C27       1.0  0.01320  0.00776  0.16850  1.0000
  C   C28       1.0  0.11676  0.06974  0.39256  1.0000
  C   C29       1.0  0.11676  0.05865  0.41332  1.0000
  C   C30       1.0  0.11501  0.04080  0.41473  1.0000
  C   C31       1.0  0.11370  0.03395  0.39519  1.0000
  C   C32       1.0  0.11374  0.04504  0.37433  1.0000
  C   C33       1.0  0.11511  0.06288  0.37305  1.0000
  H   H27       1.0  0.11828  0.06389  0.42839  1.0000
  H   H28       1.0  0.11508  0.03244  0.43083  1.0000
  H   H29       1.0  0.11293  0.03987  0.35906  1.0000
  H   H30       1.0  0.11520  0.07136  0.35692  1.0000
  C   C34       1.0  0.06311  0.14238  0.38182  1.0000
  C   C35       1.0  0.05958  0.12427  0.38833  1.0000
  C   C36       1.0  0.04478  0.11464  0.40505  1.0000
  C   C37       1.0  0.03348  0.12304  0.41569  1.0000
  C   C38       1.0  0.03655  0.14110  0.40865  1.0000
  C   C39       1.0  0.05139  0.15076  0.39170  1.0000
  H   H31       1.0  0.06830  0.11768  0.38063  1.0000
  H   H32       1.0  0.04206  0.10062  0.40984  1.0000
  H   H33       1.0  0.02781  0.14766  0.41673  1.0000
  H   H34       1.0  0.05400  0.16479  0.38661  1.0000
  C   C40       1.0  0.19790  0.21638  0.30319  1.0000
  C   C41       1.0  0.20522  0.20508  0.29215  1.0000
  C   C42       1.0  0.19533  0.18814  0.29331  1.0000
  C   C43       1.0  0.17810  0.18220  0.30570  1.0000
  C   C44       1.0  0.17081  0.19346  0.31685  1.0000
  C   C45       1.0  0.18065  0.21046  0.31550  1.0000
  H   H35       1.0  0.21847  0.20940  0.28267  1.0000
  H   H36       1.0  0.20112  0.17951  0.28471  1.0000
  H   H37       1.0  0.15757  0.18911  0.32640  1.0000
  H   H38       1.0  0.17483  0.21912  0.32400  1.0000
  C   C46       1.0  0.08593  0.09069  0.28833  1.0000
  C   C47       1.0  0.08318  0.07860  0.30925  1.0000
  C   C48       1.0  0.07147  0.06221  0.31337  1.0000
  C   C49       1.0  0.06219  0.05788  0.29681  1.0000
  C   C50       1.0  0.06449  0.07017  0.27621  1.0000
  C   C51       1.0  0.07649  0.08648  0.27189  1.0000
  H   H39       1.0  0.09048  0.08169  0.32195  1.0000
  H   H40       1.0  0.06972  0.05287  0.32938  1.0000
  H   H41       1.0  0.05743  0.06694  0.26333  1.0000
  C   C52       1.0  0.16916  0.21322  0.21234  1.0000
  N   N1        1.0  0.04225  0.05454  0.10152  1.0000
  C   C53       1.0  0.06043  0.05789  0.08913  1.0000
  C   C54       1.0  0.04112  0.04871  0.12669  1.0000
  C   C55       1.0  0.03205  0.04013  0.09346  1.0000
  C   C56       1.0  0.03536  0.06997  0.09757  1.0000
  C   C57       1.0  0.01787  0.06860  0.10711  1.0000
  C   C58       1.0  0.04566  0.08673  0.08485  1.0000
  C   C59       1.0  0.99272  0.01846  0.14928  1.0000
  C   C60       1.0  0.03873  0.10103  0.08160  1.0000
  N   N2        1.0  0.00465  0.11020  0.36383  1.0000
  H   H42       1.0  0.06210  0.06230  0.07001  1.0000
  H   H43       1.0  0.06912  0.06788  0.09526  1.0000
  H   H44       1.0  0.06510  0.04595  0.09194  1.0000
  H   H45       1.0  0.04848  0.05923  0.13351  1.0000
  H   H46       1.0  0.04617  0.03709  0.13055  1.0000
  H   H47       1.0  0.02768  0.04496  0.13708  1.0000
  H   H48       1.0  0.03202  0.04421  0.07482  1.0000
  H   H49       1.0  0.03725  0.02851  0.09545  1.0000
  H   H50       1.0  0.01849  0.03559  0.10328  1.0000
  H   H51       1.0  0.00927  0.05637  0.11737  1.0000
  H   H52       1.0  0.05908  0.08917  0.07676  1.0000
  H   H53       1.0  0.01415  0.18611  0.45635  1.0000
  H   H54       1.0  0.04166  0.01883  0.39216  1.0000
  H   H55       1.0  0.03664  0.01146  0.34418  1.0000
  H   H56       1.0  0.21137  0.27133  0.23577  1.0000
  C   C61       1.0  0.00386  0.08365  0.01726  1.0000
  H   H57       1.0  0.22127  0.26786  0.99033  1.0000
  C   C62       1.0  0.98817  0.11328  0.35961  1.0000
  C   C63       1.0  0.16098  0.20351  0.23470  1.0000
  H   H58       1.0  0.18498  0.14400  0.99544  1.0000
  H   H59       1.0  0.21560  0.23457  0.25164  1.0000
  H   H60       1.0  0.09020  0.08915  0.46566  1.0000
  Fe  Fe11      1.0  0.01425  0.02175  0.04494  1.0000
  H   H61       1.0  0.04684  0.11358  0.07141  1.0000
  H   H62       1.0  0.18340  0.15396  0.03202  1.0000
  C   C64       1.0  0.17182  0.16025  0.20499  1.0000
  H   H63       1.0  0.02316  0.00098  0.16844  1.0000
  H   H64       1.0  0.22182  0.23008  0.22367  1.0000
  H   H65       1.0  0.09764  0.10466  0.43804  1.0000
  S   S20       1.0  0.10960  0.15330  0.97542  1.0000
  S   S21       1.0  0.01723  0.01073  0.21210  1.0000
  C   C65       1.0  0.19647  0.15172  0.99896  1.0000
  C   C66       1.0  0.22734  0.32761  0.04780  1.0000
  C   C67       1.0  0.02149  0.09917  0.09101  1.0000
  C   C68       1.0  0.02122  0.21404  0.45092  1.0000
  C   C69       1.0  0.00269  0.09136  0.33408  1.0000
  C   C70       1.0  0.21008  0.16816  0.02366  1.0000
  C   C71       1.0  0.04550  0.00771  0.97515  1.0000
  H   H66       1.0  0.04730  0.01749  0.98538  1.0000
  H   H67       1.0  0.19206  0.27960  0.97175  1.0000
  H   H68       1.0  0.99598  0.10779  0.40058  1.0000
  H   H69       1.0  0.16866  0.23036  0.03016  1.0000
  S   S22       1.0  0.16016  0.17095  0.97498  1.0000
  H   H70       1.0  0.21664  0.24906  0.18887  1.0000
  S   S23       1.0  0.99663  0.00393  0.02962  1.0000
  C   C72       1.0  0.19569  0.18530  0.20099  1.0000
  S   S24       1.0  0.99435  0.03453  0.05869  1.0000
  H   H71       1.0  0.01080  0.08599  0.03059  1.0000
  C   C73       1.0  0.02667  0.08051  0.31927  1.0000
  H   H72       1.0  0.16412  0.15225  0.19611  1.0000
  N   N3        1.0  0.20511  0.24708  0.22480  1.0000
  H   H73       1.0  0.19630  0.24408  0.03093  1.0000
  C   C74       1.0  0.01203  0.10007  0.34833  1.0000
  H   H74       1.0  0.03662  0.10391  0.35858  1.0000
  H   H75       1.0  0.20595  0.19613  0.19007  1.0000
  C   C75       1.0  0.18993  0.23230  0.22774  1.0000
  Fe  Fe12      1.0  0.99292  0.03907  0.27660  1.0000
  H   H76       1.0  0.04912  0.08768  0.33265  1.0000
  C   C76       1.0  0.16713  0.20786  0.25359  1.0000
  H   H77       1.0  0.20835  0.17306  0.03926  1.0000
  C   C77       1.0  0.18012  0.24523  0.99420  1.0000
  H   H78       1.0  0.19791  0.25366  0.25801  1.0000
  H   H79       1.0  0.18558  0.22495  0.26538  1.0000
  H   H80       1.0  0.06003  0.99871  0.40648  1.0000
  C   C78       1.0  0.16842  0.23163  0.01205  1.0000
  C   C79       1.0  0.21203  0.25719  0.20042  1.0000
  S   S25       1.0  0.00981  0.00214  0.07836  1.0000
  C   C80       1.0  0.98720  0.07293  0.02337  1.0000
  C   C81       1.0  0.19559  0.15738  0.01956  1.0000
  H   H81       1.0  0.07143  0.11231  0.43862  1.0000
  H   H82       1.0  0.18925  0.23424  0.19099  1.0000
  H   H83       1.0  0.01620  0.11031  0.08843  1.0000
  H   H84       1.0  0.20427  0.26713  0.02674  1.0000
  H   H85       1.0  0.01937  0.21601  0.43333  1.0000
  N   N4        1.0  0.15473  0.14241  0.24507  1.0000
  C   C82       1.0  0.14509  0.13076  0.23257  1.0000
  C   C83       1.0  0.16166  0.13142  0.26150  1.0000
  C   C84       1.0  0.14229  0.14969  0.25855  1.0000
  C   C85       1.0  0.16881  0.15689  0.22962  1.0000
  S   S26       1.0  0.01879  0.00487  0.27581  1.0000
  C   C86       1.0  0.17976  0.16849  0.23915  1.0000
  H   H86       1.0  0.02869  0.12672  0.36657  1.0000
  C   C87       1.0  0.19300  0.18241  0.22504  1.0000
  C   C88       1.0  0.21896  0.24033  0.23267  1.0000
  H   H87       1.0  0.13475  0.11992  0.24487  1.0000
  H   H88       1.0  0.13843  0.13780  0.22108  1.0000
  H   H89       1.0  0.15363  0.12461  0.22221  1.0000
  H   H90       1.0  0.17192  0.12660  0.25212  1.0000
  H   H91       1.0  0.15148  0.11989  0.27256  1.0000
  H   H92       1.0  0.16712  0.13849  0.27386  1.0000
  H   H93       1.0  0.13670  0.15803  0.24700  1.0000
  H   H94       1.0  0.13147  0.13916  0.27028  1.0000
  H   H95       1.0  0.14817  0.15766  0.26978  1.0000
  C   C89       1.0  0.18511  0.17426  0.19100  1.0000
  H   H96       1.0  0.17811  0.16697  0.25769  1.0000
  H   H97       1.0  0.04809  0.03063  0.36231  1.0000
  H   H98       1.0  0.20110  0.19106  0.23292  1.0000
  C   C90       1.0  0.19390  0.25676  0.02384  1.0000
  N   N5        1.0  0.19361  0.25887  0.99888  1.0000
  H   H99       1.0  0.07053  0.02645  0.46189  1.0000
  C   C91       1.0  0.07521  0.08700  0.41689  1.0000
  H   H100      1.0  0.08254  0.07810  0.41055  1.0000
  S   S27       1.0  0.11528  0.00066  0.46389  1.0000
  H   H101      1.0  0.23010  0.30150  0.05806  1.0000
  H   H102      1.0  0.08367  0.02885  0.35034  1.0000
  C   C92       1.0  0.07228  0.05391  0.45212  1.0000
  Fe  Fe13      1.0  0.99237  0.11950  0.44711  1.0000
  H   H103      1.0  0.06212  0.03469  0.38103  1.0000
  C   C93       1.0  0.23532  0.31004  0.02091  1.0000
  H   H104      1.0  0.02050  0.13474  0.34227  1.0000
  C   C94       1.0  0.01675  0.12755  0.36078  1.0000
  C   C95       1.0  0.01836  0.19716  0.46381  1.0000
  N   N6        1.0  0.07343  0.08578  0.44212  1.0000
  H   H105      1.0  0.05144  0.09647  0.44471  1.0000
  N   N7        1.0  0.06053  0.01008  0.37095  1.0000
  H   H106      1.0  0.08049  0.00759  0.34433  1.0000
  H   H107      1.0  0.23107  0.25083  0.22920  1.0000
  H   H108      1.0  0.09937  0.08317  0.43986  1.0000
  C   C96       1.0  0.21070  0.25841  0.98627  1.0000
  C   C97       1.0  0.05271  0.02408  0.37690  1.0000
  H   H109      1.0  0.05037  0.06988  0.97947  1.0000
  H   H110      1.0  0.00267  0.07531  0.30895  1.0000
  H   H111      1.0  0.06808  0.02182  0.33425  1.0000
  H   H112      1.0  0.98970  0.09170  0.33358  1.0000
  H   H113      1.0  0.07488  0.00551  0.30363  1.0000
  H   H114      1.0  0.01110  0.13579  0.37129  1.0000
  C   C98       1.0  0.99484  0.02283  0.18801  1.0000
  H   H115      1.0  0.05728  0.00424  0.27466  1.0000
  H   H116      1.0  0.07842  0.01647  0.39249  1.0000
  H   H117      1.0  0.21271  0.24519  0.99103  1.0000
  C   C99       1.0  0.15552  0.21861  0.98392  1.0000
  C   C100      1.0  0.00999  0.08178  0.31980  1.0000
  H   H118      1.0  0.18166  0.25763  0.03439  1.0000
  C   C101      1.0  0.22613  0.17319  0.00742  1.0000
  H   H119      1.0  0.06249  0.08355  0.41250  1.0000
  C   C102      1.0  0.21197  0.15646  0.98258  1.0000
  H   H120      1.0  0.02454  0.09969  0.98940  1.0000
  C   C103      1.0  0.00256  0.08841  0.97676  1.0000
  C   C104      1.0  0.06446  0.06763  0.45481  1.0000
  H   H121      1.0  0.08482  0.05639  0.44094  1.0000
  H   H122      1.0  0.06294  0.09880  0.46733  1.0000
  C   C105      1.0  0.06439  0.09882  0.44858  1.0000
  H   H123      1.0  0.02792  0.24111  0.45010  1.0000
  C   C106      1.0  0.01155  0.09134  0.99402  1.0000
  C   C107      1.0  0.15628  0.21863  0.00684  1.0000
  H   H124      1.0  0.99767  0.08155  0.11126  1.0000
  H   H125      1.0  0.01004  0.00486  0.13435  1.0000
  H   H126      1.0  0.22641  0.20262  0.02283  1.0000
  C   C108      1.0  0.22665  0.16699  0.98665  1.0000
  H   H127      1.0  0.22392  0.32903  0.06546  1.0000
  C   C109      1.0  0.17863  0.24510  0.97106  1.0000
  C   C110      1.0  0.06409  0.03665  0.46372  1.0000
  C   C111      1.0  0.19101  0.27630  0.99077  1.0000
  Fe  Fe14      1.0  0.99279  0.00216  0.29723  1.0000
  C   C112      1.0  0.06932  0.00500  0.38962  1.0000
  H   H128      1.0  0.23106  0.32073  0.34710  1.0000
  H   H129      1.0  0.99212  0.08759  0.39142  1.0000
  C   C113      1.0  0.04769  0.06290  0.46943  1.0000
  C   C114      1.0  0.03581  0.99849  0.35353  1.0000
  H   H130      1.0  0.23530  0.20751  0.99223  1.0000
  C   C115      1.0  0.19103  0.06949  0.84921  1.0000
  H   H131      1.0  0.02033  0.17911  0.81664  1.0000
  H   H132      1.0  0.06958  0.01967  0.95051  1.0000
  H   H133      1.0  0.07167  0.13047  0.94854  1.0000
  C   C116      1.0  0.20812  0.06942  0.84163  1.0000
  H   H134      1.0  0.98987  0.21240  0.74828  1.0000
  Fe  Fe15      1.0  0.08432  0.01427  0.83562  1.0000
  S   S28       1.0  0.06719  0.02063  0.81171  1.0000
  Fe  Fe16      1.0  0.10455  0.03403  0.86538  1.0000
  S   S29       1.0  0.10758  0.06107  0.87240  1.0000
  S   S30       1.0  0.10945  0.03434  0.82745  1.0000
  C   C117      1.0  0.06765  0.32554  0.80380  1.0000
  S   S31       1.0  0.10037  0.15211  0.91201  1.0000
  H   H135      1.0  0.99669  0.07921  0.93540  1.0000
  H   H136      1.0  0.18698  0.25505  0.95659  1.0000
  H   H137      1.0  0.98982  0.04267  0.77755  1.0000
  C   C118      1.0  0.18481  0.06178  0.81392  1.0000
  C   C119      1.0  0.02771  0.03685  0.94214  1.0000
  S   S32       1.0  0.09911  0.11484  0.96259  1.0000
  C   C120      1.0  0.00824  0.22500  0.70315  1.0000
  S   S33       1.0  0.13246  0.08888  0.95611  1.0000
  C   C121      1.0  0.07911  0.06797  0.95334  1.0000
  H   H138      1.0  0.99998  0.03638  0.83811  1.0000
  C   C122      1.0  0.16677  0.01501  0.80931  1.0000
  Fe  Fe17      1.0  0.00398  0.28049  0.53377  1.0000
  S   S34       1.0  0.02922  0.29876  0.51069  1.0000
  S   S35       1.0  0.00561  0.25677  0.55856  1.0000
  Fe  Fe18      1.0  0.01459  0.26520  0.77709  1.0000
  S   S36       1.0  0.00803  0.28403  0.79886  1.0000
  S   S37       1.0  0.02388  0.24073  0.78659  1.0000
  Fe  Fe19      1.0  0.01487  0.28886  0.73119  1.0000
  S   S38       1.0  0.00875  0.30943  0.74934  1.0000
  S   S39       1.0  0.02179  0.29276  0.69144  1.0000
  Fe  Fe20      1.0  0.02770  0.30505  0.77113  1.0000
  C   C123      1.0  0.03730  0.05066  0.94936  1.0000
  S   S40       1.0  0.03551  0.28617  0.75070  1.0000
  C   C124      1.0  0.04770  0.03247  0.47788  1.0000
  C   C125      1.0  0.00834  0.27993  0.63317  1.0000
  C   C126      1.0  0.01722  0.28723  0.64869  1.0000
  C   C127      1.0  0.00982  0.28333  0.67266  1.0000
  H   H139      1.0  0.13956  0.05015  0.87282  1.0000
  C   C128      1.0  0.14963  0.06112  0.82805  1.0000
  H   H140      1.0  0.02999  0.29581  0.64207  1.0000
  C   C129      1.0  0.15943  0.08222  0.84936  1.0000
  H   H141      1.0  0.00580  0.19514  0.87929  1.0000
  H   H142      1.0  0.01185  0.22393  0.85479  1.0000
  C   C130      1.0  0.03809  0.32336  0.85279  1.0000
  C   C131      1.0  0.17611  0.00457  0.50227  1.0000
  H   H143      1.0  0.06324  0.32028  0.48834  1.0000
  H   H144      1.0  0.06450  0.31211  0.80237  1.0000
  C   C132      1.0  0.04206  0.31759  0.51685  1.0000
  C   C133      1.0  0.06145  0.05328  0.91802  1.0000
  H   H145      1.0  0.15422  0.07085  0.81119  1.0000
  H   H146      1.0  0.22669  0.06501  0.81471  1.0000
  C   C134      1.0  0.02140  0.20607  0.80290  1.0000
  C   C135      1.0  0.11466  0.06826  0.89588  1.0000
  C   C136      1.0  0.11916  0.05729  0.91310  1.0000
  C   C137      1.0  0.12481  0.06377  0.93142  1.0000
  C   C138      1.0  0.12565  0.08109  0.93284  1.0000
  C   C139      1.0  0.12097  0.09195  0.91571  1.0000
  C   C140      1.0  0.11572  0.08560  0.89716  1.0000
  H   H147      1.0  0.11828  0.04386  0.91236  1.0000
  H   H148      1.0  0.01900  0.25692  0.47533  1.0000
  H   H149      1.0  0.12166  0.10534  0.91658  1.0000
  H   H150      1.0  0.11240  0.09421  0.88378  1.0000
  C   C141      1.0  0.19606  0.01758  0.78848  1.0000
  H   H151      1.0  0.20619  0.05849  0.79013  1.0000
  C   C142      1.0  0.20221  0.02029  0.80809  1.0000
  C   C143      1.0  0.19051  0.01990  0.82849  1.0000
  C   C144      1.0  0.17286  0.01719  0.82915  1.0000
  H   H152      1.0  0.19517  0.02210  0.84372  1.0000
  H   H153      1.0  0.16400  0.01698  0.84487  1.0000
  C   C145      1.0  0.05697  0.13415  0.89031  1.0000
  C   C146      1.0  0.07373  0.14292  0.89084  1.0000
  H   H154      1.0  0.05304  0.13495  0.87401  1.0000
  H   H155      1.0  0.08261  0.15061  0.87493  1.0000
  H   H156      1.0  0.04003  0.00496  0.52532  1.0000
  C   C147      1.0  0.04159  0.17410  0.90066  1.0000
  H   H157      1.0  0.21718  0.07213  0.85245  1.0000
  H   H158      1.0  0.06372  0.09133  0.96794  1.0000
  H   H159      1.0  0.02848  0.14926  0.87940  1.0000
  H   H160      1.0  0.00895  0.17633  0.91285  1.0000
  C   C148      1.0  0.99706  0.22636  0.74267  1.0000
  H   H161      1.0  0.15974  0.05454  0.88057  1.0000
  C   C149      1.0  0.02792  0.22601  0.48405  1.0000
  C   C150      1.0  0.07283  0.08911  0.92460  1.0000
  C   C151      1.0  0.01345  0.18904  0.81638  1.0000
  C   C152      1.0  0.00734  0.23270  0.66206  1.0000
  H   H162      1.0  0.17868  0.01854  0.50022  1.0000
  H   H163      1.0  0.00159  0.16628  0.89051  1.0000
  C   C153      1.0  0.03862  0.22635  0.84267  1.0000
  H   H164      1.0  0.01426  0.28300  0.61485  1.0000
  H   H165      1.0  0.15325  0.00280  0.57061  1.0000
  C   C154      1.0  0.05190  0.21833  0.84350  1.0000
  H   H166      1.0  0.99998  0.23034  0.75863  1.0000
  C   C155      1.0  0.14970  0.99969  0.58938  1.0000
  H   H167      1.0  0.08764  0.06413  0.93981  1.0000
  H   H168      1.0  0.02594  0.25101  0.73709  1.0000
  C   C156      1.0  0.05850  0.32579  0.50250  1.0000
  H   H169      1.0  0.16576  0.08543  0.86348  1.0000
  H   H170      1.0  0.02357  0.31876  0.54633  1.0000
  H   H171      1.0  0.03539  0.22000  0.71949  1.0000
  H   H172      1.0  0.04096  0.31086  0.85348  1.0000
  C   C157      1.0  0.03485  0.03139  0.92283  1.0000
  Fe  Fe21      1.0  0.98937  0.28763  0.77614  1.0000
  S   S41       1.0  0.22441  0.02513  0.80770  1.0000
  S   S42       1.0  0.98683  0.00041  0.70014  1.0000
  C   C158      1.0  0.99346  0.27182  0.68095  1.0000
  C   C159      1.0  0.03379  0.23676  0.51881  1.0000
  Fe  Fe22      1.0  0.11033  0.14250  0.94338  1.0000
  H   H173      1.0  0.99521  0.03165  0.59001  1.0000
  H   H174      1.0  0.19171  0.99905  0.61868  1.0000
  C   C160      1.0  0.03911  0.01063  0.79438  1.0000
  H   H175      1.0  0.05730  0.03530  0.89591  1.0000
  C   C161      1.0  0.04948  0.25287  0.48073  1.0000
  H   H176      1.0  0.99593  0.99971  0.65208  1.0000
  H   H177      1.0  0.00924  0.09486  0.95914  1.0000
  H   H178      1.0  0.02746  0.02059  0.91741  1.0000
  H   H179      1.0  0.02246  0.16362  0.85764  1.0000
  C   C162      1.0  0.03129  0.16303  0.86968  1.0000
  S   S43       1.0  0.02467  0.11217  0.91139  1.0000
  H   H180      1.0  0.18736  0.07233  0.86600  1.0000
  H   H181      1.0  0.04129  0.18372  0.91176  1.0000
  S   S44       1.0  0.14493  0.01270  0.80851  1.0000
  H   H182      1.0  0.98963  0.04362  0.56598  1.0000
  S   S45       1.0  0.07089  0.99761  0.50444  1.0000
  H   H183      1.0  0.01675  0.20448  0.73854  1.0000
  H   H184      1.0  0.20490  0.01790  0.77266  1.0000
  H   H185      1.0  0.04216  0.11522  0.94775  1.0000
  C   C163      1.0  0.21356  0.06557  0.82032  1.0000
  H   H186      1.0  0.99359  0.21253  0.64831  1.0000
  C   C164      1.0  0.01276  0.21927  0.80261  1.0000
  S   S46       1.0  0.07845  0.01544  0.87304  1.0000
  H   H187      1.0  0.99470  0.06234  0.50325  1.0000
  C   C165      1.0  0.02257  0.24801  0.72086  1.0000
  C   C166      1.0  0.17880  0.06558  0.83564  1.0000
  C   C167      1.0  0.99678  0.18510  0.82994  1.0000
  H   H188      1.0  0.01093  0.06829  0.78237  1.0000
  C   C168      1.0  0.99367  0.20339  0.68419  1.0000
  C   C169      1.0  0.02737  0.32814  0.83878  1.0000
  H   H189      1.0  0.02211  0.26246  0.50188  1.0000
  C   C170      1.0  0.04882  0.20174  0.85771  1.0000
  N   N8        1.0  0.02914  0.17477  0.88559  1.0000
  H   H190      1.0  0.13620  0.06138  0.83495  1.0000
  N   N9        1.0  0.03260  0.24134  0.49420  1.0000
  H   H191      1.0  0.08711  0.32261  0.82296  1.0000
  C   C171      1.0  0.05448  0.05947  0.93727  1.0000
  C   C172      1.0  0.05807  0.00895  0.95559  1.0000
  C   C173      1.0  0.99881  0.20784  0.70379  1.0000
  H   H192      1.0  0.16539  0.09292  0.83362  1.0000
  H   H193      1.0  0.01472  0.03019  0.95178  1.0000
  C   C174      1.0  0.03226  0.19269  0.87164  1.0000
  C   C175      1.0  0.07920  0.14141  0.91178  1.0000
  Fe  Fe23      1.0  0.99944  0.10527  0.84026  1.0000
  C   C176      1.0  0.15346  0.05154  0.86632  1.0000
  H   H194      1.0  0.14895  0.04785  0.82477  1.0000
  H   H195      1.0  0.16598  0.23170  0.94824  1.0000
  S   S47       1.0  0.13756  0.14080  0.94052  1.0000
  C   C177      1.0  0.20197  0.06194  0.80642  1.0000
  H   H196      1.0  0.12837  0.05531  0.94471  1.0000
  S   S48       1.0  0.11844  0.01344  0.87333  1.0000
  C   C178      1.0  0.01897  0.20122  0.87025  1.0000
  H   H197      1.0  0.01960  0.25071  0.67922  1.0000
  N   N10       1.0  0.06516  0.07394  0.94459  1.0000
  C   C179      1.0  0.02369  0.21852  0.73306  1.0000
  H   H198      1.0  0.18853  0.02243  0.58718  1.0000
  H   H199      1.0  0.17646  0.05812  0.80262  1.0000
  H   H200      1.0  0.04410  0.02311  0.78215  1.0000
  C   C180      1.0  0.06770  0.13141  0.93226  1.0000
  Fe  Fe24      1.0  0.01011  0.11502  0.88292  1.0000
  H   H201      1.0  0.06274  0.09343  0.91680  1.0000
  C   C181      1.0  0.04558  0.12404  0.91083  1.0000
  H   H202      1.0  0.06596  0.99688  0.92788  1.0000
  C   C182      1.0  0.05545  0.08017  0.96321  1.0000
  H   H203      1.0  0.01040  0.24239  0.64588  1.0000
  Fe  Fe25      1.0  0.12599  0.11370  0.96233  1.0000
  S   S49       1.0  0.99483  0.09022  0.87688  1.0000
  H   H204      1.0  0.07461  0.05884  0.90845  1.0000
  H   H205      1.0  0.14581  0.08245  0.85518  1.0000
  S   S50       1.0  0.00829  0.09235  0.81180  1.0000
  H   H206      1.0  0.00988  0.15454  0.91166  1.0000
  C   C183      1.0  0.02032  0.19445  0.48658  1.0000
  N   N11       1.0  0.01289  0.22952  0.72443  1.0000
  H   H207      1.0  0.04455  0.16650  0.85884  1.0000
  H   H208      1.0  0.15489  0.03862  0.86368  1.0000
  C   C184      1.0  0.99200  0.26836  0.64147  1.0000
  H   H209      1.0  0.01689  0.00346  0.78050  1.0000
  C   C185      1.0  0.99593  0.21521  0.81565  1.0000
  H   H210      1.0  0.05943  0.19588  0.85722  1.0000
  H   H211      1.0  0.20152  0.01288  0.56866  1.0000
  H   H212      1.0  0.18223  0.01634  0.56197  1.0000
  H   H213      1.0  0.17381  0.01331  0.77368  1.0000
  H   H214      1.0  0.98827  0.23385  0.73645  1.0000
  H   H215      1.0  0.02670  0.04216  0.49179  1.0000
  H   H216      1.0  0.21240  0.26185  0.96715  1.0000
  H   H217      1.0  0.04377  0.22967  0.52079  1.0000
  S   S51       1.0  0.99431  0.26717  0.75652  1.0000
  H   H218      1.0  0.07116  0.08930  0.87165  1.0000
  H   H219      1.0  0.08196  0.08635  0.91074  1.0000
  H   H220      1.0  0.04088  0.23897  0.83109  1.0000
  H   H221      1.0  0.06456  0.22487  0.83268  1.0000
  H   H222      1.0  0.03721  0.24857  0.52594  1.0000
  H   H223      1.0  0.03488  0.25132  0.70772  1.0000
  H   H224      1.0  0.08037  0.10048  0.92977  1.0000
  C   C186      1.0  0.18808  0.01237  0.57669  1.0000
  H   H225      1.0  0.02794  0.22213  0.74857  1.0000
  C   C187      1.0  0.05167  0.03961  0.91081  1.0000
  N   N12       1.0  0.16065  0.06512  0.84450  1.0000
  C   C188      1.0  0.02224  0.21785  0.85610  1.0000
  C   C189      1.0  0.05097  0.12281  0.93177  1.0000
  H   H226      1.0  0.04462  0.08463  0.95775  1.0000
  C   C190      1.0  0.01163  0.16779  0.90083  1.0000
  C   C191      1.0  0.99290  0.07469  0.80797  1.0000
  S   S52       1.0  0.01677  0.12951  0.84555  1.0000
  C   C192      1.0  0.17844  0.01504  0.78909  1.0000
  H   H227      1.0  0.03886  0.16094  0.91228  1.0000
  H   H228      1.0  0.00655  0.24273  0.50224  1.0000
  H   H229      1.0  0.01763  0.18124  0.49669  1.0000
  C   C193      1.0  0.02491  0.20858  0.49672  1.0000
  H   H230      1.0  0.02128  0.22862  0.53014  1.0000
  H   H231      1.0  0.01490  0.25704  0.71530  1.0000
  Fe  Fe26      1.0  0.99229  0.13777  0.85410  1.0000
  S   S53       1.0  0.20422  0.00784  0.52178  1.0000
  Fe  Fe27      1.0  0.12150  0.01241  0.83566  1.0000
  H   H232      1.0  0.05500  0.17673  0.89063  1.0000
  N   N13       1.0  0.02652  0.04422  0.84029  1.0000
  C   C194      1.0  0.02659  0.02597  0.84951  1.0000
  C   C195      1.0  0.00847  0.04523  0.84604  1.0000
  C   C196      1.0  0.03222  0.04839  0.81463  1.0000
  C   C197      1.0  0.03838  0.05626  0.84982  1.0000
  C   C198      1.0  0.05608  0.05682  0.84570  1.0000
  C   C199      1.0  0.03300  0.06801  0.86271  1.0000
  C   C200      1.0  0.06767  0.06855  0.85363  1.0000
  C   C201      1.0  0.04472  0.07968  0.87062  1.0000
  C   C202      1.0  0.06204  0.08002  0.86595  1.0000
  H   H233      1.0  0.02223  0.02225  0.86872  1.0000
  H   H234      1.0  0.01814  0.01661  0.84214  1.0000
  H   H235      1.0  0.03953  0.02381  0.84511  1.0000
  H   H236      1.0  0.00303  0.04161  0.86507  1.0000
  C   C203      1.0  0.03950  0.04553  0.48071  1.0000
  H   H237      1.0  0.00744  0.05856  0.83918  1.0000
  H   H238      1.0  0.04504  0.04622  0.80872  1.0000
  H   H239      1.0  0.02326  0.04012  0.80661  1.0000
  H   H240      1.0  0.03299  0.06227  0.80715  1.0000
  H   H241      1.0  0.06119  0.04840  0.83588  1.0000
  H   H242      1.0  0.01988  0.06874  0.86648  1.0000
  H   H243      1.0  0.08117  0.06887  0.84988  1.0000
  H   H244      1.0  0.04039  0.08876  0.88003  1.0000
  H   H245      1.0  0.03447  0.20910  0.79298  1.0000
  C   C204      1.0  0.99786  0.06472  0.79242  1.0000
  H   H246      1.0  0.99514  0.19778  0.71958  1.0000
  H   H247      1.0  0.12465  0.00369  0.58924  1.0000
  H   H248      1.0  0.05351  0.26437  0.48825  1.0000
  C   C205      1.0  0.04828  0.00564  0.81074  1.0000
  C   C206      1.0  0.13330  0.00028  0.59988  1.0000
  C   C207      1.0  0.98915  0.04232  0.58487  1.0000
  H   H249      1.0  0.98758  0.26861  0.69929  1.0000
  H   H250      1.0  0.08748  0.07831  0.95934  1.0000
  C   C208      1.0  0.01953  0.25129  0.49332  1.0000
  C   C209      1.0  0.99783  0.21585  0.66341  1.0000
  H   H251      1.0  0.04056  0.07231  0.47242  1.0000
  S   S54       1.0  0.98700  0.12485  0.89189  1.0000
  Fe  Fe28      1.0  0.22669  0.00168  0.53641  1.0000
  H   H252      1.0  0.05959  0.24571  0.48043  1.0000
  H   H253      1.0  0.04140  0.01905  0.48667  1.0000
  C   C210      1.0  0.01252  0.23731  0.68154  1.0000
  H   H254      1.0  0.15442  0.00275  0.48607  1.0000
  H   H255      1.0  0.02554  0.20543  0.51470  1.0000
  C   C211      1.0  0.03616  0.32486  0.53514  1.0000
  H   H256      1.0  0.23511  0.00606  0.69680  1.0000
  C   C212      1.0  0.23407  0.00111  0.66273  1.0000
  H   H257      1.0  0.98914  0.22522  0.81568  1.0000
  H   H258      1.0  0.07384  0.05648  0.96825  1.0000
  C   C213      1.0  0.98807  0.19826  0.82938  1.0000
  S   S55       1.0  0.98651  0.16439  0.84888  1.0000
  H   H259      1.0  0.03163  0.32581  0.64512  1.0000
  H   H260      1.0  0.03105  0.05401  0.96466  1.0000
  H   H261      1.0  0.99755  0.04168  0.62357  1.0000
  S   S56       1.0  0.98847  0.00732  0.76294  1.0000
  H   H262      1.0  0.99412  0.03799  0.66516  1.0000
  H   H263      1.0  0.98821  0.09769  0.93860  1.0000
  C   C214      1.0  0.02359  0.99953  0.79348  1.0000
  C   C215      1.0  0.16659  0.23188  0.96606  1.0000
  C   C216      1.0  0.98593  0.05019  0.78972  1.0000
  H   H264      1.0  0.21246  0.15217  0.96644  1.0000
  H   H265      1.0  0.99721  0.05487  0.58656  1.0000
  H   H266      1.0  0.02200  0.31942  0.82859  1.0000
  H   H267      1.0  0.22022  0.99657  0.66687  1.0000
  H   H268      1.0  0.98627  0.19027  0.68517  1.0000
  H   H269      1.0  0.11529  0.99704  0.63205  1.0000
  C   C217      1.0  0.12801  0.99653  0.62396  1.0000
  H   H270      1.0  0.19130  0.19739  0.96972  1.0000
  C   C218      1.0  0.05597  0.99619  0.94278  1.0000
  C   C219      1.0  0.20555  0.43418  0.46267  1.0000
  H   H271      1.0  0.03385  0.47480  0.45047  1.0000
  C   C220      1.0  0.23060  0.50758  0.23710  1.0000
  H   H272      1.0  0.20761  0.65590  0.11852  1.0000
  S   S57       1.0  0.21524  0.40659  0.01136  1.0000
  H   H273      1.0  0.18322  0.34766  0.36797  1.0000
  C   C221      1.0  0.17470  0.37653  0.40151  1.0000
  H   H274      1.0  0.10113  0.56184  0.33499  1.0000
  C   C222      1.0  0.14665  0.65471  0.04514  1.0000
  C   C223      1.0  0.04824  0.65637  0.43644  1.0000
  H   H275      1.0  0.99442  0.51070  0.97521  1.0000
  S   S58       1.0  0.11800  0.44392  0.44865  1.0000
  H   H276      1.0  0.20296  0.52292  0.18833  1.0000
  Fe  Fe29      1.0  0.05085  0.47195  0.38623  1.0000
  S   S59       1.0  0.03316  0.48915  0.39061  1.0000
  S   S60       1.0  0.04947  0.45283  0.41950  1.0000
  Fe  Fe30      1.0  0.06254  0.48757  0.33385  1.0000
  S   S61       1.0  0.04527  0.50553  0.33471  1.0000
  S   S62       1.0  0.08296  0.48833  0.30245  1.0000
  Fe  Fe31      1.0  0.05443  0.51033  0.36656  1.0000
  S   S63       1.0  0.06249  0.53752  0.37194  1.0000
  Fe  Fe32      1.0  0.02541  0.48244  0.35874  1.0000
  S   S64       1.0  0.99662  0.47721  0.36250  1.0000
  S   S65       1.0  0.07292  0.49389  0.36448  1.0000
  S   S66       1.0  0.04187  0.46381  0.35559  1.0000
  Fe  Fe33      1.0  0.12593  0.55002  0.12097  1.0000
  S   S67       1.0  0.12423  0.52846  0.15128  1.0000
  S   S68       1.0  0.11673  0.55002  0.08711  1.0000
  Fe  Fe34      1.0  0.14750  0.57792  0.14119  1.0000
  S   S69       1.0  0.14783  0.55831  0.17286  1.0000
  S   S70       1.0  0.15953  0.60730  0.12805  1.0000
  Fe  Fe35      1.0  0.15234  0.54095  0.14806  1.0000
  S   S71       1.0  0.16869  0.52161  0.14839  1.0000
  Fe  Fe36      1.0  0.11988  0.54712  0.17396  1.0000
  S   S72       1.0  0.09781  0.54202  0.20528  1.0000
  S   S73       1.0  0.15427  0.56132  0.11640  1.0000
  S   S74       1.0  0.11932  0.56782  0.14381  1.0000
  H   H277      1.0  0.14912  0.33882  0.45401  1.0000
  S   S75       1.0  0.05957  0.45856  0.01144  1.0000
  H   H278      1.0  0.03260  0.39377  0.46628  1.0000
  C   C224      1.0  0.15084  0.36442  0.43485  1.0000
  S   S76       1.0  0.03495  0.48432  0.01805  1.0000
  C   C225      1.0  0.22712  0.53387  0.14101  1.0000
  Fe  Fe37      1.0  0.06163  0.48426  0.02215  1.0000
  S   S77       1.0  0.07023  0.48716  0.05590  1.0000
  Fe  Fe38      1.0  0.03398  0.46031  0.00390  1.0000
  S   S78       1.0  0.00848  0.43955  0.01606  1.0000
  S   S79       1.0  0.07409  0.50062  0.98620  1.0000
  C   C226      1.0  0.15616  0.34921  0.43910  1.0000
  C   C227      1.0  0.11922  0.42665  0.97655  1.0000
  S   S80       1.0  0.09976  0.62983  0.43806  1.0000
  C   C228      1.0  0.10376  0.53236  0.07876  1.0000
  C   C229      1.0  0.09543  0.51643  0.09439  1.0000
  C   C230      1.0  0.08504  0.50294  0.08714  1.0000
  C   C231      1.0  0.08297  0.50503  0.06414  1.0000
  C   C232      1.0  0.09136  0.52095  0.04847  1.0000
  C   C233      1.0  0.10163  0.53452  0.05579  1.0000
  H   H279      1.0  0.09678  0.51456  0.11216  1.0000
  H   H280      1.0  0.07859  0.49072  0.09943  1.0000
  H   H281      1.0  0.08995  0.52278  0.03074  1.0000
  H   H282      1.0  0.10799  0.54677  0.04353  1.0000
  Fe  Fe39      1.0  0.07053  0.47496  0.97527  1.0000
  C   C234      1.0  0.21876  0.54722  0.14163  1.0000
  C   C235      1.0  0.20092  0.54378  0.14346  1.0000
  C   C236      1.0  0.19127  0.52691  0.14468  1.0000
  C   C237      1.0  0.19967  0.51360  0.14372  1.0000
  C   C238      1.0  0.21751  0.51707  0.14176  1.0000
  C   C239      1.0  0.09184  0.65759  0.45473  1.0000
  H   H283      1.0  0.19462  0.55414  0.14417  1.0000
  H   H284      1.0  0.19232  0.50051  0.14464  1.0000
  C   C240      1.0  0.17074  0.34755  0.42459  1.0000
  S   S81       1.0  0.21911  0.42320  0.38562  1.0000
  C   C241      1.0  0.06476  0.39446  0.44160  1.0000
  C   C242      1.0  0.01223  0.53854  0.44129  1.0000
  H   H285      1.0  0.00754  0.45647  0.33072  1.0000
  H   H286      1.0  0.10521  0.51906  0.32747  1.0000
  H   H287      1.0  0.10019  0.54024  0.34881  1.0000
  C   C243      1.0  0.08636  0.50244  0.27491  1.0000
  C   C244      1.0  0.10133  0.50445  0.25801  1.0000
  C   C245      1.0  0.10490  0.51625  0.23636  1.0000
  C   C246      1.0  0.09348  0.52612  0.23146  1.0000
  C   C247      1.0  0.07842  0.52393  0.24827  1.0000
  C   C248      1.0  0.07483  0.51211  0.26985  1.0000
  H   H288      1.0  0.11028  0.49695  0.26174  1.0000
  H   H289      1.0  0.11654  0.51783  0.22357  1.0000
  H   H290      1.0  0.06950  0.53149  0.24458  1.0000
  H   H291      1.0  0.06317  0.51053  0.28255  1.0000
  H   H292      1.0  0.07798  0.42791  0.99514  1.0000
  C   C249      1.0  0.07377  0.54113  0.44289  1.0000
  C   C250      1.0  0.07681  0.55619  0.42554  1.0000
  C   C251      1.0  0.07393  0.55493  0.40352  1.0000
  C   C252      1.0  0.06780  0.53861  0.39881  1.0000
  C   C253      1.0  0.06515  0.52348  0.41594  1.0000
  C   C254      1.0  0.06813  0.52475  0.43795  1.0000
  H   H293      1.0  0.08159  0.56883  0.42901  1.0000
  H   H294      1.0  0.07616  0.56667  0.39028  1.0000
  H   H295      1.0  0.06052  0.51083  0.41240  1.0000
  C   C255      1.0  0.16934  0.65041  0.16870  1.0000
  C   C256      1.0  0.17162  0.65459  0.14456  1.0000
  C   C257      1.0  0.16835  0.64121  0.13246  1.0000
  C   C258      1.0  0.16273  0.62357  0.14432  1.0000
  C   C259      1.0  0.16022  0.61943  0.16847  1.0000
  C   C260      1.0  0.16356  0.63279  0.18055  1.0000
  H   H296      1.0  0.02378  0.53683  0.44777  1.0000
  H   H297      1.0  0.17028  0.64453  0.11380  1.0000
  H   H298      1.0  0.15592  0.60593  0.17780  1.0000
  H   H299      1.0  0.16176  0.62945  0.19921  1.0000
  C   C261      1.0  0.09876  0.44634  0.44119  1.0000
  H   H300      1.0  0.04472  0.40346  0.42690  1.0000
  C   C262      1.0  0.01671  0.48793  0.46690  1.0000
  C   C263      1.0  0.06856  0.45101  0.42802  1.0000
  C   C264      1.0  0.08458  0.46073  0.41426  1.0000
  C   C265      1.0  0.09962  0.45844  0.42089  1.0000
  H   H301      1.0  0.09730  0.51519  0.45481  1.0000
  H   H302      1.0  0.08540  0.46978  0.39830  1.0000
  H   H303      1.0  0.11199  0.46587  0.41001  1.0000
  H   H304      1.0  0.01155  0.54289  0.37091  1.0000
  C   C266      1.0  0.23299  0.53131  0.20546  1.0000
  H   H305      1.0  0.06398  0.42432  0.39361  1.0000
  H   H306      1.0  0.11435  0.65980  0.40061  1.0000
  C   C267      1.0  0.20362  0.41303  0.41184  1.0000
  C   C268      1.0  0.20514  0.39858  0.42715  1.0000
  C   C269      1.0  0.19234  0.39066  0.44759  1.0000
  H   H307      1.0  0.04495  0.61273  0.45581  1.0000
  C   C270      1.0  0.17666  0.41187  0.43790  1.0000
  C   C271      1.0  0.18938  0.41967  0.41736  1.0000
  C   C272      1.0  0.05058  0.62594  0.44432  1.0000
  H   H308      1.0  0.16574  0.41708  0.44193  1.0000
  H   H309      1.0  0.18814  0.43090  0.40565  1.0000
  H   H310      1.0  0.12535  0.53280  0.30947  1.0000
  H   H311      1.0  0.21618  0.39357  0.42331  1.0000
  C   C273      1.0  0.20604  0.37551  0.37320  1.0000
  H   H312      1.0  0.22890  0.51556  0.25018  1.0000
  C   C274      1.0  0.08867  0.42369  0.98682  1.0000
  C   C275      1.0  0.08283  0.39720  0.43717  1.0000
  C   C276      1.0  0.98916  0.50068  0.99178  1.0000
  H   H313      1.0  0.06898  0.65137  0.41200  1.0000
  H   H314      1.0  0.13697  0.60108  0.26942  1.0000
  H   H315      1.0  0.06216  0.54568  0.98019  1.0000
  H   H316      1.0  0.20318  0.34235  0.41817  1.0000
  C   C277      1.0  0.00118  0.43395  0.97413  1.0000
  H   H317      1.0  0.22486  0.49352  0.24556  1.0000
  H   H318      1.0  0.21791  0.37377  0.36281  1.0000
  H   H319      1.0  0.11433  0.64234  0.01863  1.0000
  H   H320      1.0  0.12061  0.55461  0.33355  1.0000
  H   H321      1.0  0.10563  0.54191  0.26648  1.0000
  H   H322      1.0  0.12349  0.57985  0.30571  1.0000
  C   C278      1.0  0.99530  0.43102  0.99818  1.0000
  C   C279      1.0  0.22618  0.50176  0.20072  1.0000
  H   H323      1.0  0.06577  0.51306  0.45130  1.0000
  C   C280      1.0  0.08584  0.41076  0.97440  1.0000
  C   C281      1.0  0.99373  0.45207  0.33668  1.0000
  C   C282      1.0  0.18067  0.36130  0.40560  1.0000
  C   C283      1.0  0.99970  0.54210  0.40670  1.0000
  C   C284      1.0  0.05821  0.40438  0.42505  1.0000
  H   H324      1.0  0.08874  0.39010  0.44888  1.0000
  S   S82       1.0  0.22445  0.36107  0.03545  1.0000
  H   H325      1.0  0.13508  0.59342  0.23176  1.0000
  C   C285      1.0  0.00135  0.48035  0.97482  1.0000
  H   H326      1.0  0.17437  0.33552  0.42863  1.0000
  C   C286      1.0  0.19221  0.34517  0.37919  1.0000
  H   H327      1.0  0.21922  0.48787  0.20867  1.0000
  H   H328      1.0  0.22380  0.50672  0.14100  1.0000
  H   H329      1.0  0.98968  0.47290  0.02135  1.0000
  C   C287      1.0  0.20830  0.35538  0.40617  1.0000
  H   H330      1.0  0.16927  0.49747  0.26890  1.0000
  C   C288      1.0  0.13610  0.65568  0.02951  1.0000
  C   C289      1.0  0.23261  0.33937  0.00657  1.0000
  H   H331      1.0  0.01169  0.48256  0.98447  1.0000
  H   H332      1.0  0.00961  0.55051  0.44615  1.0000
  H   H333      1.0  0.05274  0.36020  0.44630  1.0000
  H   H334      1.0  0.20391  0.34367  0.36791  1.0000
  H   H335      1.0  0.05531  0.43171  0.45942  1.0000
  H   H336      1.0  0.10744  0.44209  0.99695  1.0000
  C   C290      1.0  0.02962  0.55526  0.40447  1.0000
  H   H337      1.0  0.23145  0.64964  0.13071  1.0000
  C   C291      1.0  0.02098  0.47656  0.45336  1.0000
  H   H338      1.0  0.04076  0.55499  0.41250  1.0000
  H   H339      1.0  0.03026  0.37651  0.45056  1.0000
  H   H340      1.0  0.22610  0.56028  0.14093  1.0000
  C   C292      1.0  0.00876  0.46734  0.44343  1.0000
  N   N14       1.0  0.04124  0.63857  0.45138  1.0000
  C   C293      1.0  0.01929  0.52397  0.41107  1.0000
  H   H341      1.0  0.10750  0.41183  0.41537  1.0000
  H   H342      1.0  0.00148  0.52709  0.45102  1.0000
  H   H343      1.0  0.21087  0.36516  0.41682  1.0000
  C   C294      1.0  0.02306  0.63183  0.45059  1.0000
  H   H344      1.0  0.02182  0.63176  0.43248  1.0000
  C   C295      1.0  0.22832  0.34143  0.02930  1.0000
  Fe  Fe40      1.0  0.04727  0.49867  0.98134  1.0000
  H   H345      1.0  0.19834  0.37902  0.36055  1.0000
  H   H346      1.0  0.02353  0.52478  0.39220  1.0000
  C   C296      1.0  0.08689  0.41907  0.40211  1.0000
  H   H347      1.0  0.21010  0.38678  0.38107  1.0000
  C   C297      1.0  0.22160  0.43932  0.44719  1.0000
  Fe  Fe41      1.0  0.23209  0.38795  0.01069  1.0000
  H   H348      1.0  0.06897  0.36332  0.46267  1.0000
  H   H349      1.0  0.01478  0.63971  0.45758  1.0000
  H   H350      1.0  0.22089  0.35522  0.39577  1.0000
  H   H351      1.0  0.19977  0.49957  0.26044  1.0000
  C   C298      1.0  0.15994  0.37792  0.41591  1.0000
  H   H352      1.0  0.07890  0.52979  0.32874  1.0000
  H   H353      1.0  0.10845  0.52307  0.29693  1.0000
  H   H354      1.0  0.08280  0.53405  0.29798  1.0000
  C   C299      1.0  0.12908  0.58377  0.24784  1.0000
  C   C300      1.0  0.23479  0.43116  0.45117  1.0000
  H   H355      1.0  0.05009  0.62448  0.42640  1.0000
  H   H356      1.0  0.11865  0.48049  0.44984  1.0000
  H   H357      1.0  0.18146  0.38782  0.38776  1.0000
  C   C301      1.0  0.08275  0.43682  0.45521  1.0000
  C   C302      1.0  0.98790  0.48108  0.46056  1.0000
  H   H358      1.0  0.08027  0.55114  0.31257  1.0000
  C   C303      1.0  0.11705  0.49361  0.45112  1.0000
  H   H359      1.0  0.11927  0.56377  0.23071  1.0000
  C   C304      1.0  0.09988  0.65194  0.43609  1.0000
  Fe  Fe42      1.0  0.22581  0.41484  0.97257  1.0000
  C   C305      1.0  0.06768  0.43923  0.44869  1.0000
  C   C306      1.0  0.99187  0.46957  0.44639  1.0000
  H   H360      1.0  0.99925  0.50268  0.00197  1.0000
  H   H361      1.0  0.15596  0.38988  0.41297  1.0000
  H   H362      1.0  0.99088  0.43344  0.31513  1.0000
  C   C307      1.0  0.17805  0.39725  0.45305  1.0000
  N   N15       1.0  0.19653  0.35951  0.39121  1.0000
  H   H363      1.0  0.13991  0.36594  0.44660  1.0000
  H   H364      1.0  0.99980  0.46696  0.97204  1.0000
  N   N16       1.0  0.01485  0.53998  0.41589  1.0000
  N   N17       1.0  0.14319  0.50131  0.09911  1.0000
  C   C308      1.0  0.13471  0.49221  0.12356  1.0000
  C   C309      1.0  0.16056  0.49843  0.09423  1.0000
  C   C310      1.0  0.14499  0.52018  0.09736  1.0000
  C   C311      1.0  0.13360  0.49539  0.08206  1.0000
  C   C312      1.0  0.11780  0.48221  0.08859  1.0000
  C   C313      1.0  0.13988  0.50315  0.05801  1.0000
  C   C314      1.0  0.10882  0.47744  0.07203  1.0000
  C   C315      1.0  0.13071  0.49836  0.04165  1.0000
  C   C316      1.0  0.11516  0.48560  0.04867  1.0000
  H   H365      1.0  0.13346  0.47796  0.12648  1.0000
  H   H366      1.0  0.14219  0.49706  0.13593  1.0000
  H   H367      1.0  0.12180  0.49443  0.12872  1.0000
  H   H368      1.0  0.16845  0.50622  0.07703  1.0000
  H   H369      1.0  0.15980  0.48447  0.09459  1.0000
  H   H370      1.0  0.16789  0.50230  0.10728  1.0000
  H   H371      1.0  0.13220  0.52289  0.10062  1.0000
  H   H372      1.0  0.15194  0.52503  0.11015  1.0000
  H   H373      1.0  0.15227  0.52832  0.08006  1.0000
  H   H374      1.0  0.11182  0.47568  0.10641  1.0000
  H   H375      1.0  0.15178  0.51325  0.05174  1.0000
  H   H376      1.0  0.09644  0.46788  0.07738  1.0000
  H   H377      1.0  0.13550  0.50479  0.02347  1.0000
  H   H378      1.0  0.10774  0.48228  0.03612  1.0000
  N   N18       1.0  0.22326  0.51307  0.21702  1.0000
  H   H379      1.0  0.01301  0.45869  0.43330  1.0000
  C   C317      1.0  0.06920  0.41644  0.40560  1.0000
  H   H380      1.0  0.03010  0.52150  0.41880  1.0000
  C   C318      1.0  0.20469  0.51181  0.22337  1.0000
  C   C319      1.0  0.19613  0.51751  0.20616  1.0000
  C   C320      1.0  0.19448  0.50450  0.24625  1.0000
  C   C321      1.0  0.17854  0.51610  0.21144  1.0000
  C   C322      1.0  0.17686  0.50317  0.25138  1.0000
  C   C323      1.0  0.16892  0.50896  0.23402  1.0000
  H   H381      1.0  0.03429  0.55580  0.38575  1.0000
  H   H382      1.0  0.01752  0.61823  0.46118  1.0000
  H   H383      1.0  0.00817  0.51231  0.41831  1.0000
  H   H384      1.0  0.12993  0.50203  0.45053  1.0000
  H   H385      1.0  0.18613  0.33238  0.39154  1.0000
  C   C324      1.0  0.05572  0.36417  0.46223  1.0000
  S   S83       1.0  0.06459  0.58707  0.46006  1.0000
  C   C325      1.0  0.09369  0.40944  0.41784  1.0000
  H   H386      1.0  0.17234  0.52044  0.19781  1.0000
  C   C326      1.0  0.12239  0.64150  0.03103  1.0000
  H   H387      1.0  0.15525  0.50779  0.23798  1.0000
  N   N19       1.0  0.12657  0.60909  0.08313  1.0000
  C   C327      1.0  0.11133  0.59497  0.08352  1.0000
  C   C328      1.0  0.14166  0.60183  0.08015  1.0000
  C   C329      1.0  0.12391  0.61381  0.10601  1.0000
  C   C330      1.0  0.12965  0.62486  0.06450  1.0000
  C   C331      1.0  0.11914  0.62625  0.04821  1.0000
  C   C332      1.0  0.14356  0.63956  0.06235  1.0000
  H   H388      1.0  0.98914  0.43869  0.43045  1.0000
  H   H389      1.0  0.11282  0.59005  0.06731  1.0000
  H   H390      1.0  0.10941  0.58338  0.09786  1.0000
  H   H391      1.0  0.09933  0.59926  0.08629  1.0000
  H   H392      1.0  0.14426  0.59839  0.06299  1.0000
  H   H393      1.0  0.13969  0.58977  0.09369  1.0000
  H   H394      1.0  0.15351  0.61099  0.08159  1.0000
  H   H395      1.0  0.11303  0.61986  0.10858  1.0000
  H   H396      1.0  0.12116  0.60226  0.12057  1.0000
  H   H397      1.0  0.13545  0.62302  0.10821  1.0000
  H   H398      1.0  0.10839  0.61572  0.04829  1.0000
  H   H399      1.0  0.15222  0.63941  0.07394  1.0000
  H   H400      1.0  0.20752  0.65582  0.15581  1.0000
  N   N20       1.0  0.10452  0.54496  0.31142  1.0000
  C   C333      1.0  0.08585  0.53979  0.31266  1.0000
  C   C334      1.0  0.11121  0.52938  0.31130  1.0000
  C   C335      1.0  0.10684  0.55078  0.33302  1.0000
  C   C336      1.0  0.11318  0.55845  0.28988  1.0000
  C   C337      1.0  0.12229  0.57563  0.28990  1.0000
  C   C338      1.0  0.11242  0.55461  0.26790  1.0000
  C   C339      1.0  0.13012  0.58803  0.26910  1.0000
  C   C340      1.0  0.12023  0.56708  0.24726  1.0000
  H   H401      1.0  0.02625  0.56766  0.40597  1.0000
  H   H402      1.0  0.11298  0.49867  0.43514  1.0000
  C   C341      1.0  0.10532  0.43167  0.98780  1.0000
  N   N21       1.0  0.05364  0.38186  0.46273  1.0000
  Fe  Fe43      1.0  0.08435  0.60767  0.46848  1.0000
  H   H403      1.0  0.09535  0.42887  0.38745  1.0000
  C   C342      1.0  0.00022  0.54352  0.38270  1.0000
  H   H404      1.0  0.08270  0.48516  0.45771  1.0000
  C   C343      1.0  0.03512  0.38092  0.46524  1.0000
  H   H405      1.0  0.99626  0.45742  0.40630  1.0000
  H   H406      1.0  0.12565  0.38348  0.97426  1.0000
  H   H407      1.0  0.19551  0.44022  0.45903  1.0000
  H   H408      1.0  0.06424  0.62982  0.44544  1.0000
  H   H409      1.0  0.23040  0.54045  0.21660  1.0000
  H   H410      1.0  0.98704  0.54720  0.35499  1.0000
  C   C344      1.0  0.06221  0.66069  0.41680  1.0000
  H   H411      1.0  0.22204  0.50562  0.18447  1.0000
  C   C345      1.0  0.98627  0.54599  0.37342  1.0000
  H   H412      1.0  0.09275  0.54612  0.97464  1.0000
  H   H413      1.0  0.22986  0.53584  0.18857  1.0000
  H   H414      1.0  0.19354  0.37942  0.45930  1.0000
  H   H415      1.0  0.13177  0.43360  0.97772  1.0000
  H   H416      1.0  0.07291  0.40499  0.97304  1.0000
  H   H417      1.0  0.22315  0.44935  0.43194  1.0000
  H   H418      1.0  0.23307  0.34974  0.99219  1.0000
  H   H419      1.0  0.14729  0.41179  0.97516  1.0000
  C   C346      1.0  0.07189  0.55745  0.97053  1.0000
  H   H420      1.0  0.11381  0.52077  0.46985  1.0000
  H   H421      1.0  0.23218  0.50517  0.70207  1.0000
  H   H422      1.0  0.10714  0.59881  0.93560  1.0000
  Fe  Fe44      1.0  0.13976  0.39782  0.49024  1.0000
  S   S84       1.0  0.14300  0.42599  0.49119  1.0000
  Fe  Fe45      1.0  0.10103  0.38734  0.51195  1.0000
  S   S85       1.0  0.10164  0.41507  0.51391  1.0000
  S   S86       1.0  0.07494  0.36799  0.52972  1.0000
  H   H423      1.0  0.09918  0.38265  0.62505  1.0000
  Fe  Fe46      1.0  0.12585  0.41614  0.52693  1.0000
  S   S87       1.0  0.12678  0.42654  0.55983  1.0000
  S   S88       1.0  0.04493  0.47476  0.96686  1.0000
  S   S89       1.0  0.12423  0.38798  0.52713  1.0000
  Fe  Fe47      1.0  0.13998  0.39633  0.86980  1.0000
  S   S90       1.0  0.13270  0.42176  0.86610  1.0000
  S   S91       1.0  0.15685  0.38693  0.89325  1.0000
  Fe  Fe48      1.0  0.11311  0.38088  0.84299  1.0000
  S   S92       1.0  0.10408  0.40513  0.83806  1.0000
  S   S93       1.0  0.10191  0.35598  0.83140  1.0000
  Fe  Fe49      1.0  0.13204  0.41949  0.82940  1.0000
  S   S94       1.0  0.13872  0.44357  0.80030  1.0000
  Fe  Fe50      1.0  0.10551  0.40537  0.87489  1.0000
  S   S95       1.0  0.08268  0.40839  0.89959  1.0000
  S   S96       1.0  0.14129  0.39516  0.83209  1.0000
  S   S97       1.0  0.11255  0.38001  0.88075  1.0000
  Fe  Fe51      1.0  0.16923  0.62566  0.64337  1.0000
  S   S98       1.0  0.14087  0.61378  0.65037  1.0000
  S   S99       1.0  0.18864  0.61123  0.63128  1.0000
  H   H424      1.0  0.15741  0.60744  0.53919  1.0000
  C   C347      1.0  0.01038  0.55164  0.49722  1.0000
  Fe  Fe52      1.0  0.13941  0.62755  0.67980  1.0000
  S   S100      1.0  0.12352  0.61239  0.71533  1.0000
  Fe  Fe53      1.0  0.14034  0.63899  0.62831  1.0000
  S   S101      1.0  0.12585  0.64183  0.59952  1.0000
  S   S102      1.0  0.16797  0.63744  0.67471  1.0000
  S   S103      1.0  0.16892  0.65040  0.61941  1.0000
  C   C348      1.0  0.06140  0.35402  0.59944  1.0000
  Fe  Fe54      1.0  0.07776  0.58839  0.51893  1.0000
  N   N22       1.0  0.00917  0.53857  0.87675  1.0000
  S   S104      1.0  0.08521  0.58471  0.55409  1.0000
  C   C349      1.0  0.10166  0.57264  0.95474  1.0000
  N   N23       1.0  0.05079  0.36350  0.87719  1.0000
  H   H425      1.0  0.13287  0.37641  0.79022  1.0000
  S   S105      1.0  0.06704  0.60922  0.50111  1.0000
  S   S106      1.0  0.05703  0.56637  0.51446  1.0000
  Fe  Fe55      1.0  0.05776  0.63041  0.87271  1.0000
  S   S107      1.0  0.07914  0.62373  0.85004  1.0000
  S   S108      1.0  0.05873  0.64729  0.89947  1.0000
  Fe  Fe56      1.0  0.02962  0.60459  0.85798  1.0000
  S   S109      1.0  0.04897  0.59611  0.83440  1.0000
  S   S110      1.0  0.00129  0.59022  0.86995  1.0000
  Fe  Fe57      1.0  0.06321  0.59590  0.86295  1.0000
  S   S111      1.0  0.07468  0.57364  0.87384  1.0000
  Fe  Fe58      1.0  0.06307  0.62456  0.82333  1.0000
  S   S112      1.0  0.07314  0.63868  0.78546  1.0000
  S   S113      1.0  0.04305  0.60251  0.88733  1.0000
  S   S114      1.0  0.04255  0.63320  0.84515  1.0000
  Fe  Fe59      1.0  0.19312  0.48402  0.61949  1.0000
  S   S115      1.0  0.17341  0.48255  0.65147  1.0000
  S   S116      1.0  0.19115  0.47311  0.58703  1.0000
  H   H426      1.0  0.04062  0.33147  0.60228  1.0000
  S   S117      1.0  0.20515  0.50499  0.67077  1.0000
  Fe  Fe60      1.0  0.19270  0.47697  0.67202  1.0000
  S   S118      1.0  0.18981  0.45483  0.70290  1.0000
  Fe  Fe61      1.0  0.18715  0.51084  0.64790  1.0000
  S   S119      1.0  0.16936  0.52829  0.65411  1.0000
  S   S120      1.0  0.21140  0.47622  0.64034  1.0000
  S   S121      1.0  0.20577  0.51264  0.61461  1.0000
  C   C350      1.0  0.06519  0.36162  0.63574  1.0000
  H   H427      1.0  0.01343  0.54076  0.83977  1.0000
  H   H428      1.0  0.00606  0.48956  0.95754  1.0000
  H   H429      1.0  0.09708  0.62242  0.94201  1.0000
  H   H430      1.0  0.05718  0.36346  0.78778  1.0000
  H   H431      1.0  0.00315  0.60001  0.81991  1.0000
  C   C351      1.0  0.06372  0.55850  0.89994  1.0000
  C   C352      1.0  0.04771  0.55923  0.91167  1.0000
  C   C353      1.0  0.03901  0.54709  0.93234  1.0000
  C   C354      1.0  0.04625  0.53406  0.94142  1.0000
  C   C355      1.0  0.06221  0.53312  0.92970  1.0000
  C   C356      1.0  0.07094  0.54536  0.90894  1.0000
  H   H432      1.0  0.04188  0.56898  0.90469  1.0000
  H   H433      1.0  0.03659  0.54580  0.87410  1.0000
  H   H434      1.0  0.08337  0.54478  0.89997  1.0000
  C   C357      1.0  0.15252  0.57187  0.59855  1.0000
  C   C358      1.0  0.18344  0.58817  0.63855  1.0000
  C   C359      1.0  0.16728  0.57825  0.65169  1.0000
  C   C360      1.0  0.16326  0.55995  0.65636  1.0000
  C   C361      1.0  0.17539  0.55134  0.64822  1.0000
  C   C362      1.0  0.19160  0.56124  0.63520  1.0000
  C   C363      1.0  0.19558  0.57959  0.63031  1.0000
  H   H435      1.0  0.15785  0.58465  0.65826  1.0000
  H   H436      1.0  0.15069  0.55238  0.66647  1.0000
  H   H437      1.0  0.20103  0.55477  0.62879  1.0000
  H   H438      1.0  0.20812  0.58716  0.62016  1.0000
  C   C364      1.0  0.10980  0.62022  0.73448  1.0000
  C   C365      1.0  0.10369  0.63452  0.72684  1.0000
  C   C366      1.0  0.09259  0.64016  0.74271  1.0000
  C   C367      1.0  0.08740  0.63145  0.76623  1.0000
  C   C368      1.0  0.09349  0.61715  0.77384  1.0000
  C   C369      1.0  0.10462  0.61155  0.75799  1.0000
  H   H439      1.0  0.10731  0.64112  0.70871  1.0000
  N   N24       1.0  0.16033  0.60254  0.57450  1.0000
  H   H440      1.0  0.08955  0.61035  0.79191  1.0000
  H   H441      1.0  0.10921  0.60040  0.76400  1.0000
  C   C370      1.0  0.11482  0.62563  0.58710  1.0000
  C   C371      1.0  0.10978  0.60795  0.59814  1.0000
  C   C372      1.0  0.10059  0.59565  0.58788  1.0000
  C   C373      1.0  0.09661  0.60081  0.56632  1.0000
  C   C374      1.0  0.10181  0.61846  0.55520  1.0000
  C   C375      1.0  0.11073  0.63080  0.56565  1.0000
  H   H442      1.0  0.11280  0.60375  0.61463  1.0000
  H   H443      1.0  0.09660  0.58201  0.59662  1.0000
  H   H444      1.0  0.09881  0.62262  0.53866  1.0000
  H   H445      1.0  0.11451  0.64445  0.55701  1.0000
  H   H446      1.0  0.03258  0.37903  0.87952  1.0000
  H   H447      1.0  0.07856  0.63022  0.94192  1.0000
  H   H448      1.0  0.02620  0.49499  0.47465  1.0000
  H   H449      1.0  0.07626  0.37655  0.87910  1.0000
  C   C376      1.0  0.08560  0.42580  0.91382  1.0000
  C   C377      1.0  0.07142  0.42842  0.92827  1.0000
  C   C378      1.0  0.07349  0.44212  0.93994  1.0000
  C   C379      1.0  0.08979  0.45318  0.93732  1.0000
  C   C380      1.0  0.10391  0.45062  0.92275  1.0000
  C   C381      1.0  0.10180  0.43709  0.91090  1.0000
  H   H450      1.0  0.05881  0.41979  0.93057  1.0000
  H   H451      1.0  0.02667  0.54784  0.94138  1.0000
  H   H452      1.0  0.11655  0.45916  0.92055  1.0000
  H   H453      1.0  0.11271  0.43551  0.89937  1.0000
  C   C382      1.0  0.15324  0.44663  0.77351  1.0000
  C   C383      1.0  0.16428  0.43596  0.77028  1.0000
  C   C384      1.0  0.17556  0.43874  0.74858  1.0000
  C   C385      1.0  0.17581  0.45214  0.72998  1.0000
  C   C386      1.0  0.16488  0.46289  0.73330  1.0000
  C   C387      1.0  0.15366  0.46015  0.75501  1.0000
  H   H454      1.0  0.16426  0.42570  0.78453  1.0000
  H   H455      1.0  0.18408  0.43044  0.74615  1.0000
  H   H456      1.0  0.16499  0.47327  0.71911  1.0000
  H   H457      1.0  0.14521  0.46852  0.75742  1.0000
  H   H458      1.0  0.01434  0.44101  0.96608  1.0000
  C   C388      1.0  0.04563  0.33486  0.86516  1.0000
  C   C389      1.0  0.07634  0.36046  0.80744  1.0000
  H   H459      1.0  0.07430  0.35518  0.87415  1.0000
  H   H460      1.0  0.07959  0.37394  0.80851  1.0000
  C   C390      1.0  0.06672  0.59786  0.73996  1.0000
  C   C391      1.0  0.14484  0.43962  0.56693  1.0000
  C   C392      1.0  0.16116  0.44494  0.55207  1.0000
  C   C393      1.0  0.17510  0.45519  0.55850  1.0000
  C   C394      1.0  0.17297  0.46030  0.57982  1.0000
  C   C395      1.0  0.15663  0.45506  0.59461  1.0000
  C   C396      1.0  0.14268  0.44480  0.58818  1.0000
  H   H461      1.0  0.16306  0.44111  0.53566  1.0000
  H   H462      1.0  0.18765  0.45916  0.54688  1.0000
  H   H463      1.0  0.15474  0.45889  0.61103  1.0000
  H   H464      1.0  0.13014  0.44084  0.59981  1.0000
  H   H465      1.0  0.00214  0.55561  0.84997  1.0000
  C   C397      1.0  0.08913  0.55765  0.96735  1.0000
  H   H466      1.0  0.03767  0.62557  0.48723  1.0000
  C   C398      1.0  0.04260  0.35158  0.86390  1.0000
  C   C399      1.0  0.03158  0.35606  0.84942  1.0000
  C   C400      1.0  0.19638  0.41333  0.93094  1.0000
  C   C401      1.0  0.19014  0.39520  0.93569  1.0000
  C   C402      1.0  0.17827  0.38741  0.92374  1.0000
  C   C403      1.0  0.17244  0.39758  0.90692  1.0000
  C   C404      1.0  0.17878  0.41572  0.90203  1.0000
  C   C405      1.0  0.19061  0.42351  0.91401  1.0000
  H   H467      1.0  0.12382  0.45197  0.51834  1.0000
  H   H468      1.0  0.17354  0.37337  0.92765  1.0000
  H   H469      1.0  0.17460  0.42377  0.88902  1.0000
  H   H470      1.0  0.19538  0.43754  0.91012  1.0000
  C   C406      1.0  0.12086  0.46450  0.51603  1.0000
  H   H471      1.0  0.10032  0.33439  0.76172  1.0000
  C   C407      1.0  0.99880  0.53607  0.49677  1.0000
  Fe  Fe62      1.0  0.07491  0.56778  0.48085  1.0000
  H   H472      1.0  0.15835  0.41060  0.94742  1.0000
  C   C408      1.0  0.06288  0.34836  0.52451  1.0000
  H   H473      1.0  0.08153  0.34703  0.49531  1.0000
  C   C409      1.0  0.09339  0.65692  0.90006  1.0000
  C   C410      1.0  0.12354  0.56218  0.58087  1.0000
  C   C411      1.0  0.14190  0.55489  0.60606  1.0000
  H   H474      1.0  0.16547  0.62672  0.54907  1.0000
  H   H475      1.0  0.11212  0.55850  0.57422  1.0000
  H   H476      1.0  0.05076  0.61199  0.75651  1.0000
  H   H477      1.0  0.05302  0.38923  0.88392  1.0000
  C   C412      1.0  0.14797  0.41558  0.95623  1.0000
  S   S122      1.0  0.13652  0.65190  0.65838  1.0000
  H   H478      1.0  0.10382  0.59338  0.68696  1.0000
  N   N25       1.0  0.13125  0.40844  0.95064  1.0000
  H   H479      1.0  0.07749  0.61958  0.90405  1.0000
  H   H480      1.0  0.05106  0.38779  0.85523  1.0000
  N   N26       1.0  0.10450  0.49310  0.47248  1.0000
  H   H481      1.0  0.08909  0.46757  0.47277  1.0000
  C   C413      1.0  0.00621  0.56750  0.49208  1.0000
  C   C414      1.0  0.15735  0.64612  0.73832  1.0000
  C   C415      1.0  0.08876  0.35291  0.74506  1.0000
  C   C416      1.0  0.06360  0.35446  0.79562  1.0000
  H   H482      1.0  0.16338  0.57502  0.60628  1.0000
  C   C417      1.0  0.06704  0.57219  0.96104  1.0000
  S   S123      1.0  0.09295  0.47078  0.95112  1.0000
  H   H483      1.0  0.12106  0.40940  0.91991  1.0000
  H   H484      1.0  0.04164  0.34567  0.55297  1.0000
  H   H485      1.0  0.00216  0.52389  0.50097  1.0000
  S   S124      1.0  0.02051  0.58725  0.49280  1.0000
  C   C418      1.0  0.04241  0.33673  0.63566  1.0000
  C   C419      1.0  0.02417  0.34445  0.83705  1.0000
  C   C420      1.0  0.04648  0.34015  0.53886  1.0000
  N   N27       1.0  0.08550  0.38001  0.59784  1.0000
  H   H486      1.0  0.21173  0.40171  0.50161  1.0000
  H   H487      1.0  0.05413  0.33065  0.87539  1.0000
  C   C421      1.0  0.07987  0.39191  0.58088  1.0000
  C   C422      1.0  0.07069  0.36533  0.61113  1.0000
  C   C423      1.0  0.09698  0.58749  0.94528  1.0000
  C   C424      1.0  0.09385  0.59060  0.67676  1.0000
  C   C425      1.0  0.08151  0.60822  0.91245  1.0000
  C   C426      1.0  0.11083  0.48695  0.49320  1.0000
  H   H488      1.0  0.08497  0.57752  0.68506  1.0000
  C   C427      1.0  0.06456  0.61769  0.69816  1.0000
  C   C428      1.0  0.07679  0.65800  0.90878  1.0000
  H   H489      1.0  0.07892  0.34301  0.74142  1.0000
  C   C429      1.0  0.13283  0.41509  0.92558  1.0000
  H   H490      1.0  0.11059  0.38370  0.57628  1.0000
  Fe  Fe63      1.0  0.16535  0.66130  0.65134  1.0000
  H   H491      1.0  0.06954  0.39692  0.58972  1.0000
  H   H492      1.0  0.09067  0.40333  0.57096  1.0000
  H   H493      1.0  0.07487  0.38545  0.56771  1.0000
  C   C430      1.0  0.07951  0.58774  0.94813  1.0000
  C   C431      1.0  0.07275  0.60041  0.65909  1.0000
  C   C432      1.0  0.06890  0.34100  0.50637  1.0000
  C   C433      1.0  0.09729  0.62117  0.66373  1.0000
  S   S125      1.0  0.16214  0.38679  0.47876  1.0000
  Fe  Fe64      1.0  0.04800  0.58703  0.49388  1.0000
  C   C434      1.0  0.10085  0.34808  0.75653  1.0000
  H   H494      1.0  0.16177  0.64403  0.75479  1.0000
  N   N28       1.0  0.07495  0.60369  0.93798  1.0000
  H   H495      1.0  0.03099  0.35188  0.90825  1.0000
  C   C435      1.0  0.05920  0.33700  0.79359  1.0000
  H   H496      1.0  0.06788  0.52312  0.93678  1.0000
  S   S126      1.0  0.09631  0.58822  0.48653  1.0000
  H   H497      1.0  0.08780  0.65116  0.73671  1.0000
  H   H498      1.0  0.02430  0.55984  0.84810  1.0000
  H   H499      1.0  0.22513  0.47144  0.68475  1.0000
  H   H500      1.0  0.18349  0.59723  0.58316  1.0000
  C   C436      1.0  0.08790  0.48095  0.47302  1.0000
  H   H501      1.0  0.16085  0.60366  0.60989  1.0000
  C   C437      1.0  0.05863  0.38680  0.48366  1.0000
  H   H502      1.0  0.18722  0.61571  0.56048  1.0000
  H   H503      1.0  0.12674  0.65064  0.75244  1.0000
  H   H504      1.0  0.14491  0.61240  0.59900  1.0000
  C   C438      1.0  0.22727  0.49208  0.71416  1.0000
  C   C439      1.0  0.01234  0.54901  0.85265  1.0000
  C   C440      1.0  0.11344  0.49685  0.51022  1.0000
  H   H505      1.0  0.06235  0.58827  0.66730  1.0000
  H   H506      1.0  0.16760  0.64515  0.72422  1.0000
  H   H507      1.0  0.04949  0.59137  0.93516  1.0000
  C   C441      1.0  0.00539  0.54959  0.89315  1.0000
  H   H508      1.0  0.02246  0.55134  0.50182  1.0000
  H   H509      1.0  0.13937  0.38527  0.94651  1.0000
  C   C442      1.0  0.02540  0.53405  0.87946  1.0000
  C   C443      1.0  0.12815  0.38918  0.95533  1.0000
  Fe  Fe65      1.0  0.22282  0.50460  0.63775  1.0000
  H   H510      1.0  0.16708  0.62442  0.59003  1.0000
  C   C444      1.0  0.04521  0.35530  0.90236  1.0000
  N   N29       1.0  0.12638  0.39240  0.76212  1.0000
  C   C445      1.0  0.11743  0.40096  0.77845  1.0000
  C   C446      1.0  0.13914  0.38572  0.77319  1.0000
  C   C447      1.0  0.13599  0.40568  0.74068  1.0000
  H   H511      1.0  0.10982  0.39125  0.79455  1.0000
  H   H512      1.0  0.12663  0.41116  0.78360  1.0000
  H   H513      1.0  0.10853  0.40755  0.77090  1.0000
  H   H514      1.0  0.14871  0.39641  0.77688  1.0000
  H   H515      1.0  0.14647  0.37917  0.76180  1.0000
  H   H516      1.0  0.12769  0.41285  0.73259  1.0000
  H   H517      1.0  0.14618  0.41584  0.74416  1.0000
  H   H518      1.0  0.14227  0.39963  0.72749  1.0000
  H   H519      1.0  0.10035  0.39641  0.74037  1.0000
  C   C448      1.0  0.11967  0.49067  0.52938  1.0000
  H   H520      1.0  0.08480  0.39661  0.62222  1.0000
  N   N30       1.0  0.09703  0.49613  0.88061  1.0000
  C   C449      1.0  0.08021  0.49106  0.89755  1.0000
  C   C450      1.0  0.11064  0.50041  0.89348  1.0000
  C   C451      1.0  0.09753  0.51208  0.86360  1.0000
  C   C452      1.0  0.10006  0.48238  0.86830  1.0000
  C   C453      1.0  0.11547  0.48537  0.85130  1.0000
  C   C454      1.0  0.08816  0.46574  0.87283  1.0000
  C   C455      1.0  0.11871  0.47258  0.83953  1.0000
  C   C456      1.0  0.09152  0.45309  0.86086  1.0000
  C   C457      1.0  0.10675  0.45649  0.84430  1.0000
  H   H521      1.0  0.07916  0.47954  0.91145  1.0000
  H   H522      1.0  0.07834  0.50160  0.90662  1.0000
  H   H523      1.0  0.06933  0.48804  0.88896  1.0000
  H   H524      1.0  0.12353  0.50638  0.88179  1.0000
  H   H525      1.0  0.11146  0.48849  0.90523  1.0000
  H   H526      1.0  0.10815  0.50969  0.90451  1.0000
  H   H527      1.0  0.09462  0.52248  0.87234  1.0000
  H   H528      1.0  0.11031  0.51786  0.85156  1.0000
  H   H529      1.0  0.08800  0.50919  0.85283  1.0000
  H   H530      1.0  0.12523  0.49759  0.84708  1.0000
  H   H531      1.0  0.07631  0.46196  0.88587  1.0000
  H   H532      1.0  0.13059  0.47503  0.82667  1.0000
  H   H533      1.0  0.08241  0.44039  0.86484  1.0000
  H   H534      1.0  0.10939  0.44658  0.83525  1.0000
  C   C458      1.0  0.98743  0.58333  0.85208  1.0000
  C   C459      1.0  0.99431  0.52313  0.88144  1.0000
  H   H535      1.0  0.05031  0.37781  0.49997  1.0000
  H   H536      1.0  0.10081  0.58976  0.65949  1.0000
  H   H537      1.0  0.06361  0.62595  0.68249  1.0000
  C   C460      1.0  0.10102  0.38309  0.74487  1.0000
  C   C461      1.0  0.07470  0.60561  0.69731  1.0000
  C   C462      1.0  0.11459  0.47050  0.49687  1.0000
  C   C463      1.0  0.13763  0.66186  0.75193  1.0000
  H   H538      1.0  0.11080  0.50943  0.50914  1.0000
  H   H539      1.0  0.02830  0.52484  0.86859  1.0000
  H   H540      1.0  0.21412  0.48621  0.71216  1.0000
  H   H541      1.0  0.99454  0.43019  0.94187  1.0000
  H   H542      1.0  0.01585  0.56182  0.88963  1.0000
  H   H543      1.0  0.10487  0.40156  0.60196  1.0000
  H   H544      1.0  0.13516  0.42950  0.92122  1.0000
  H   H545      1.0  0.07968  0.59869  0.64230  1.0000
  H   H546      1.0  0.09132  0.63207  0.65979  1.0000
  C   C464      1.0  0.20206  0.42072  0.48225  1.0000
  C   C465      1.0  0.15647  0.61343  0.55449  1.0000
  C   C466      1.0  0.13416  0.57917  0.57313  1.0000
  H   H547      1.0  0.99670  0.49853  0.48172  1.0000
  C   C467      1.0  0.99125  0.59020  0.82815  1.0000
  Fe  Fe66      1.0  0.11862  0.42261  0.47824  1.0000
  C   C468      1.0  0.11363  0.37865  0.75640  1.0000
  C   C469      1.0  0.12743  0.55005  0.59724  1.0000
  H   H548      1.0  0.14494  0.54550  0.61892  1.0000
  H   H549      1.0  0.09573  0.61179  0.90721  1.0000
  H   H550      1.0  0.13022  0.58787  0.56062  1.0000
  C   C470      1.0  0.04659  0.38059  0.87372  1.0000
  C   C471      1.0  0.14908  0.58453  0.58171  1.0000
  H   H551      1.0  0.14344  0.61555  0.55891  1.0000
  H   H552      1.0  0.18048  0.59430  0.55501  1.0000
  C   C472      1.0  0.99040  0.56765  0.48625  1.0000
  H   H553      1.0  0.19441  0.38717  0.94862  1.0000
  H   H554      1.0  0.02505  0.52834  0.89785  1.0000
  H   H555      1.0  0.07194  0.38632  0.48436  1.0000
  H   H556      1.0  0.11917  0.53690  0.60321  1.0000
  H   H557      1.0  0.05321  0.61405  0.93455  1.0000
  C   C473      1.0  0.17860  0.60236  0.56796  1.0000
  S   S127      1.0  0.21085  0.42405  0.94600  1.0000
  H   H558      1.0  0.09566  0.65007  0.88640  1.0000
  C   C474      1.0  0.15820  0.61113  0.59419  1.0000
  H   H559      1.0  0.04710  0.35419  0.47751  1.0000
  H   H560      1.0  0.01615  0.34819  0.82560  1.0000
  H   H561      1.0  0.07900  0.37394  0.73107  1.0000
  C   C475      1.0  0.21466  0.41242  0.48660  1.0000
  C   C476      1.0  0.08502  0.34907  0.81729  1.0000
  H   H562      1.0  0.04728  0.34472  0.66648  1.0000
  H   H563      1.0  0.12167  0.49843  0.54211  1.0000
  H   H564      1.0  0.99345  0.55360  0.89180  1.0000
  H   H565      1.0  0.11722  0.38276  0.94865  1.0000
  C   C477      1.0  0.11307  0.36066  0.76230  1.0000
  C   C478      1.0  0.08879  0.37036  0.73933  1.0000
  H   H566      1.0  0.05078  0.36416  0.91292  1.0000
  H   H567      1.0  0.12162  0.35587  0.77189  1.0000
  H   H568      1.0  0.10235  0.36312  0.59690  1.0000
  H   H569      1.0  0.22561  0.49406  0.73213  1.0000
  H   H570      1.0  0.14034  0.65983  0.76955  1.0000
  H   H571      1.0  0.22506  0.50378  0.57094  1.0000
  H   H572      1.0  0.00527  0.50393  0.89995  1.0000
  H   H573      1.0  0.06663  0.61107  0.65440  1.0000
  H   H574      1.0  0.07144  0.36934  0.64622  1.0000
  C   C479      1.0  0.07555  0.59573  0.71895  1.0000
  H   H575      1.0  0.00369  0.54261  0.91143  1.0000
  C   C480      1.0  0.00015  0.49002  0.47070  1.0000
  H   H576      1.0  0.10534  0.62077  0.64694  1.0000
  H   H577      1.0  0.07432  0.37248  0.85112  1.0000
  C   C481      1.0  0.06969  0.36705  0.87013  1.0000
  H   H578      1.0  0.11508  0.57275  0.95225  1.0000
  H   H579      1.0  0.08342  0.58671  0.72024  1.0000
  H   H580      1.0  0.02863  0.36850  0.84706  1.0000
  C   C482      1.0  0.99434  0.50635  0.89362  1.0000
  N   N31       1.0  0.08447  0.60432  0.67473  1.0000
  C   C483      1.0  0.05619  0.60187  0.94263  1.0000
  C   C484      1.0  0.05126  0.34749  0.64769  1.0000
  H   H581      1.0  0.05779  0.40025  0.48433  1.0000
  H   H582      1.0  0.10592  0.62465  0.67544  1.0000
  H   H583      1.0  0.09680  0.39642  0.95236  1.0000
  C   C485      1.0  0.12342  0.47455  0.53224  1.0000
  H   H584      1.0  0.22247  0.48020  0.55343  1.0000
  H   H585      1.0  0.18937  0.41636  0.49368  1.0000
  H   H586      1.0  0.04932  0.34317  0.90679  1.0000
  H   H587      1.0  0.13664  0.65527  0.71099  1.0000
  H   H588      1.0  0.06250  0.44401  0.95110  1.0000
  H   H589      1.0  0.09424  0.36710  0.57118  1.0000
  H   H590      1.0  0.14359  0.41181  0.91481  1.0000
  C   C486      1.0  0.09870  0.37316  0.58502  1.0000
  H   H591      1.0  0.12832  0.46978  0.54704  1.0000
  H   H592      1.0  0.07662  0.59711  0.90471  1.0000
  C   C487      1.0  0.09386  0.39058  0.61257  1.0000
  H   H593      1.0  0.06799  0.59063  0.75627  1.0000
  H   H594      1.0  0.15247  0.43001  0.95032  1.0000
  C   C488      1.0  0.05589  0.61978  0.71928  1.0000
  C   C489      1.0  0.05701  0.60991  0.74013  1.0000
  H   H595      1.0  0.05046  0.59914  0.96154  1.0000
  H   H596      1.0  0.09174  0.51130  0.48557  1.0000
  C   C490      1.0  0.23208  0.46387  0.72636  1.0000
  C   C491      1.0  0.04748  0.33997  0.61158  1.0000
  H   H597      1.0  0.11280  0.46214  0.48486  1.0000
  H   H598      1.0  0.04856  0.62937  0.71956  1.0000
  C   C492      1.0  0.08285  0.61837  0.94765  1.0000
  H   H599      1.0  0.14614  0.63495  0.73970  1.0000
  H   H600      1.0  0.22663  0.47435  0.59234  1.0000
  S   S128      1.0  0.11641  0.39494  0.47494  1.0000
  H   H601      1.0  0.06491  0.35591  0.58078  1.0000
  C   C493      1.0  0.08050  0.33157  0.81547  1.0000
  H   H602      1.0  0.08204  0.42762  0.47100  1.0000
  H   H603      1.0  0.07816  0.48003  0.48896  1.0000
  H   H604      1.0  0.23053  0.46533  0.74458  1.0000
  H   H605      1.0  0.21916  0.45692  0.72468  1.0000
  H   H606      1.0  0.02718  0.37143  0.48139  1.0000
  H   H607      1.0  0.07938  0.61494  0.96695  1.0000
  C   C494      1.0  0.11678  0.41339  0.96383  1.0000
  H   H608      1.0  0.98705  0.57986  0.48235  1.0000
  C   C495      1.0  0.09965  0.40581  0.96280  1.0000
  C   C496      1.0  0.98994  0.42778  0.96045  1.0000
  H   H609      1.0  0.05343  0.57094  0.96393  1.0000
  S   S129      1.0  0.03500  0.51936  0.96756  1.0000
  H   H610      1.0  0.08593  0.64843  0.47114  1.0000
  S   S130      1.0  0.04359  0.33058  0.77735  1.0000
  C   C497      1.0  0.23081  0.41755  0.47138  1.0000
  S   S131      1.0  0.07703  0.54246  0.47073  1.0000
  C   C498      1.0  0.10177  0.51081  0.47072  1.0000
  H   H611      1.0  0.03390  0.64660  0.48343  1.0000
  H   H612      1.0  0.98721  0.66225  0.95944  1.0000
  C   C499      1.0  0.04209  0.63892  0.47574  1.0000
  H   H613      1.0  0.05545  0.64467  0.47693  1.0000
  C   C500      1.0  0.16030  0.73954  0.42623  1.0000
  H   H614      1.0  0.03609  0.94815  0.26429  1.0000
  Fe  Fe67      1.0  0.01702  0.89413  0.36897  1.0000
  S   S132      1.0  0.01553  0.88705  0.33477  1.0000
  S   S133      1.0  0.03922  0.91689  0.36892  1.0000
  C   C501      1.0  0.13787  0.70249  0.12192  1.0000
  C   C502      1.0  0.98568  0.90292  0.46313  1.0000
  Fe  Fe68      1.0  0.00345  0.85935  0.35463  1.0000
  S   S134      1.0  0.01354  0.83859  0.33938  1.0000
  H   H615      1.0  0.12477  0.71949  0.10632  1.0000
  S   S135      1.0  0.00716  0.86612  0.38870  1.0000
  H   H616      1.0  0.07350  0.97854  0.33208  1.0000
  H   H617      1.0  0.09878  0.67569  0.07298  1.0000
  C   C503      1.0  0.16129  0.76308  0.45853  1.0000
  S   S136      1.0  0.18192  0.82649  0.45351  1.0000
  Fe  Fe69      1.0  0.10816  0.72028  0.99654  1.0000
  H   H618      1.0  0.98586  0.93803  0.27941  1.0000
  S   S137      1.0  0.11524  0.96849  0.43683  1.0000
  H   H619      1.0  0.08142  0.76229  0.00872  1.0000
  C   C504      1.0  0.14829  0.91250  0.45896  1.0000
  H   H620      1.0  0.14244  0.71127  0.13251  1.0000
  C   C505      1.0  0.13317  0.74636  0.43652  1.0000
  H   H621      1.0  0.20579  0.78421  0.29235  1.0000
  H   H622      1.0  0.01766  0.95292  0.28064  1.0000
  H   H623      1.0  0.98594  0.96770  0.28542  1.0000
  H   H624      1.0  0.01553  0.70445  0.98475  1.0000
  Fe  Fe70      1.0  0.13640  0.76293  0.37208  1.0000
  S   S138      1.0  0.13795  0.73507  0.37697  1.0000
  S   S139      1.0  0.15950  0.78127  0.38027  1.0000
  Fe  Fe71      1.0  0.10266  0.75338  0.35453  1.0000
  S   S140      1.0  0.10205  0.72509  0.35956  1.0000
  S   S141      1.0  0.08221  0.76384  0.33940  1.0000
  Fe  Fe72      1.0  0.10985  0.72780  0.39292  1.0000
  S   S142      1.0  0.09860  0.70913  0.42801  1.0000
  Fe  Fe73      1.0  0.13027  0.73491  0.34302  1.0000
  S   S143      1.0  0.14111  0.71952  0.31873  1.0000
  S   S144      1.0  0.10830  0.75557  0.38960  1.0000
  S   S145      1.0  0.13079  0.76325  0.33630  1.0000
  H   H625      1.0  0.11092  0.73641  0.24071  1.0000
  S   S146      1.0  0.11695  0.69579  0.99921  1.0000
  C   C506      1.0  0.01436  0.92948  0.43745  1.0000
  Fe  Fe74      1.0  0.14273  0.71284  0.99884  1.0000
  S   S147      1.0  0.15629  0.70147  0.02541  1.0000
  S   S148      1.0  0.13355  0.73696  0.99849  1.0000
  Fe  Fe75      1.0  0.00046  0.72848  0.28749  1.0000
  S   S149      1.0  0.02333  0.72053  0.29916  1.0000
  S   S150      1.0  0.00061  0.75459  0.26634  1.0000
  H   H626      1.0  0.20936  0.67718  0.16091  1.0000
  S   S151      1.0  0.01376  0.73230  0.00770  1.0000
  H   H627      1.0  0.18028  0.86364  0.43752  1.0000
  Fe  Fe76      1.0  0.18752  0.72848  0.13489  1.0000
  S   S152      1.0  0.20418  0.71018  0.13942  1.0000
  S   S153      1.0  0.18202  0.74059  0.10087  1.0000
  Fe  Fe77      1.0  0.18111  0.73008  0.18614  1.0000
  S   S154      1.0  0.19680  0.71140  0.19443  1.0000
  S   S155      1.0  0.17110  0.74623  0.21001  1.0000
  Fe  Fe78      1.0  0.21592  0.72705  0.16176  1.0000
  H   H628      1.0  0.08525  0.67947  0.46654  1.0000
  Fe  Fe79      1.0  0.18377  0.69611  0.17157  1.0000
  H   H629      1.0  0.05209  0.76266  0.02264  1.0000
  S   S156      1.0  0.20093  0.74648  0.15453  1.0000
  S   S157      1.0  0.16638  0.71366  0.16598  1.0000
  H   H630      1.0  0.15024  0.68333  0.13506  1.0000
  H   H631      1.0  0.22093  0.66344  0.17404  1.0000
  S   S158      1.0  0.21905  0.86946  0.44677  1.0000
  C   C507      1.0  0.16441  0.71273  0.04554  1.0000
  C   C508      1.0  0.16527  0.73038  0.04393  1.0000
  C   C509      1.0  0.17079  0.73868  0.06096  1.0000
  C   C510      1.0  0.17566  0.72951  0.07967  1.0000
  C   C511      1.0  0.17528  0.71198  0.08096  1.0000
  C   C512      1.0  0.16968  0.70364  0.06395  1.0000
  H   H632      1.0  0.16159  0.73764  0.02963  1.0000
  H   H633      1.0  0.17126  0.75230  0.05968  1.0000
  H   H634      1.0  0.17912  0.70484  0.09521  1.0000
  H   H635      1.0  0.16915  0.69002  0.06530  1.0000
  C   C513      1.0  0.03314  0.72788  0.01257  1.0000
  C   C514      1.0  0.03591  0.72390  0.03493  1.0000
  C   C515      1.0  0.05184  0.72139  0.03805  1.0000
  C   C516      1.0  0.06503  0.72257  0.01893  1.0000
  C   C517      1.0  0.06213  0.72615  0.99658  1.0000
  C   C518      1.0  0.04629  0.72894  0.99343  1.0000
  H   H636      1.0  0.02591  0.72306  0.04979  1.0000
  H   H637      1.0  0.09066  0.68003  0.30707  1.0000
  N   N32       1.0  0.01291  0.96530  0.97617  1.0000
  H   H638      1.0  0.07217  0.72709  0.98174  1.0000
  C   C519      1.0  0.09954  0.68725  0.43097  1.0000
  C   C520      1.0  0.10789  0.68166  0.41250  1.0000
  H   H639      1.0  0.15675  0.73203  0.41324  1.0000
  H   H640      1.0  0.22149  0.78568  0.25318  1.0000
  C   C521      1.0  0.00962  0.92785  0.46183  1.0000
  C   C522      1.0  0.09162  0.67519  0.45214  1.0000
  H   H641      1.0  0.11409  0.69084  0.39615  1.0000
  C   C523      1.0  0.02620  0.94402  0.28088  1.0000
  H   H642      1.0  0.01420  0.98773  0.33996  1.0000
  C   C524      1.0  0.04425  0.80329  0.33905  1.0000
  C   C525      1.0  0.14970  0.72735  0.28861  1.0000
  C   C526      1.0  0.15293  0.74492  0.27780  1.0000
  C   C527      1.0  0.15971  0.75055  0.25370  1.0000
  C   C528      1.0  0.16331  0.73869  0.24029  1.0000
  C   C529      1.0  0.16031  0.72118  0.25115  1.0000
  C   C530      1.0  0.15353  0.71555  0.27523  1.0000
  H   H643      1.0  0.15034  0.75418  0.28799  1.0000
  H   H644      1.0  0.16216  0.76416  0.24540  1.0000
  H   H645      1.0  0.16303  0.71194  0.24098  1.0000
  H   H646      1.0  0.15116  0.70195  0.28352  1.0000
  C   C531      1.0  0.06571  0.75156  0.32863  1.0000
  C   C532      1.0  0.06157  0.73335  0.33306  1.0000
  C   C533      1.0  0.04831  0.72411  0.32441  1.0000
  C   C534      1.0  0.03901  0.73286  0.31113  1.0000
  C   C535      1.0  0.04309  0.75106  0.30677  1.0000
  C   C536      1.0  0.05638  0.76032  0.31540  1.0000
  H   H647      1.0  0.06850  0.72634  0.34325  1.0000
  H   H648      1.0  0.04527  0.71005  0.32798  1.0000
  H   H649      1.0  0.03611  0.75802  0.29655  1.0000
  H   H650      1.0  0.05951  0.77437  0.31167  1.0000
  C   C537      1.0  0.16530  0.79426  0.40044  1.0000
  C   C538      1.0  0.18281  0.80108  0.39970  1.0000
  C   C539      1.0  0.18815  0.81095  0.41560  1.0000
  C   C540      1.0  0.17603  0.81428  0.43258  1.0000
  C   C541      1.0  0.15850  0.80751  0.43331  1.0000
  C   C542      1.0  0.15316  0.79762  0.41741  1.0000
  H   H651      1.0  0.19239  0.79866  0.38673  1.0000
  H   H652      1.0  0.20167  0.81600  0.41467  1.0000
  C   C543      1.0  0.15219  0.89697  0.45579  1.0000
  H   H653      1.0  0.13965  0.79265  0.41826  1.0000
  H   H654      1.0  0.04568  0.90158  0.44939  1.0000
  Fe  Fe80      1.0  0.99029  0.98532  0.06416  1.0000
  C   C544      1.0  0.04784  0.92030  0.39318  1.0000
  C   C545      1.0  0.06009  0.93603  0.39127  1.0000
  C   C546      1.0  0.06702  0.93943  0.41028  1.0000
  C   C547      1.0  0.06195  0.92699  0.43128  1.0000
  C   C548      1.0  0.04970  0.91127  0.43319  1.0000
  C   C549      1.0  0.04262  0.90794  0.41425  1.0000
  H   H655      1.0  0.06431  0.94558  0.37496  1.0000
  H   H656      1.0  0.07650  0.95155  0.40860  1.0000
  H   H657      1.0  0.13301  0.71281  0.43900  1.0000
  H   H658      1.0  0.03321  0.89578  0.41593  1.0000
  C   C550      1.0  0.00873  0.77055  0.14451  1.0000
  C   C551      1.0  0.00810  0.81428  0.31275  1.0000
  H   H659      1.0  0.17180  0.96988  0.43664  1.0000
  H   H660      1.0  0.04694  0.78217  0.39160  1.0000
  H   H661      1.0  0.02132  0.82015  0.30368  1.0000
  H   H662      1.0  0.17607  0.66808  0.13524  1.0000
  C   C552      1.0  0.05685  0.99233  0.28669  1.0000
  H   H663      1.0  0.99358  0.92665  0.05083  1.0000
  N   N33       1.0  0.03416  0.94363  0.30123  1.0000
  C   C553      1.0  0.22520  0.68106  0.11656  1.0000
  H   H664      1.0  0.14497  0.71114  0.46104  1.0000
  N   N34       1.0  0.03699  0.79202  0.36264  1.0000
  H   H665      1.0  0.03192  0.95072  0.38299  1.0000
  C   C554      1.0  0.05846  0.76871  0.00467  1.0000
  H   H666      1.0  0.15738  0.66579  0.04372  1.0000
  H   H667      1.0  0.06631  0.70399  0.39819  1.0000
  C   C555      1.0  0.21301  0.77330  0.26300  1.0000
  H   H668      1.0  0.00341  0.96692  0.01145  1.0000
  C   C556      1.0  0.15117  0.74556  0.46402  1.0000
  H   H669      1.0  0.02499  0.93682  0.33848  1.0000
  N   N35       1.0  0.14539  0.73750  0.44554  1.0000
  H   H670      1.0  0.13930  0.76029  0.42798  1.0000
  H   H671      1.0  0.99634  0.76566  0.09498  1.0000
  H   H672      1.0  0.02182  0.99335  0.99764  1.0000
  H   H673      1.0  0.05294  0.79750  0.32832  1.0000
  H   H674      1.0  0.15328  0.84652  0.46711  1.0000
  H   H675      1.0  0.05433  0.97390  0.38855  1.0000
  H   H676      1.0  0.01194  0.94713  0.32281  1.0000
  H   H677      1.0  0.10202  0.75246  0.98735  1.0000
  C   C557      1.0  0.06105  0.69076  0.40847  1.0000
  S   S159      1.0  0.23355  0.83452  0.45363  1.0000
  C   C558      1.0  0.06835  0.67762  0.40300  1.0000
  C   C559      1.0  0.21630  0.74296  0.22171  1.0000
  H   H678      1.0  0.08604  0.70611  0.07929  1.0000
  C   C560      1.0  0.00053  0.82163  0.33008  1.0000
  H   H679      1.0  0.06661  0.72696  0.27304  1.0000
  H   H680      1.0  0.00727  0.93766  0.99045  1.0000
  H   H681      1.0  0.01787  0.93096  0.28127  1.0000
  H   H682      1.0  0.12469  0.75337  0.24971  1.0000
  H   H683      1.0  0.18909  0.88617  0.43709  1.0000
  C   C561      1.0  0.03189  0.75926  0.36612  1.0000
  C   C562      1.0  0.21266  0.66938  0.10927  1.0000
  C   C563      1.0  0.01149  0.77367  0.35257  1.0000
  C   C564      1.0  0.02296  0.98492  0.35078  1.0000
  H   H684      1.0  0.01352  0.75474  0.12020  1.0000
  H   H685      1.0  0.02670  0.73184  0.36656  1.0000
  C   C565      1.0  0.04635  0.97641  0.28566  1.0000
  H   H686      1.0  0.11166  0.72296  0.04912  1.0000
  H   H687      1.0  0.02800  0.94698  0.97132  1.0000
  S   S160      1.0  0.08510  0.72028  0.02387  1.0000
  C   C566      1.0  0.04736  0.68698  0.42756  1.0000
  C   C567      1.0  0.99874  0.79930  0.30712  1.0000
  H   H688      1.0  0.16577  0.75327  0.41625  1.0000
  C   C568      1.0  0.18363  0.97026  0.44243  1.0000
  C   C569      1.0  0.99924  0.96693  0.99481  1.0000
  C   C570      1.0  0.00489  0.91820  0.42642  1.0000
  C   C571      1.0  0.20607  0.98493  0.45874  1.0000
  H   H689      1.0  0.05596  0.93517  0.28678  1.0000
  H   H690      1.0  0.03655  0.91796  0.29834  1.0000
  C   C572      1.0  0.06591  0.97797  0.31911  1.0000
  C   C573      1.0  0.01832  0.94953  0.98483  1.0000
  C   C574      1.0  0.99019  0.78917  0.13618  1.0000
  C   C575      1.0  0.00753  0.74286  0.35464  1.0000
  H   H691      1.0  0.02417  0.95090  0.99997  1.0000
  H   H692      1.0  0.99935  0.80636  0.07508  1.0000
  H   H693      1.0  0.05162  0.81653  0.33954  1.0000
  H   H694      1.0  0.11048  0.77299  0.99465  1.0000
  C   C576      1.0  0.98769  0.81175  0.00888  1.0000
  H   H695      1.0  0.13965  0.91762  0.44965  1.0000
  H   H696      1.0  0.18225  0.72992  0.30087  1.0000
  C   C577      1.0  0.03075  0.99372  0.98197  1.0000
  H   H697      1.0  0.02564  0.93898  0.42658  1.0000
  H   H698      1.0  0.12339  0.73107  0.26105  1.0000
  C   C578      1.0  0.13716  0.67588  0.10891  1.0000
  C   C579      1.0  0.00209  0.75790  0.34947  1.0000
  Fe  Fe81      1.0  0.10769  0.99384  0.43179  1.0000
  H   H699      1.0  0.14324  0.86210  0.45513  1.0000
  H   H700      1.0  0.99114  0.66851  0.02033  1.0000
  H   H701      1.0  0.01899  0.79202  0.39345  1.0000
  C   C580      1.0  0.20590  0.95656  0.45077  1.0000
  H   H702      1.0  0.13867  0.66745  0.01607  1.0000
  H   H703      1.0  0.14894  0.80990  0.44631  1.0000
  C   C581      1.0  0.98745  0.79616  0.07614  1.0000
  C   C582      1.0  0.04414  0.93043  0.30095  1.0000
  H   H704      1.0  0.12429  0.71611  0.46643  1.0000
  C   C583      1.0  0.04937  0.77582  0.98981  1.0000
  C   C584      1.0  0.19098  0.95633  0.44254  1.0000
  H   H705      1.0  0.01123  0.95738  0.35986  1.0000
  H   H706      1.0  0.05477  0.95070  0.33150  1.0000
  H   H707      1.0  0.03911  0.97685  0.27235  1.0000
  H   H708      1.0  0.00049  0.73075  0.35160  1.0000
  C   C585      1.0  0.07543  0.76858  0.99632  1.0000
  H   H709      1.0  0.98762  0.71536  0.20104  1.0000
  H   H710      1.0  0.12403  0.67164  0.08238  1.0000
  C   C586      1.0  0.05150  0.79080  0.37390  1.0000
  C   C587      1.0  0.00020  0.78276  0.15040  1.0000
  C   C588      1.0  0.13661  0.71858  0.45354  1.0000
  H   H711      1.0  0.21074  0.94521  0.45068  1.0000
  C   C589      1.0  0.04533  0.96069  0.30150  1.0000
  H   H712      1.0  0.01620  0.80452  0.36722  1.0000
  C   C590      1.0  0.17688  0.87578  0.44065  1.0000
  H   H713      1.0  0.98610  0.78454  0.02177  1.0000
  H   H714      1.0  0.04901  0.69742  0.28576  1.0000
  S   S161      1.0  0.98878  0.89691  0.98384  1.0000
  H   H715      1.0  0.06056  0.67359  0.30283  1.0000
  H   H716      1.0  0.12778  0.74018  0.42341  1.0000
  C   C591      1.0  0.01453  0.69530  0.97367  1.0000
  C   C592      1.0  0.05526  0.96202  0.31847  1.0000
  H   H717      1.0  0.00683  0.78497  0.34798  1.0000
  C   C593      1.0  0.02012  0.93788  0.32238  1.0000
  H   H718      1.0  0.05860  0.80378  0.37566  1.0000
  C   C594      1.0  0.02229  0.74350  0.36314  1.0000
  H   H719      1.0  0.09778  0.74321  0.30988  1.0000
  H   H720      1.0  0.21996  0.73242  0.23268  1.0000
  H   H721      1.0  0.22198  0.77336  0.19455  1.0000
  C   C595      1.0  0.22459  0.70382  0.08387  1.0000
  C   C596      1.0  0.02593  0.80067  0.37626  1.0000
  N   N36       1.0  0.11110  0.70137  0.07636  1.0000
  C   C597      1.0  0.09500  0.70302  0.09039  1.0000
  C   C598      1.0  0.12001  0.71840  0.06017  1.0000
  C   C599      1.0  0.10631  0.68866  0.06204  1.0000
  C   C600      1.0  0.12217  0.69631  0.09187  1.0000
  C   C601      1.0  0.12729  0.68052  0.09331  1.0000
  C   C602      1.0  0.12786  0.70717  0.10662  1.0000
  N   N37       1.0  0.23141  0.67502  0.13744  1.0000
  H   H722      1.0  0.02862  0.96214  0.44639  1.0000
  C   C603      1.0  0.14238  0.68681  0.12323  1.0000
  H   H723      1.0  0.09736  0.71367  0.09977  1.0000
  H   H724      1.0  0.08820  0.69073  0.10350  1.0000
  H   H725      1.0  0.12425  0.72890  0.06914  1.0000
  C   C604      1.0  0.04574  0.97766  0.37819  1.0000
  H   H726      1.0  0.13153  0.71740  0.04829  1.0000
  H   H727      1.0  0.11790  0.68718  0.05056  1.0000
  H   H728      1.0  0.09821  0.69301  0.05036  1.0000
  H   H729      1.0  0.14105  0.66388  0.10969  1.0000
  C   C605      1.0  0.00737  0.76472  0.12432  1.0000
  C   C606      1.0  0.10944  0.76630  0.98012  1.0000
  H   H730      1.0  0.22893  0.71728  0.07421  1.0000
  H   H731      1.0  0.99118  0.78584  0.06801  1.0000
  H   H732      1.0  0.11659  0.73635  0.30058  1.0000
  H   H733      1.0  0.04801  0.92688  0.31760  1.0000
  S   S162      1.0  0.99114  0.89939  0.37410  1.0000
  H   H734      1.0  0.00123  0.81507  0.00084  1.0000
  H   H735      1.0  0.04357  0.94881  0.44852  1.0000
  N   N38       1.0  0.22930  0.97140  0.46891  1.0000
  H   H736      1.0  0.06117  0.78579  0.36344  1.0000
  S   S163      1.0  0.08002  0.98131  0.44898  1.0000
  H   H737      1.0  0.03345  0.81306  0.37918  1.0000
  H   H738      1.0  0.01591  0.76515  0.15607  1.0000
  H   H739      1.0  0.05397  0.71862  0.05540  1.0000
  C   C607      1.0  0.20613  0.67490  0.09014  1.0000
  H   H740      1.0  0.04355  0.75888  0.37185  1.0000
  H   H741      1.0  0.12214  0.74579  0.45065  1.0000
  H   H742      1.0  0.01172  0.92479  0.32333  1.0000
  H   H743      1.0  0.03410  0.80516  0.32973  1.0000
  H   H744      1.0  0.18493  0.94518  0.43646  1.0000
  C   C608      1.0  0.02676  0.77491  0.36083  1.0000
  N   N39       1.0  0.22033  0.75955  0.22945  1.0000
  S   S164      1.0  0.99035  0.84645  0.99250  1.0000
  C   C609      1.0  0.06670  0.99309  0.30322  1.0000
  H   H745      1.0  0.99507  0.97897  0.98980  1.0000
  C   C610      1.0  0.21089  0.75836  0.25335  1.0000
  C   C611      1.0  0.19959  0.74261  0.26774  1.0000
  C   C612      1.0  0.02136  0.96782  0.36183  1.0000
  H   H746      1.0  0.16507  0.77072  0.44092  1.0000
  H   H747      1.0  0.00478  0.79365  0.29399  1.0000
  S   S165      1.0  0.98992  0.95699  0.06739  1.0000
  H   H748      1.0  0.11628  0.75820  0.29003  1.0000
  H   H749      1.0  0.20186  0.77000  0.21446  1.0000
  C   C613      1.0  0.20415  0.77259  0.28544  1.0000
  C   C614      1.0  0.99868  0.68319  0.97528  1.0000
  H   H750      1.0  0.04188  0.69732  0.43188  1.0000
  H   H751      1.0  0.00900  0.91936  0.40789  1.0000
  C   C615      1.0  0.04094  0.67004  0.44130  1.0000
  C   C616      1.0  0.21673  0.66752  0.15781  1.0000
  H   H752      1.0  0.16967  0.87956  0.42748  1.0000
  H   H753      1.0  0.04430  0.73221  0.97607  1.0000
  H   H754      1.0  0.19691  0.73059  0.26195  1.0000
  C   C617      1.0  0.21196  0.69213  0.07761  1.0000
  H   H755      1.0  0.10915  0.70962  0.29447  1.0000
  N   N40       1.0  0.10126  0.73944  0.27504  1.0000
  C   C618      1.0  0.09250  0.75273  0.26673  1.0000
  C   C619      1.0  0.10828  0.74448  0.29467  1.0000
  C   C620      1.0  0.11566  0.74012  0.25582  1.0000
  C   C621      1.0  0.08988  0.72149  0.28253  1.0000
  C   C622      1.0  0.07263  0.71727  0.28004  1.0000
  C   C623      1.0  0.09609  0.70749  0.29230  1.0000
  C   C624      1.0  0.06227  0.70017  0.28731  1.0000
  C   C625      1.0  0.08561  0.69043  0.29951  1.0000
  C   C626      1.0  0.06872  0.68679  0.29707  1.0000
  H   H756      1.0  0.08151  0.75286  0.28049  1.0000
  H   H757      1.0  0.10128  0.76612  0.26186  1.0000
  H   H758      1.0  0.08774  0.75045  0.25105  1.0000
  C   C627      1.0  0.19312  0.75698  0.29901  1.0000
  C   C628      1.0  0.21396  0.97099  0.45908  1.0000
  H   H759      1.0  0.18609  0.75646  0.31631  1.0000
  C   C629      1.0  0.10801  0.66406  0.41506  1.0000
  S   S166      1.0  0.17404  0.66658  0.18480  1.0000
  C   C630      1.0  0.03289  0.96415  0.37516  1.0000
  N   N41       1.0  0.16689  0.87319  0.46468  1.0000
  H   H760      1.0  0.17072  0.73496  0.43280  1.0000
  H   H761      1.0  0.99657  0.96948  0.13097  1.0000
  H   H762      1.0  0.22042  0.78624  0.21556  1.0000
  C   C631      1.0  0.19098  0.74201  0.29026  1.0000
  C   C632      1.0  0.21599  0.77289  0.21286  1.0000
  H   H763      1.0  0.22338  0.74432  0.20357  1.0000
  Fe  Fe82      1.0  0.20783  0.84048  0.46046  1.0000
  H   H764      1.0  0.20240  0.73861  0.22193  1.0000
  H   H765      1.0  0.99066  0.75745  0.34263  1.0000
  Fe  Fe83      1.0  0.08791  0.95655  0.45643  1.0000
  S   S167      1.0  0.07011  0.93078  0.45576  1.0000
  H   H766      1.0  0.03033  0.66777  0.45594  1.0000
  C   C633      1.0  0.08386  0.77575  0.97259  1.0000
  Fe  Fe84      1.0  0.98894  0.89040  0.34136  1.0000
  H   H767      1.0  0.14654  0.89064  0.44357  1.0000
  C   C634      1.0  0.03366  0.95368  0.45858  1.0000
  C   C635      1.0  0.99741  0.77101  0.11001  1.0000
  H   H768      1.0  0.98763  0.95576  0.99878  1.0000
  H   H769      1.0  0.98891  0.71084  0.98827  1.0000
  H   H770      1.0  0.20660  0.69650  0.06310  1.0000
  H   H771      1.0  0.12272  0.76613  0.97226  1.0000
  C   C636      1.0  0.98846  0.78340  0.11548  1.0000
  H   H772      1.0  0.03602  0.77529  0.99627  1.0000
  H   H773      1.0  0.99612  0.69161  0.01833  1.0000
  Fe  Fe85      1.0  0.99014  0.72859  0.03631  1.0000
  H   H774      1.0  0.00089  0.78680  0.16656  1.0000
  C   C637      1.0  0.99062  0.90494  0.43921  1.0000
  C   C638      1.0  0.23133  0.69841  0.10286  1.0000
  C   C639      1.0  0.98646  0.68031  0.01611  1.0000
  S   S168      1.0  0.98628  0.74523  0.06208  1.0000
  H   H775      1.0  0.04068  0.96213  0.46849  1.0000
  C   C640      1.0  0.19125  0.98459  0.45031  1.0000
  H   H776      1.0  0.07930  0.68075  0.38846  1.0000
  H   H777      1.0  0.19636  0.66582  0.08516  1.0000
  C   C641      1.0  0.16316  0.88980  0.46811  1.0000
  C   C642      1.0  0.15072  0.85937  0.46835  1.0000
  H   H778      1.0  0.98604  0.70212  0.16690  1.0000
  H   H779      1.0  0.18527  0.99525  0.45063  1.0000
  H   H780      1.0  0.21097  0.99601  0.46568  1.0000
  C   C643      1.0  0.04731  0.99538  0.36785  1.0000
  H   H781      1.0  0.07736  0.99611  0.38521  1.0000
  H   H782      1.0  0.16620  0.76848  0.51192  1.0000
  C   C644      1.0  0.23486  0.98261  0.83456  1.0000
  H   H783      1.0  0.19179  0.97286  0.85467  1.0000
  H   H784      1.0  0.04054  0.97241  0.93931  1.0000
  H   H785      1.0  0.20438  0.74208  0.61473  1.0000
  C   C645      1.0  0.03749  0.99101  0.52734  1.0000
  C   C646      1.0  0.22437  0.97049  0.49409  1.0000
  S   S169      1.0  0.00597  0.92795  0.91684  1.0000
  C   C647      1.0  0.23221  0.82504  0.57969  1.0000
  Fe  Fe86      1.0  0.09247  0.99467  0.87794  1.0000
  C   C648      1.0  0.18315  0.97758  0.51516  1.0000
  C   C649      1.0  0.01358  0.67260  0.94372  1.0000
  C   C650      1.0  0.16659  0.91512  0.48599  1.0000
  C   C651      1.0  0.11276  0.79319  0.95340  1.0000
  N   N42       1.0  0.01968  0.93911  0.47426  1.0000
  H   H786      1.0  0.17936  0.89546  0.49276  1.0000
  C   C652      1.0  0.04182  0.98941  0.82635  1.0000
  H   H787      1.0  0.98787  0.90970  0.88652  1.0000
  H   H788      1.0  0.04883  0.98546  0.83907  1.0000
  H   H789      1.0  0.18312  0.97635  0.61859  1.0000
  H   H790      1.0  0.11284  0.80083  0.96708  1.0000
  H   H791      1.0  0.18992  0.87551  0.47765  1.0000
  S   S170      1.0  0.08206  0.97161  0.90853  1.0000
  H   H792      1.0  0.20423  0.77166  0.59646  1.0000
  C   C653      1.0  0.10155  0.76583  0.94375  1.0000
  H   H793      1.0  0.23529  0.96988  0.50252  1.0000
  C   C654      1.0  0.00828  0.94693  0.48877  1.0000
  Fe  Fe87      1.0  0.22202  0.87123  0.48285  1.0000
  S   S171      1.0  0.21321  0.89115  0.50150  1.0000
  S   S172      1.0  0.14278  0.96593  0.48447  1.0000
  H   H794      1.0  0.99340  0.93999  0.87560  1.0000
  H   H795      1.0  0.18107  0.71253  0.75656  1.0000
  S   S173      1.0  0.20882  0.84266  0.49735  1.0000
  C   C655      1.0  0.21464  0.95315  0.84714  1.0000
  C   C656      1.0  0.02761  0.92835  0.48944  1.0000
  H   H796      1.0  0.01334  0.66384  0.93196  1.0000
  C   C657      1.0  0.20559  0.97886  0.85336  1.0000
  C   C658      1.0  0.10714  0.66471  0.90909  1.0000
  H   H797      1.0  0.21514  0.98851  0.80632  1.0000
  Fe  Fe88      1.0  0.12465  0.70307  0.96027  1.0000
  H   H798      1.0  0.22575  0.87943  0.78909  1.0000
  Fe  Fe89      1.0  0.14043  0.74143  0.95951  1.0000
  H   H799      1.0  0.00064  0.95349  0.47838  1.0000
  H   H800      1.0  0.20986  0.69530  0.70285  1.0000
  C   C659      1.0  0.15204  0.74492  0.50480  1.0000
  S   S174      1.0  0.15103  0.76868  0.93563  1.0000
  H   H801      1.0  0.07995  0.78918  0.93992  1.0000
  S   S175      1.0  0.12225  0.68284  0.93799  1.0000
  H   H802      1.0  0.19087  0.97042  0.52353  1.0000
  S   S176      1.0  0.17401  0.68950  0.65482  1.0000
  H   H803      1.0  0.13281  0.67368  0.74872  1.0000
  H   H804      1.0  0.02572  0.96598  0.68222  1.0000
  H   H805      1.0  0.22225  0.82908  0.59001  1.0000
  C   C660      1.0  0.22610  0.72335  0.65912  1.0000
  C   C661      1.0  0.22494  0.70694  0.65377  1.0000
  C   C662      1.0  0.20911  0.69632  0.65257  1.0000
  C   C663      1.0  0.19425  0.70206  0.65662  1.0000
  C   C664      1.0  0.19540  0.71845  0.66205  1.0000
  C   C665      1.0  0.21121  0.72903  0.66340  1.0000
  C   C666      1.0  0.08801  0.67525  0.93507  1.0000
  H   H806      1.0  0.20844  0.68376  0.64833  1.0000
  H   H807      1.0  0.18395  0.72296  0.66537  1.0000
  H   H808      1.0  0.21185  0.74152  0.66780  1.0000
  N   N43       1.0  0.22707  0.76262  0.59659  1.0000
  C   C667      1.0  0.22855  0.93348  0.52818  1.0000
  H   H809      1.0  0.15841  0.66506  0.69677  1.0000
  C   C668      1.0  0.02625  0.97821  0.82537  1.0000
  H   H810      1.0  0.22817  0.94393  0.47568  1.0000
  C   C669      1.0  0.99837  0.96008  0.69342  1.0000
  C   C670      1.0  0.20752  0.80154  0.91171  1.0000
  C   C671      1.0  0.19484  0.80638  0.90131  1.0000
  C   C672      1.0  0.17767  0.79612  0.90872  1.0000
  C   C673      1.0  0.17299  0.78079  0.92636  1.0000
  C   C674      1.0  0.18571  0.77585  0.93655  1.0000
  C   C675      1.0  0.20282  0.78623  0.92937  1.0000
  H   H811      1.0  0.19820  0.81812  0.88777  1.0000
  H   H812      1.0  0.16796  0.80009  0.90071  1.0000
  C   C676      1.0  0.00513  0.96265  0.95614  1.0000
  H   H813      1.0  0.21248  0.78233  0.93757  1.0000
  H   H814      1.0  0.03103  0.92288  0.94462  1.0000
  C   C677      1.0  0.14809  0.66557  0.71106  1.0000
  H   H815      1.0  0.22243  0.94052  0.53933  1.0000
  S   S177      1.0  0.09370  0.96033  0.49067  1.0000
  C   C678      1.0  0.22903  0.76904  0.61787  1.0000
  C   C679      1.0  0.02098  0.98034  0.53801  1.0000
  C   C680      1.0  0.00772  0.96777  0.60768  1.0000
  H   H816      1.0  0.22203  0.85711  0.78801  1.0000
  H   H817      1.0  0.13494  0.98931  0.65640  1.0000
  H   H818      1.0  0.99316  0.95176  0.96135  1.0000
  C   C681      1.0  0.16229  0.99564  0.49425  1.0000
  C   C682      1.0  0.18179  0.70330  0.74559  1.0000
  C   C683      1.0  0.16204  0.76211  0.49872  1.0000
  H   H819      1.0  0.10862  0.80039  0.93887  1.0000
  H   H820      1.0  0.09264  0.75253  0.94986  1.0000
  C   C684      1.0  0.21863  0.91894  0.52233  1.0000
  H   H821      1.0  0.01872  0.93985  0.62191  1.0000
  H   H822      1.0  0.20488  0.91497  0.52896  1.0000
  C   C685      1.0  0.15538  0.92149  0.47415  1.0000
  C   C686      1.0  0.18373  0.67995  0.71682  1.0000
  H   H823      1.0  0.21677  0.87217  0.76629  1.0000
  S   S178      1.0  0.99703  0.94874  0.55452  1.0000
  H   H824      1.0  0.01082  0.98618  0.54358  1.0000
  H   H825      1.0  0.15224  0.93349  0.47666  1.0000
  H   H826      1.0  0.17086  0.98599  0.56168  1.0000
  H   H827      1.0  0.02156  0.97066  0.60783  1.0000
  H   H828      1.0  0.13872  0.72344  0.49372  1.0000
  C   C687      1.0  0.16947  0.96868  0.50685  1.0000
  H   H829      1.0  0.14536  0.67847  0.70636  1.0000
  C   C688      1.0  0.04127  0.98220  0.94942  1.0000
  Fe  Fe90      1.0  0.99020  0.90488  0.94561  1.0000
  H   H830      1.0  0.15602  0.68892  0.75992  1.0000
  C   C689      1.0  0.04738  0.96562  0.52227  1.0000
  C   C690      1.0  0.03104  0.95488  0.53400  1.0000
  C   C691      1.0  0.01773  0.96225  0.54143  1.0000
  N   N44       1.0  0.17865  0.99481  0.59113  1.0000
  H   H831      1.0  0.01568  0.95688  0.49639  1.0000
  H   H832      1.0  0.05754  0.95991  0.51617  1.0000
  H   H833      1.0  0.02864  0.94087  0.53697  1.0000
  H   H834      1.0  0.17223  0.92227  0.49761  1.0000
  C   C692      1.0  0.02749  0.93910  0.91435  1.0000
  C   C693      1.0  0.03682  0.93420  0.93050  1.0000
  C   C694      1.0  0.05372  0.94405  0.92836  1.0000
  C   C695      1.0  0.06133  0.95878  0.91008  1.0000
  C   C696      1.0  0.05198  0.96358  0.89391  1.0000
  C   C697      1.0  0.03513  0.95378  0.89606  1.0000
  H   H835      1.0  0.14238  0.85771  0.48578  1.0000
  C   C698      1.0  0.05735  0.78328  0.96661  1.0000
  H   H836      1.0  0.05773  0.97490  0.87978  1.0000
  H   H837      1.0  0.02799  0.95765  0.88349  1.0000
  H   H838      1.0  0.06091  0.94031  0.94093  1.0000
  C   C699      1.0  0.22547  0.92827  0.86141  1.0000
  C   C700      1.0  0.16798  0.67746  0.73290  1.0000
  C   C701      1.0  0.16133  0.99522  0.60277  1.0000
  C   C702      1.0  0.21727  0.74403  0.60339  1.0000
  H   H839      1.0  0.21545  0.73871  0.58791  1.0000
  H   H840      1.0  0.18234  0.76413  0.95015  1.0000
  S   S179      1.0  0.11405  0.72652  0.95753  1.0000
  S   S180      1.0  0.22922  0.81441  0.90403  1.0000
  C   C703      1.0  0.10457  0.67398  0.92656  1.0000
  N   N45       1.0  0.10157  0.77522  0.96283  1.0000
  H   H841      1.0  0.11991  0.66369  0.90236  1.0000
  H   H842      1.0  0.03687  0.93645  0.49722  1.0000
  C   C704      1.0  0.00511  0.93713  0.62056  1.0000
  C   C705      1.0  0.07436  0.78335  0.95808  1.0000
  C   C706      1.0  0.19589  0.92328  0.85894  1.0000
  S   S181      1.0  0.22599  0.97787  0.56269  1.0000
  H   H843      1.0  0.01363  0.95896  0.94244  1.0000
  H   H844      1.0  0.02136  0.96561  0.83732  1.0000
  H   H845      1.0  0.22811  0.92373  0.80283  1.0000
  C   C707      1.0  0.14657  0.73670  0.48779  1.0000
  H   H846      1.0  0.18504  0.67160  0.70478  1.0000
  H   H847      1.0  0.20809  0.71606  0.72809  1.0000
  C   C708      1.0  0.22816  0.94615  0.85293  1.0000
  N   N46       1.0  0.99739  0.95154  0.62470  1.0000
  H   H848      1.0  0.22394  0.73577  0.61323  1.0000
  H   H849      1.0  0.20796  0.97656  0.87116  1.0000
  H   H850      1.0  0.17902  0.85377  0.47842  1.0000
  C   C709      1.0  0.19703  0.70530  0.72964  1.0000
  C   C710      1.0  0.02809  0.98058  0.96908  1.0000
  C   C711      1.0  0.98627  0.92209  0.84275  1.0000
  C   C712      1.0  0.05063  0.98373  0.51897  1.0000
  H   H851      1.0  0.00192  0.97462  0.94807  1.0000
  C   C713      1.0  0.22637  0.90938  0.50825  1.0000
  H   H852      1.0  0.12629  0.79315  0.94641  1.0000
  C   C714      1.0  0.02941  0.69591  0.95771  1.0000
  H   H853      1.0  0.06142  0.66793  0.93340  1.0000
  C   C715      1.0  0.18920  0.98964  0.60745  1.0000
  S   S182      1.0  0.09648  0.99207  0.84086  1.0000
  Fe  Fe91      1.0  0.08793  0.98613  0.48145  1.0000
  C   C716      1.0  0.01355  0.96185  0.67751  1.0000
  N   N47       1.0  0.21703  0.97193  0.83760  1.0000
  H   H854      1.0  0.08581  0.68221  0.94862  1.0000
  H   H855      1.0  0.99950  0.92310  0.84544  1.0000
  H   H856      1.0  0.14843  0.73792  0.52283  1.0000
  C   C717      1.0  0.21266  0.97445  0.81455  1.0000
  H   H857      1.0  0.99797  0.92474  0.63329  1.0000
  H   H858      1.0  0.04045  0.68518  0.93025  1.0000
  H   H859      1.0  0.20764  0.99317  0.84712  1.0000
  S   S183      1.0  0.15144  0.71831  0.95987  1.0000
  H   H860      1.0  0.99922  0.93722  0.50383  1.0000
  H   H861      1.0  0.20207  0.98931  0.59808  1.0000
  H   H862      1.0  0.11456  0.76441  0.93675  1.0000
  H   H863      1.0  0.18994  0.98126  0.56725  1.0000
  H   H864      1.0  0.16704  0.95476  0.50850  1.0000
  H   H865      1.0  0.18344  0.91433  0.86110  1.0000
  H   H866      1.0  0.22298  0.82999  0.54829  1.0000
  C   C718      1.0  0.07421  0.66718  0.92635  1.0000
  H   H867      1.0  0.22040  0.96864  0.80252  1.0000
  S   S184      1.0  0.99761  0.96913  0.80780  1.0000
  C   C719      1.0  0.13911  0.99217  0.63764  1.0000
  H   H868      1.0  0.17035  0.86464  0.49924  1.0000
  H   H869      1.0  0.20768  0.90294  0.86996  1.0000
  C   C720      1.0  0.15555  0.99150  0.62732  1.0000
  H   H870      1.0  0.01796  0.91870  0.50397  1.0000
  H   H871      1.0  0.21370  0.95871  0.50294  1.0000
  Fe  Fe92      1.0  0.23528  0.83881  0.48941  1.0000
  C   C721      1.0  0.17715  0.98219  0.57596  1.0000
  H   H872      1.0  0.09765  0.77269  0.92874  1.0000
  H   H873      1.0  0.21651  0.76905  0.62861  1.0000
  C   C722      1.0  0.99739  0.95387  0.64858  1.0000
  C   C723      1.0  0.15901  0.97765  0.49620  1.0000
  C   C724      1.0  0.02893  0.68461  0.94273  1.0000
  H   H874      1.0  0.21361  0.76777  0.56945  1.0000
  C   C725      1.0  0.22634  0.87058  0.77692  1.0000
  H   H875      1.0  0.00501  0.93488  0.60279  1.0000
  H   H876      1.0  0.00707  0.96694  0.58957  1.0000
  C   C726      1.0  0.99502  0.91417  0.47435  1.0000
  C   C727      1.0  0.20946  0.91684  0.86414  1.0000
  H   H877      1.0  0.03492  0.92095  0.47944  1.0000
  H   H878      1.0  0.02526  0.96038  0.64369  1.0000
  H   H879      1.0  0.98733  0.93309  0.82810  1.0000
  H   H880      1.0  0.22355  0.78676  0.57902  1.0000
  H   H881      1.0  0.00315  0.97920  0.61120  1.0000
  H   H882      1.0  0.16961  0.96893  0.58602  1.0000
  H   H883      1.0  0.99874  0.96309  0.71023  1.0000
  H   H884      1.0  0.16347  0.98808  0.63896  1.0000
  C   C728      1.0  0.01313  0.95870  0.65547  1.0000
  C   C729      1.0  0.23265  0.82568  0.55604  1.0000
  C   C730      1.0  0.16743  0.68959  0.74733  1.0000
  H   H885      1.0  0.99100  0.91180  0.49301  1.0000
  C   C731      1.0  0.01708  0.98328  0.80891  1.0000
  H   H886      1.0  0.19891  0.96854  0.81553  1.0000
  C   C732      1.0  0.17052  0.89955  0.48307  1.0000
  C   C733      1.0  0.21672  0.77265  0.58476  1.0000
  C   C734      1.0  0.19802  0.69359  0.71541  1.0000
  C   C735      1.0  0.16663  0.77119  0.47563  1.0000
  C   C736      1.0  0.19836  0.94116  0.85068  1.0000
  H   H887      1.0  0.18748  0.94554  0.84678  1.0000
  C   C737      1.0  0.17693  0.86655  0.48077  1.0000
  Fe  Fe93      1.0  0.12075  0.97429  0.47066  1.0000
  H   H888      1.0  0.05020  0.78881  0.95512  1.0000
  H   H889      1.0  0.04138  0.70522  0.95697  1.0000
  H   H890      1.0  0.23405  0.79651  0.77717  1.0000
  H   H891      1.0  0.23473  0.76090  0.62944  1.0000
  H   H892      1.0  0.22011  0.98207  0.49769  1.0000
  C   C738      1.0  0.99862  0.67183  0.95970  1.0000
  H   H893      1.0  0.23417  0.86003  0.73763  1.0000
  C   C739      1.0  0.18677  0.99567  0.51248  1.0000
  H   H894      1.0  0.23512  0.86550  0.55363  1.0000
  S   S185      1.0  0.23188  0.99563  0.61920  1.0000
  N   N48       1.0  0.15296  0.66306  0.73374  1.0000
  H   H895      1.0  0.17430  0.78465  0.47091  1.0000
  Fe  Fe94      1.0  0.40062  0.28491  0.38150  1.0000
  S   S186      1.0  0.42061  0.27208  0.36805  1.0000
  S   S187      1.0  0.40065  0.30033  0.40983  1.0000
  Fe  Fe95      1.0  0.37751  0.27236  0.34893  1.0000
  S   S188      1.0  0.39585  0.25819  0.33354  1.0000
  S   S189      1.0  0.35545  0.28020  0.33497  1.0000
  Fe  Fe96      1.0  0.39828  0.24931  0.37047  1.0000
  S   S190      1.0  0.40285  0.22296  0.38385  1.0000
  Fe  Fe97      1.0  0.41668  0.28178  0.33254  1.0000
  S   S191      1.0  0.43919  0.29651  0.30256  1.0000
  S   S192      1.0  0.37827  0.26159  0.38605  1.0000
  S   S193      1.0  0.39846  0.29656  0.34583  1.0000
  C   C740      1.0  0.36105  0.11300  0.97286  1.0000
  Fe  Fe98      1.0  0.41553  0.24823  0.01412  1.0000
  S   S194      1.0  0.40860  0.27255  0.99943  1.0000
  S   S195      1.0  0.42708  0.24434  0.04625  1.0000
  Fe  Fe99      1.0  0.38427  0.25448  0.99586  1.0000
  S   S196      1.0  0.36033  0.26418  0.00518  1.0000
  H   H896      1.0  0.40407  0.32429  0.43960  1.0000
  S   S197      1.0  0.39040  0.23013  0.01287  1.0000
  H   H897      1.0  0.37596  0.14114  0.38459  1.0000
  H   H898      1.0  0.40512  0.26583  0.41838  1.0000
  Fe  Fe100     1.0  0.27564  0.25654  0.27754  1.0000
  S   S198      1.0  0.28238  0.28137  0.25035  1.0000
  S   S199      1.0  0.29570  0.24412  0.29031  1.0000
  Fe  Fe101     1.0  0.26205  0.28887  0.27383  1.0000
  C   C741      1.0  0.41380  0.03178  0.15600  1.0000
  Fe  Fe102     1.0  0.26120  0.26821  0.23513  1.0000
  S   S200      1.0  0.26310  0.27512  0.19596  1.0000
  S   S201      1.0  0.25633  0.26460  0.30196  1.0000
  S   S202      1.0  0.25595  0.24242  0.26038  1.0000
  H   H899      1.0  0.31648  0.25829  0.12018  1.0000
  S   S203      1.0  0.26052  0.25979  0.05646  1.0000
  H   H900      1.0  0.39415  0.14309  0.43701  1.0000
  H   H901      1.0  0.31289  0.23066  0.06458  1.0000
  Fe  Fe103     1.0  0.25910  0.23748  0.03867  1.0000
  S   S204      1.0  0.28059  0.22599  0.02449  1.0000
  H   H902      1.0  0.28652  0.23633  0.06815  1.0000
  N   N49       1.0  0.48438  0.16694  0.09117  1.0000
  C   C742      1.0  0.42573  0.00496  0.34245  1.0000
  H   H903      1.0  0.44790  0.03751  0.07597  1.0000
  Fe  Fe104     1.0  0.45611  0.06132  0.38460  1.0000
  S   S205      1.0  0.46880  0.03942  0.38675  1.0000
  S   S206      1.0  0.43755  0.05969  0.41819  1.0000
  H   H904      1.0  0.47863  0.21864  0.11334  1.0000
  H   H905      1.0  0.40307  0.17745  0.44955  1.0000
  Fe  Fe105     1.0  0.46486  0.03832  0.35111  1.0000
  S   S207      1.0  0.46035  0.01157  0.34262  1.0000
  H   H906      1.0  0.42281  0.15723  0.37825  1.0000
  S   S208      1.0  0.45013  0.05874  0.34995  1.0000
  H   H907      1.0  0.41579  0.06413  0.45840  1.0000
  H   H908      1.0  0.46184  0.22517  0.08400  1.0000
  H   H909      1.0  0.36392  0.29581  0.28294  1.0000
  S   S209      1.0  0.45219  0.27448  0.20595  1.0000
  H   H910      1.0  0.40728  0.29501  0.28733  1.0000
  S   S210      1.0  0.47235  0.30124  0.08819  1.0000
  H   H911      1.0  0.38747  0.16346  0.38151  1.0000
  Fe  Fe106     1.0  0.46071  0.07802  0.02729  1.0000
  H   H912      1.0  0.40913  0.05356  0.08339  1.0000
  H   H913      1.0  0.40538  0.00594  0.10382  1.0000
  Fe  Fe107     1.0  0.43779  0.04888  0.01023  1.0000
  H   H914      1.0  0.25120  0.23762  0.19842  1.0000
  S   S211      1.0  0.41670  0.02374  0.02556  1.0000
  C   C743      1.0  0.24512  0.23570  0.16520  1.0000
  S   S212      1.0  0.47566  0.31350  0.14985  1.0000
  H   H915      1.0  0.43708  0.25202  0.45210  1.0000
  S   S213      1.0  0.46126  0.05082  0.02470  1.0000
  S   S214      1.0  0.43575  0.07521  0.01581  1.0000
  S   S215      1.0  0.24140  0.27752  0.25677  1.0000
  C   C744      1.0  0.44006  0.05340  0.13571  1.0000
  Fe  Fe108     1.0  0.47437  0.28904  0.17539  1.0000
  C   C745      1.0  0.40998  0.23828  0.46502  1.0000
  C   C746      1.0  0.32195  0.25339  0.10582  1.0000
  H   H916      1.0  0.46074  0.31272  0.41777  1.0000
  H   H917      1.0  0.36154  0.25443  0.07563  1.0000
  C   C747      1.0  0.47598  0.20992  0.10189  1.0000
  H   H918      1.0  0.40643  0.24371  0.42135  1.0000
  C   C748      1.0  0.40969  0.00963  0.00777  1.0000
  C   C749      1.0  0.40842  0.12250  0.38096  1.0000
  H   H919      1.0  0.25724  0.19356  0.97690  1.0000
  C   C750      1.0  0.39067  0.11209  0.41996  1.0000
  C   C751      1.0  0.44066  0.99926  0.33915  1.0000
  H   H920      1.0  0.38710  0.29723  0.30129  1.0000
  H   H921      1.0  0.42623  0.01767  0.34610  1.0000
  C   C752      1.0  0.38898  0.15004  0.38188  1.0000
  H   H922      1.0  0.45442  0.21972  0.21291  1.0000
  H   H923      1.0  0.26031  0.17450  0.99493  1.0000
  C   C753      1.0  0.24764  0.31889  0.31598  1.0000
  H   H924      1.0  0.29254  0.26512  0.10956  1.0000
  H   H925      1.0  0.37912  0.23691  0.45138  1.0000
  C   C754      1.0  0.43901  0.11005  0.41998  1.0000
  C   C755      1.0  0.44232  0.09524  0.41286  1.0000
  C   C756      1.0  0.43393  0.07863  0.42664  1.0000
  C   C757      1.0  0.42235  0.07696  0.44767  1.0000
  N   N50       1.0  0.40366  0.25245  0.45326  1.0000
  H   H926      1.0  0.45122  0.09669  0.39662  1.0000
  H   H927      1.0  0.42404  0.27403  0.45538  1.0000
  H   H928      1.0  0.40011  0.31403  0.27735  1.0000
  C   C758      1.0  0.25624  0.26292  0.17598  1.0000
  H   H929      1.0  0.48293  0.25296  0.09833  1.0000
  H   H930      1.0  0.31004  0.30961  0.30576  1.0000
  H   H931      1.0  0.29592  0.32370  0.30558  1.0000
  C   C759      1.0  0.25615  0.27193  0.15375  1.0000
  C   C760      1.0  0.25743  0.18732  0.99486  1.0000
  C   C761      1.0  0.42822  0.04459  0.15634  1.0000
  C   C762      1.0  0.45914  0.28527  0.07741  1.0000
  C   C763      1.0  0.45277  0.26782  0.08946  1.0000
  C   C764      1.0  0.44298  0.25554  0.07969  1.0000
  C   C765      1.0  0.43923  0.26050  0.05790  1.0000
  C   C766      1.0  0.44555  0.27796  0.04591  1.0000
  C   C767      1.0  0.45547  0.29021  0.05558  1.0000
  H   H932      1.0  0.45524  0.26382  0.10639  1.0000
  H   H933      1.0  0.43801  0.24212  0.08923  1.0000
  H   H934      1.0  0.44282  0.28201  0.02915  1.0000
  H   H935      1.0  0.46028  0.30365  0.04612  1.0000
  C   C768      1.0  0.33828  0.25325  0.01012  1.0000
  C   C769      1.0  0.32598  0.26213  0.01673  1.0000
  C   C770      1.0  0.30831  0.25400  0.02112  1.0000
  C   C771      1.0  0.30273  0.23685  0.01886  1.0000
  C   C772      1.0  0.31501  0.22794  0.01227  1.0000
  C   C773      1.0  0.33271  0.23608  0.00795  1.0000
  H   H936      1.0  0.33017  0.27538  0.01859  1.0000
  H   H937      1.0  0.29903  0.26103  0.02613  1.0000
  H   H938      1.0  0.31085  0.21466  0.01052  1.0000
  H   H939      1.0  0.34203  0.22907  0.00295  1.0000
  H   H940      1.0  0.38346  0.11366  0.43594  1.0000
  C   C774      1.0  0.43465  0.30739  0.41355  1.0000
  H   H941      1.0  0.34770  0.26465  0.10870  1.0000
  H   H942      1.0  0.29305  0.26494  0.07960  1.0000
  H   H943      1.0  0.29043  0.21874  0.12868  1.0000
  H   H944      1.0  0.43650  0.29882  0.40198  1.0000
  H   H945      1.0  0.28765  0.30104  0.30781  1.0000
  C   C775      1.0  0.39437  0.20983  0.41228  1.0000
  C   C776      1.0  0.40297  0.19782  0.42094  1.0000
  C   C777      1.0  0.39627  0.18656  0.44303  1.0000
  C   C778      1.0  0.41860  0.31059  0.41965  1.0000
  C   C779      1.0  0.37224  0.19922  0.44803  1.0000
  C   C780      1.0  0.37904  0.21060  0.42600  1.0000
  H   H946      1.0  0.41496  0.19732  0.41055  1.0000
  C   C781      1.0  0.47813  0.10194  0.09197  1.0000
  C   C782      1.0  0.31051  0.27063  0.36855  1.0000
  H   H947      1.0  0.37219  0.21963  0.41938  1.0000
  C   C783      1.0  0.44318  0.28968  0.27624  1.0000
  C   C784      1.0  0.45701  0.29984  0.25814  1.0000
  C   C785      1.0  0.46018  0.29515  0.23664  1.0000
  C   C786      1.0  0.44938  0.28034  0.23304  1.0000
  C   C787      1.0  0.43567  0.27006  0.25122  1.0000
  C   C788      1.0  0.43263  0.27465  0.27278  1.0000
  C   C789      1.0  0.46915  0.18742  0.07251  1.0000
  H   H948      1.0  0.47076  0.30320  0.22274  1.0000
  H   H949      1.0  0.42725  0.25860  0.24853  1.0000
  H   H950      1.0  0.42210  0.26662  0.28668  1.0000
  C   C790      1.0  0.33958  0.26988  0.32161  1.0000
  C   C791      1.0  0.33621  0.25218  0.32140  1.0000
  C   C792      1.0  0.32287  0.24455  0.31153  1.0000
  C   C793      1.0  0.31279  0.25448  0.30173  1.0000
  C   C794      1.0  0.31650  0.27227  0.30137  1.0000
  C   C795      1.0  0.32979  0.27989  0.31127  1.0000
  H   H951      1.0  0.34359  0.24429  0.32930  1.0000
  H   H952      1.0  0.32015  0.23078  0.31180  1.0000
  H   H953      1.0  0.30894  0.28007  0.29373  1.0000
  H   H954      1.0  0.33234  0.29359  0.31127  1.0000
  H   H955      1.0  0.38004  0.27724  0.23105  1.0000
  H   H956      1.0  0.23902  0.99954  0.46174  1.0000
  H   H957      1.0  0.42200  0.31084  0.25036  1.0000
  H   H958      1.0  0.46246  0.04149  0.43824  1.0000
  H   H959      1.0  0.40462  0.02497  0.17213  1.0000
  C   C796      1.0  0.41021  0.25576  0.42783  1.0000
  H   H960      1.0  0.27493  0.32203  0.34278  1.0000
  N   N51       1.0  0.29403  0.30756  0.33918  1.0000
  C   C797      1.0  0.38775  0.14625  0.42258  1.0000
  C   C798      1.0  0.23777  0.20278  0.00953  1.0000
  N   N52       1.0  0.39760  0.14434  0.40038  1.0000
  H   H961      1.0  0.48132  0.05748  0.43731  1.0000
  H   H962      1.0  0.37598  0.31089  0.25635  1.0000
  H   H963      1.0  0.23950  0.32238  0.98477  1.0000
  C   C799      1.0  0.39885  0.12630  0.40063  1.0000
  C   C800      1.0  0.39598  0.29966  0.28406  1.0000
  H   H964      1.0  0.43735  0.31859  0.33559  1.0000
  H   H965      1.0  0.41717  0.04574  0.05857  1.0000
  H   H966      1.0  0.39323  0.26624  0.27955  1.0000
  C   C801      1.0  0.42787  0.24025  0.46255  1.0000
  C   C802      1.0  0.39896  0.29361  0.24473  1.0000
  H   H967      1.0  0.46525  0.31149  0.26069  1.0000
  C   C803      1.0  0.43754  0.04943  0.11469  1.0000
  H   H968      1.0  0.24889  0.21255  0.01179  1.0000
  C   C804      1.0  0.44837  0.31531  0.42253  1.0000
  C   C805      1.0  0.38074  0.18704  0.45655  1.0000
  C   C806      1.0  0.38466  0.24853  0.45779  1.0000
  C   C807      1.0  0.41284  0.01548  0.98370  1.0000
  H   H969      1.0  0.40334  0.07905  0.40011  1.0000
  H   H970      1.0  0.48406  0.02503  0.42384  1.0000
  H   H971      1.0  0.36052  0.10754  0.99139  1.0000
  H   H972      1.0  0.36021  0.19966  0.45838  1.0000
  H   H973      1.0  0.27853  0.24710  0.34923  1.0000
  C   C808      1.0  0.24495  0.24474  0.14300  1.0000
  S   S216      1.0  0.47710  0.08995  0.99138  1.0000
  H   H974      1.0  0.46012  0.15115  0.11264  1.0000
  H   H975      1.0  0.24097  0.22161  0.16968  1.0000
  H   H976      1.0  0.26900  0.22706  0.09265  1.0000
  Fe  Fe109     1.0  0.40317  0.22955  0.97640  1.0000
  H   H977      1.0  0.39972  0.01769  0.13604  1.0000
  H   H978      1.0  0.46471  0.04976  0.46357  1.0000
  N   N53       1.0  0.42079  0.03252  0.09108  1.0000
  C   C809      1.0  0.41964  0.04837  0.07540  1.0000
  C   C810      1.0  0.43576  0.02697  0.08027  1.0000
  C   C811      1.0  0.40514  0.01847  0.09288  1.0000
  H   H979      1.0  0.46803  0.00117  0.40354  1.0000
  H   H980      1.0  0.41497  0.13258  0.36562  1.0000
  C   C812      1.0  0.39211  0.09524  0.41949  1.0000
  H   H981      1.0  0.38611  0.08467  0.43463  1.0000
  C   C813      1.0  0.46661  0.21364  0.08538  1.0000
  S   S217      1.0  0.42867  0.24566  0.97923  1.0000
  Fe  Fe110     1.0  0.23863  0.24137  0.08438  1.0000
  H   H982      1.0  0.43168  0.05901  0.07096  1.0000
  C   C814      1.0  0.46933  0.15159  0.09640  1.0000
  S   S218      1.0  0.45232  0.05880  0.97310  1.0000
  C   C815      1.0  0.46577  0.01548  0.46723  1.0000
  Fe  Fe111     1.0  0.48176  0.29888  0.12211  1.0000
  H   H983      1.0  0.39328  0.02209  0.09990  1.0000
  H   H984      1.0  0.40397  0.01586  0.07554  1.0000
  H   H985      1.0  0.35688  0.12522  0.97189  1.0000
  H   H986      1.0  0.27478  0.27598  0.33608  1.0000
  C   C816      1.0  0.40181  0.09203  0.40005  1.0000
  H   H987      1.0  0.26653  0.29986  0.34257  1.0000
  H   H988      1.0  0.44544  0.12286  0.40913  1.0000
  H   H989      1.0  0.37369  0.26411  0.26953  1.0000
  N   N54       1.0  0.38762  0.29063  0.26796  1.0000
  C   C817      1.0  0.37226  0.29695  0.26566  1.0000
  H   H990      1.0  0.43957  0.31469  0.21207  1.0000
  H   H991      1.0  0.24117  0.30546  0.31708  1.0000
  H   H992      1.0  0.38670  0.15983  0.42171  1.0000
  C   C818      1.0  0.41608  0.30439  0.23843  1.0000
  C   C819      1.0  0.41901  0.09178  0.45477  1.0000
  C   C820      1.0  0.40177  0.15449  0.97886  1.0000
  H   H993      1.0  0.45763  0.01238  0.45479  1.0000
  S   S219      1.0  0.48184  0.10224  0.30621  1.0000
  H   H994      1.0  0.31978  0.32248  0.33712  1.0000
  C   C821      1.0  0.39293  0.28555  0.22754  1.0000
  S   S220      1.0  0.46222  0.08605  0.06173  1.0000
  H   H995      1.0  0.47320  0.13915  0.09872  1.0000
  C   C822      1.0  0.25083  0.24472  0.18158  1.0000
  Fe  Fe112     1.0  0.47574  0.06243  0.98795  1.0000
  H   H996      1.0  0.32090  0.26893  0.37686  1.0000
  C   C823      1.0  0.46325  0.20245  0.07066  1.0000
  H   H997      1.0  0.45128  0.06340  0.13592  1.0000
  H   H998      1.0  0.43023  0.04769  0.17262  1.0000
  H   H999      1.0  0.43757  0.01556  0.09196  1.0000
  S   S221      1.0  0.42339  0.12738  0.44876  1.0000
  C   C824      1.0  0.23617  0.32380  0.00243  1.0000
  H   H1000     1.0  0.48196  0.26305  0.20769  1.0000
  Fe  Fe113     1.0  0.23963  0.26555  0.03872  1.0000
  C   C825      1.0  0.47023  0.23489  0.24177  1.0000
  C   C826      1.0  0.44628  0.32665  0.43742  1.0000
  C   C827      1.0  0.42642  0.30677  0.21635  1.0000
  N   N55       1.0  0.47978  0.03173  0.45716  1.0000
  C   C828      1.0  0.48192  0.19493  0.10391  1.0000
  C   C829      1.0  0.25052  0.26292  0.13734  1.0000
  H   H1001     1.0  0.40435  0.27923  0.45383  1.0000
  C   C830      1.0  0.40347  0.28785  0.20562  1.0000
  C   C831      1.0  0.41647  0.32182  0.43468  1.0000
  H   H1002     1.0  0.37434  0.13789  0.42722  1.0000
  H   H1003     1.0  0.24476  0.16590  0.03819  1.0000
  C   C832      1.0  0.40989  0.26865  0.46108  1.0000
  S   S222      1.0  0.26994  0.31729  0.27627  1.0000
  H   H1004     1.0  0.46229  0.15155  0.08226  1.0000
  H   H1005     1.0  0.26034  0.28602  0.14926  1.0000
  H   H1006     1.0  0.31801  0.29795  0.36393  1.0000
  H   H1007     1.0  0.27188  0.22716  0.13071  1.0000
  H   H1008     1.0  0.48005  0.23700  0.25229  1.0000
  C   C833      1.0  0.34767  0.25137  0.08082  1.0000
  H   H1009     1.0  0.43422  0.02324  0.06363  1.0000
  H   H1010     1.0  0.37433  0.26907  0.29699  1.0000
  C   C834      1.0  0.28317  0.22960  0.08682  1.0000
  H   H1011     1.0  0.27318  0.30530  0.36784  1.0000
  C   C835      1.0  0.38200  0.27171  0.27889  1.0000
  H   H1012     1.0  0.36404  0.28938  0.25614  1.0000
  H   H1013     1.0  0.34386  0.23746  0.05416  1.0000
  H   H1014     1.0  0.27361  0.25505  0.10150  1.0000
  C   C836      1.0  0.33983  0.25714  0.09937  1.0000
  H   H1015     1.0  0.46647  0.09505  0.10482  1.0000
  H   H1016     1.0  0.29065  0.23891  0.13743  1.0000
  H   H1017     1.0  0.46061  0.22234  0.25051  1.0000
  H   H1018     1.0  0.45584  0.20536  0.05792  1.0000
  C   C837      1.0  0.47860  0.18312  0.08929  1.0000
  C   C838      1.0  0.33765  0.24175  0.06875  1.0000
  H   H1019     1.0  0.46334  0.24529  0.24258  1.0000
  C   C839      1.0  0.31975  0.23794  0.07500  1.0000
  C   C840      1.0  0.46458  0.23193  0.20447  1.0000
  N   N56       1.0  0.47827  0.23524  0.21750  1.0000
  C   C841      1.0  0.27643  0.30868  0.34854  1.0000
  H   H1020     1.0  0.39848  0.99845  0.34415  1.0000
  C   C842      1.0  0.29582  0.29003  0.34873  1.0000
  C   C843      1.0  0.31133  0.24369  0.09381  1.0000
  H   H1021     1.0  0.39628  0.15032  0.36433  1.0000
  H   H1022     1.0  0.26852  0.19596  0.99915  1.0000
  S   S223      1.0  0.23995  0.24444  0.01873  1.0000
  H   H1023     1.0  0.46609  0.17908  0.06081  1.0000
  H   H1024     1.0  0.25039  0.27007  0.12040  1.0000
  H   H1025     1.0  0.46993  0.23101  0.18656  1.0000
  H   H1026     1.0  0.42440  0.26058  0.42248  1.0000
  N   N57       1.0  0.29244  0.24028  0.10068  1.0000
  C   C844      1.0  0.29960  0.25616  0.36450  1.0000
  H   H1027     1.0  0.41765  0.10308  0.36582  1.0000
  C   C845      1.0  0.28616  0.23089  0.12541  1.0000
  H   H1028     1.0  0.28596  0.21666  0.08837  1.0000
  H   H1029     1.0  0.44710  0.05667  0.09917  1.0000
  Fe  Fe114     1.0  0.47616  0.07795  0.33496  1.0000
  C   C846      1.0  0.29706  0.31060  0.31355  1.0000
  C   C847      1.0  0.47968  0.09983  0.06900  1.0000
  C   C848      1.0  0.28776  0.25708  0.09771  1.0000
  H   H1030     1.0  0.39874  0.28129  0.19291  1.0000
  H   H1031     1.0  0.41450  0.16982  0.39667  1.0000
  C   C849      1.0  0.30875  0.28736  0.36081  1.0000
  C   C850      1.0  0.42727  0.10838  0.44084  1.0000
  H   H1032     1.0  0.45794  0.24251  0.20304  1.0000
  H   H1033     1.0  0.46507  0.19984  0.23326  1.0000
  H   H1034     1.0  0.30145  0.24331  0.36972  1.0000
  S   S224      1.0  0.24005  0.29083  0.01446  1.0000
  C   C851      1.0  0.42304  0.03645  0.11365  1.0000
  C   C852      1.0  0.28669  0.25832  0.35300  1.0000
  C   C853      1.0  0.40994  0.10563  0.38080  1.0000
  C   C854      1.0  0.42021  0.29838  0.20009  1.0000
  S   S225      1.0  0.48082  0.08207  0.36973  1.0000
  S   S226      1.0  0.47835  0.27389  0.14777  1.0000
  C   C855      1.0  0.24365  0.17954  0.03524  1.0000
  C   C856      1.0  0.41502  0.15631  0.39572  1.0000
  C   C857      1.0  0.47179  0.04572  0.44879  1.0000
  H   H1035     1.0  0.42556  0.15803  0.98984  1.0000
  H   H1036     1.0  0.42854  0.29983  0.18330  1.0000
  H   H1037     1.0  0.42220  0.15189  0.40867  1.0000
  C   C858      1.0  0.28474  0.27496  0.34534  1.0000
  C   C859      1.0  0.41116  0.02771  0.13502  1.0000
  H   H1038     1.0  0.41884  0.32643  0.36696  1.0000
  H   H1039     1.0  0.46832  0.31892  0.00187  1.0000
  H   H1040     1.0  0.30448  0.32062  0.36381  1.0000
  C   C860      1.0  0.24193  0.32759  0.33295  1.0000
  H   H1041     1.0  0.46370  0.09136  0.44899  1.0000
  H   H1042     1.0  0.25549  0.18797  0.03811  1.0000
  S   S227      1.0  0.23843  0.21875  0.06732  1.0000
  Fe  Fe115     1.0  0.23716  0.25237  0.28290  1.0000
  C   C861      1.0  0.41825  0.13332  0.98067  1.0000
  C   C862      1.0  0.41607  0.14940  0.98380  1.0000
  N   N58       1.0  0.24106  0.18539  0.01157  1.0000
  Fe  Fe116     1.0  0.45215  0.08538  0.97960  1.0000
  H   H1043     1.0  0.41983  0.02884  0.97560  1.0000
  H   H1044     1.0  0.38040  0.25949  0.44862  1.0000
  H   H1045     1.0  0.40022  0.16715  0.98104  1.0000
  C   C863      1.0  0.30624  0.32196  0.34473  1.0000
  H   H1046     1.0  0.48289  0.21037  0.15805  1.0000
  S   S228      1.0  0.23791  0.23266  0.12299  1.0000
  C   C864      1.0  0.44280  0.32862  0.34396  1.0000
  H   H1047     1.0  0.42954  0.12943  0.98415  1.0000
  H   H1048     1.0  0.48443  0.26303  0.05661  1.0000
  C   C865      1.0  0.26173  0.32763  0.29766  1.0000
  C   C866      1.0  0.40609  0.12220  0.97272  1.0000
  H   H1049     1.0  0.38116  0.09108  0.97541  1.0000
  H   H1050     1.0  0.47989  0.17700  0.23054  1.0000
  C   C867      1.0  0.47870  0.20376  0.22579  1.0000
  C   C868      1.0  0.40660  0.00413  0.97009  1.0000
  C   C869      1.0  0.46952  0.09739  0.46142  1.0000
  H   H1051     1.0  0.40874  0.11000  0.97065  1.0000
  C   C870      1.0  0.38969  0.14361  0.97051  1.0000
  H   H1052     1.0  0.38675  0.28767  0.97195  1.0000
  H   H1053     1.0  0.23813  0.17034  0.97306  1.0000
  C   C871      1.0  0.26966  0.01314  0.65240  1.0000
  H   H1054     1.0  0.37148  0.09022  0.95096  1.0000
  S   S229      1.0  0.43858  0.28880  0.93366  1.0000
  Fe  Fe117     1.0  0.37288  0.11174  0.52145  1.0000
  S   S230      1.0  0.40079  0.11191  0.51753  1.0000
  S   S231      1.0  0.35274  0.08660  0.54232  1.0000
  Fe  Fe118     1.0  0.38254  0.15033  0.49688  1.0000
  S   S232      1.0  0.41081  0.15319  0.49172  1.0000
  H   H1055     1.0  0.41363  0.30622  0.90878  1.0000
  Fe  Fe119     1.0  0.40486  0.13760  0.52837  1.0000
  S   S233      1.0  0.42320  0.14057  0.55292  1.0000
  C   C872      1.0  0.37889  0.12453  0.93426  1.0000
  S   S234      1.0  0.37671  0.13648  0.53470  1.0000
  Fe  Fe120     1.0  0.36015  0.11988  0.84324  1.0000
  S   S235      1.0  0.38703  0.11817  0.83032  1.0000
  S   S236      1.0  0.33586  0.10747  0.83158  1.0000
  Fe  Fe121     1.0  0.37236  0.14474  0.87549  1.0000
  S   S237      1.0  0.39970  0.14435  0.86433  1.0000
  S   S238      1.0  0.36417  0.16168  0.89997  1.0000
  Fe  Fe122     1.0  0.39508  0.14707  0.82816  1.0000
  S   S239      1.0  0.41008  0.17010  0.79863  1.0000
  Fe  Fe123     1.0  0.38902  0.11568  0.86769  1.0000
  S   S240      1.0  0.39829  0.09404  0.88648  1.0000
  S   S241      1.0  0.36814  0.14900  0.83918  1.0000
  S   S242      1.0  0.36164  0.11570  0.88093  1.0000
  C   C873      1.0  0.40536  0.20916  0.48960  1.0000
  H   H1056     1.0  0.42958  0.31189  0.96353  1.0000
  Fe  Fe124     1.0  0.26498  0.01887  0.53509  1.0000
  S   S243      1.0  0.28522  0.04454  0.51713  1.0000
  C   C874      1.0  0.36838  0.30657  0.95411  1.0000
  Fe  Fe125     1.0  0.26581  0.01954  0.73400  1.0000
  S   S244      1.0  0.28860  0.01618  0.74851  1.0000
  S   S245      1.0  0.27166  0.02140  0.69457  1.0000
  S   S246      1.0  0.25176  0.00250  0.51352  1.0000
  S   S247      1.0  0.26846  0.01917  0.79813  1.0000
  Fe  Fe126     1.0  0.28586  0.03794  0.76643  1.0000
  S   S248      1.0  0.31129  0.05820  0.76402  1.0000
  S   S249      1.0  0.26408  0.04259  0.75011  1.0000
  C   C875      1.0  0.45098  0.00066  0.96051  1.0000
  H   H1057     1.0  0.41351  0.18148  0.93437  1.0000
  Fe  Fe127     1.0  0.46979  0.20413  0.62504  1.0000
  C   C876      1.0  0.46143  0.24947  0.61387  1.0000
  S   S250      1.0  0.45345  0.20377  0.59777  1.0000
  C   C877      1.0  0.33894  0.07568  0.64785  1.0000
  Fe  Fe128     1.0  0.47224  0.19108  0.67515  1.0000
  S   S251      1.0  0.46056  0.16830  0.70629  1.0000
  S   S252      1.0  0.45885  0.20979  0.65913  1.0000
  C   C878      1.0  0.28402  0.07281  0.56519  1.0000
  H   H1058     1.0  0.46105  0.31582  0.89667  1.0000
  C   C879      1.0  0.44336  0.25235  0.58721  1.0000
  C   C880      1.0  0.26037  0.01266  0.67470  1.0000
  H   H1059     1.0  0.47461  0.25247  0.61689  1.0000
  N   N59       1.0  0.45653  0.12027  0.50925  1.0000
  C   C881      1.0  0.41284  0.09818  0.90441  1.0000
  C   C882      1.0  0.42060  0.11515  0.90566  1.0000
  C   C883      1.0  0.43126  0.11790  0.92127  1.0000
  C   C884      1.0  0.43431  0.10375  0.93561  1.0000
  C   C885      1.0  0.42668  0.08680  0.93421  1.0000
  C   C886      1.0  0.41603  0.08404  0.91859  1.0000
  H   H1060     1.0  0.41834  0.12613  0.89473  1.0000
  H   H1061     1.0  0.43704  0.13103  0.92243  1.0000
  H   H1062     1.0  0.41006  0.07089  0.91772  1.0000
  C   C887      1.0  0.42401  0.16922  0.77311  1.0000
  C   C888      1.0  0.43028  0.18420  0.75496  1.0000
  C   C889      1.0  0.44154  0.18416  0.73440  1.0000
  C   C890      1.0  0.44670  0.16913  0.73192  1.0000
  C   C891      1.0  0.44042  0.15414  0.75009  1.0000
  C   C892      1.0  0.42909  0.15415  0.77062  1.0000
  H   H1063     1.0  0.42640  0.19591  0.75677  1.0000
  H   H1064     1.0  0.44623  0.19572  0.72048  1.0000
  H   H1065     1.0  0.44436  0.14246  0.74824  1.0000
  H   H1066     1.0  0.42444  0.14258  0.78453  1.0000
  C   C893      1.0  0.32951  0.09274  0.81370  1.0000
  C   C894      1.0  0.31189  0.08568  0.81544  1.0000
  C   C895      1.0  0.30611  0.07463  0.80106  1.0000
  C   C896      1.0  0.31788  0.07076  0.78420  1.0000
  C   C897      1.0  0.33552  0.07789  0.78235  1.0000
  C   C898      1.0  0.34131  0.08857  0.79718  1.0000
  H   H1067     1.0  0.30259  0.08880  0.82806  1.0000
  H   H1068     1.0  0.29251  0.06943  0.80270  1.0000
  H   H1069     1.0  0.34480  0.07500  0.76947  1.0000
  H   H1070     1.0  0.35489  0.09366  0.79565  1.0000
  C   C899      1.0  0.27398  0.06718  0.65303  1.0000
  C   C900      1.0  0.43124  0.15834  0.56530  1.0000
  C   C901      1.0  0.42767  0.17451  0.55970  1.0000
  C   C902      1.0  0.43456  0.18822  0.56979  1.0000
  C   C903      1.0  0.44504  0.18596  0.58566  1.0000
  C   C904      1.0  0.44859  0.16980  0.59125  1.0000
  C   C905      1.0  0.44176  0.15612  0.58108  1.0000
  H   H1071     1.0  0.41961  0.17644  0.54762  1.0000
  H   H1072     1.0  0.43170  0.20063  0.56532  1.0000
  H   H1073     1.0  0.45661  0.16782  0.60337  1.0000
  H   H1074     1.0  0.44462  0.14370  0.58560  1.0000
  C   C906      1.0  0.33468  0.07461  0.53406  1.0000
  C   C907      1.0  0.32864  0.08159  0.51517  1.0000
  C   C908      1.0  0.31374  0.07200  0.50999  1.0000
  C   C909      1.0  0.30473  0.05528  0.52346  1.0000
  C   C910      1.0  0.31094  0.04815  0.54213  1.0000
  C   C911      1.0  0.32574  0.05782  0.54747  1.0000
  H   H1075     1.0  0.33530  0.09448  0.50473  1.0000
  H   H1076     1.0  0.30908  0.07767  0.49552  1.0000
  H   H1077     1.0  0.30435  0.03521  0.55245  1.0000
  H   H1078     1.0  0.33038  0.05221  0.56199  1.0000
  C   C912      1.0  0.44445  0.31164  0.93036  1.0000
  H   H1079     1.0  0.47093  0.12020  0.53600  1.0000
  N   N60       1.0  0.38427  0.30380  0.94089  1.0000
  H   H1080     1.0  0.44236  0.13982  0.50736  1.0000
  C   C913      1.0  0.31601  0.05541  0.62787  1.0000
  C   C914      1.0  0.42986  0.18936  0.86142  1.0000
  C   C915      1.0  0.24249  0.00643  0.67983  1.0000
  C   C916      1.0  0.39138  0.12704  0.96736  1.0000
  H   H1081     1.0  0.35224  0.08863  0.61249  1.0000
  C   C917      1.0  0.47301  0.25316  0.57331  1.0000
  C   C918      1.0  0.39396  0.19466  0.94273  1.0000
  C   C919      1.0  0.37792  0.19641  0.93956  1.0000
  C   C920      1.0  0.36910  0.18636  0.92626  1.0000
  C   C921      1.0  0.37626  0.17465  0.91562  1.0000
  C   C922      1.0  0.39252  0.17326  0.91827  1.0000
  C   C923      1.0  0.40119  0.18307  0.93189  1.0000
  C   C924      1.0  0.25991  0.05190  0.62766  1.0000
  H   H1082     1.0  0.35654  0.18757  0.92439  1.0000
  H   H1083     1.0  0.39829  0.16436  0.91025  1.0000
  H   H1084     1.0  0.26866  0.00773  0.61859  1.0000
  H   H1085     1.0  0.37509  0.04462  0.89793  1.0000
  H   H1086     1.0  0.33287  0.03674  0.68878  1.0000
  H   H1087     1.0  0.46964  0.23873  0.57556  1.0000
  H   H1088     1.0  0.29442  0.05327  0.69452  1.0000
  C   C925      1.0  0.30553  0.06187  0.69860  1.0000
  H   H1089     1.0  0.34844  0.06740  0.69055  1.0000
  C   C926      1.0  0.32489  0.06240  0.66281  1.0000
  H   H1090     1.0  0.30713  0.04750  0.62012  1.0000
  H   H1091     1.0  0.29517  0.08483  0.59738  1.0000
  H   H1092     1.0  0.29638  0.08817  0.63630  1.0000
  C   C927      1.0  0.46709  0.11281  0.49314  1.0000
  H   H1093     1.0  0.37210  0.20516  0.94786  1.0000
  C   C928      1.0  0.43475  0.17766  0.84817  1.0000
  C   C929      1.0  0.33567  0.06950  0.69700  1.0000
  C   C930      1.0  0.28522  0.07605  0.61142  1.0000
  H   H1094     1.0  0.34836  0.08395  0.65431  1.0000
  H   H1095     1.0  0.40394  0.18250  0.83914  1.0000
  C   C931      1.0  0.40296  0.19110  0.85151  1.0000
  C   C932      1.0  0.28610  0.07813  0.63382  1.0000
  H   H1096     1.0  0.30982  0.03099  0.69507  1.0000
  C   C933      1.0  0.32135  0.04014  0.69750  1.0000
  H   H1097     1.0  0.33636  0.08360  0.69194  1.0000
  H   H1098     1.0  0.39663  0.19694  0.49986  1.0000
  H   H1099     1.0  0.28348  0.01783  0.64819  1.0000
  C   C934      1.0  0.27274  0.04235  0.58302  1.0000
  H   H1100     1.0  0.48078  0.01269  0.50087  1.0000
  C   C935      1.0  0.44280  0.17618  0.89149  1.0000
  H   H1101     1.0  0.40897  0.00884  0.95151  1.0000
  H   H1102     1.0  0.33314  0.06622  0.71636  1.0000
  H   H1103     1.0  0.45282  0.25297  0.62773  1.0000
  H   H1104     1.0  0.32071  0.03725  0.71651  1.0000
  H   H1105     1.0  0.48131  0.31126  0.61188  1.0000
  H   H1106     1.0  0.44583  0.17547  0.90841  1.0000
  N   N61       1.0  0.37168  0.14334  0.76177  1.0000
  C   C936      1.0  0.35488  0.13329  0.75926  1.0000
  C   C937      1.0  0.37784  0.13158  0.77821  1.0000
  C   C938      1.0  0.36907  0.15796  0.77254  1.0000
  C   C939      1.0  0.38372  0.15030  0.73874  1.0000
  C   C940      1.0  0.39983  0.14644  0.73332  1.0000
  C   C941      1.0  0.37957  0.16161  0.72098  1.0000
  C   C942      1.0  0.41101  0.15354  0.71154  1.0000
  C   C943      1.0  0.39088  0.16868  0.69927  1.0000
  C   C944      1.0  0.40659  0.16469  0.69460  1.0000
  H   H1107     1.0  0.35637  0.12239  0.75076  1.0000
  H   H1108     1.0  0.34574  0.12742  0.77646  1.0000
  H   H1109     1.0  0.34846  0.14148  0.74892  1.0000
  H   H1110     1.0  0.37990  0.12007  0.77149  1.0000
  H   H1111     1.0  0.36832  0.12636  0.79514  1.0000
  H   H1112     1.0  0.38999  0.13855  0.78202  1.0000
  H   H1113     1.0  0.36310  0.16674  0.76233  1.0000
  H   H1114     1.0  0.36051  0.15318  0.79025  1.0000
  H   H1115     1.0  0.38152  0.16602  0.77426  1.0000
  H   H1116     1.0  0.40431  0.13817  0.74566  1.0000
  H   H1117     1.0  0.36761  0.16522  0.72387  1.0000
  H   H1118     1.0  0.42336  0.15064  0.70787  1.0000
  H   H1119     1.0  0.38754  0.17741  0.68602  1.0000
  H   H1120     1.0  0.41548  0.17032  0.67788  1.0000
  H   H1121     1.0  0.40992  0.09034  0.47086  1.0000
  H   H1122     1.0  0.33207  0.07064  0.59494  1.0000
  C   C945      1.0  0.34135  0.07857  0.62368  1.0000
  H   H1123     1.0  0.41002  0.22282  0.86054  1.0000
  H   H1124     1.0  0.44793  0.22874  0.47092  1.0000
  H   H1125     1.0  0.45721  0.23505  0.61640  1.0000
  Fe  Fe129     1.0  0.40474  0.12750  0.48140  1.0000
  N   N62       1.0  0.32205  0.05867  0.68845  1.0000
  C   C946      1.0  0.31342  0.05248  0.65203  1.0000
  C   C947      1.0  0.27199  0.06284  0.60768  1.0000
  H   H1126     1.0  0.24975  0.04128  0.62629  1.0000
  C   C948      1.0  0.26090  0.05414  0.64994  1.0000
  C   C949      1.0  0.44327  0.16556  0.85646  1.0000
  C   C950      1.0  0.43437  0.18842  0.88329  1.0000
  C   C951      1.0  0.25377  0.06104  0.58003  1.0000
  N   N63       1.0  0.42000  0.20139  0.85276  1.0000
  H   H1127     1.0  0.30539  0.07558  0.69210  1.0000
  H   H1128     1.0  0.39588  0.18254  0.86867  1.0000
  H   H1129     1.0  0.42970  0.20379  0.81601  1.0000
  H   H1130     1.0  0.46090  0.28270  0.55190  1.0000
  C   C952      1.0  0.41710  0.21371  0.86776  1.0000
  C   C953      1.0  0.32997  0.06842  0.61371  1.0000
  C   C954      1.0  0.26126  0.00754  0.63544  1.0000
  H   H1131     1.0  0.48287  0.29057  0.66925  1.0000
  H   H1132     1.0  0.43134  0.19683  0.89458  1.0000
  H   H1133     1.0  0.44675  0.10367  0.47585  1.0000
  H   H1134     1.0  0.37024  0.27733  0.94303  1.0000
  H   H1135     1.0  0.43339  0.09954  0.51473  1.0000
  H   H1136     1.0  0.45778  0.13495  0.53594  1.0000
  H   H1137     1.0  0.39200  0.12776  0.92298  1.0000
  H   H1138     1.0  0.43153  0.17736  0.83156  1.0000
  H   H1139     1.0  0.42265  0.22184  0.82278  1.0000
  H   H1140     1.0  0.44257  0.21872  0.82895  1.0000
  C   C955      1.0  0.36973  0.03058  0.90260  1.0000
  H   H1141     1.0  0.39916  0.30988  0.96575  1.0000
  C   C956      1.0  0.45991  0.10457  0.47684  1.0000
  H   H1142     1.0  0.26189  0.03183  0.59465  1.0000
  H   H1143     1.0  0.42891  0.07582  0.94523  1.0000
  C   C957      1.0  0.37609  0.02020  0.91808  1.0000
  C   C958      1.0  0.35651  0.02289  0.89306  1.0000
  H   H1144     1.0  0.37231  0.29247  0.91611  1.0000
  C   C959      1.0  0.46611  0.12930  0.52433  1.0000
  H   H1145     1.0  0.33942  0.99976  0.89084  1.0000
  C   C960      1.0  0.42916  0.21188  0.82916  1.0000
  H   H1146     1.0  0.39383  0.09947  0.94612  1.0000
  N   N64       1.0  0.46105  0.25858  0.59034  1.0000
  H   H1147     1.0  0.25164  0.04547  0.66497  1.0000
  H   H1148     1.0  0.43408  0.25686  0.59898  1.0000
  H   H1149     1.0  0.43907  0.23781  0.59107  1.0000
  C   C961      1.0  0.46601  0.27783  0.58657  1.0000
  C   C962      1.0  0.37901  0.28893  0.93004  1.0000
  C   C963      1.0  0.47677  0.30486  0.59892  1.0000
  S   S253      1.0  0.48242  0.25716  0.65922  1.0000
  H   H1150     1.0  0.39007  0.28438  0.92234  1.0000
  H   H1151     1.0  0.25277  0.05956  0.56219  1.0000
  H   H1152     1.0  0.37133  0.31644  0.96457  1.0000
  H   H1153     1.0  0.44676  0.09599  0.53469  1.0000
  C   C964      1.0  0.34958  0.00479  0.89895  1.0000
  H   H1154     1.0  0.45719  0.01666  0.48310  1.0000
  N   N65       1.0  0.27078  0.05996  0.58432  1.0000
  C   C965      1.0  0.46515  0.28841  0.56549  1.0000
  C   C966      1.0  0.39887  0.22227  0.47892  1.0000
  S   S254      1.0  0.24685  0.99948  0.76401  1.0000
  H   H1155     1.0  0.28247  0.07053  0.54785  1.0000
  S   S255      1.0  0.23980  0.02011  0.55581  1.0000
  S   S256      1.0  0.39550  0.25287  0.95946  1.0000
  H   H1156     1.0  0.27316  0.04009  0.56526  1.0000
  H   H1157     1.0  0.44020  0.12705  0.48645  1.0000
  H   H1158     1.0  0.28322  0.08638  0.56505  1.0000
  C   C967      1.0  0.43774  0.31972  0.94722  1.0000
  C   C968      1.0  0.36928  0.00212  0.92406  1.0000
  H   H1159     1.0  0.27476  0.06865  0.67040  1.0000
  H   H1160     1.0  0.40909  0.20673  0.88534  1.0000
  H   H1161     1.0  0.44652  0.15651  0.84619  1.0000
  H   H1162     1.0  0.30304  0.05930  0.71791  1.0000
  C   C969      1.0  0.44719  0.16474  0.87815  1.0000
  H   H1163     1.0  0.45987  0.14333  0.48283  1.0000
  C   C970      1.0  0.44205  0.10612  0.52461  1.0000
  H   H1164     1.0  0.29721  0.07196  0.56625  1.0000
  H   H1165     1.0  0.47092  0.00398  0.47164  1.0000
  H   H1166     1.0  0.45355  0.15515  0.88467  1.0000
  S   S257      1.0  0.37666  0.12556  0.48417  1.0000
  Fe  Fe130     1.0  0.24662  0.02223  0.78111  1.0000
  H   H1167     1.0  0.39479  0.19953  0.84581  1.0000
  H   H1168     1.0  0.28480  0.04049  0.58776  1.0000
  H   H1169     1.0  0.30237  0.04227  0.66225  1.0000
  C   C971      1.0  0.45571  0.32198  0.90972  1.0000
  C   C972      1.0  0.46974  0.30660  0.56149  1.0000
  C   C973      1.0  0.39502  0.31935  0.92308  1.0000
  S   S258      1.0  0.44713  0.10777  0.95569  1.0000
  H   H1170     1.0  0.37493  0.13684  0.93348  1.0000
  H   H1171     1.0  0.44221  0.25683  0.56916  1.0000
  C   C974      1.0  0.24334  0.00174  0.64037  1.0000
  H   H1172     1.0  0.42943  0.22180  0.86966  1.0000
  H   H1173     1.0  0.38641  0.02619  0.92548  1.0000
  S   S259      1.0  0.48170  0.18404  0.64137  1.0000
  H   H1174     1.0  0.35163  0.03105  0.88096  1.0000
  H   H1175     1.0  0.43392  0.11118  0.53727  1.0000
  C   C975      1.0  0.46714  0.00338  0.96556  1.0000
  C   C976      1.0  0.47214  0.28664  0.60316  1.0000
  H   H1176     1.0  0.24306  0.05059  0.59209  1.0000
  H   H1177     1.0  0.37007  0.11615  0.92626  1.0000
  N   N66       1.0  0.37847  0.11583  0.95829  1.0000
  C   C977      1.0  0.42297  0.21149  0.48674  1.0000
  H   H1178     1.0  0.36024  0.31060  0.94237  1.0000
  H   H1179     1.0  0.47285  0.25868  0.55510  1.0000
  C   C978      1.0  0.38137  0.09840  0.95781  1.0000
  H   H1180     1.0  0.47706  0.14033  0.51389  1.0000
  Fe  Fe131     1.0  0.42018  0.26893  0.96449  1.0000
  C   C979      1.0  0.44949  0.13314  0.49587  1.0000
  H   H1181     1.0  0.47348  0.27980  0.61962  1.0000
  H   H1182     1.0  0.40573  0.29497  0.94949  1.0000
  C   C980      1.0  0.47550  0.31481  0.57818  1.0000
  H   H1183     1.0  0.42786  0.20114  0.49488  1.0000
  H   H1184     1.0  0.25143  0.07380  0.58193  1.0000
  H   H1185     1.0  0.47024  0.32437  0.95960  1.0000
  C   C981      1.0  0.39442  0.29890  0.95772  1.0000
  Fe  Fe132     1.0  0.26966  0.99775  0.77924  1.0000
  C   C982      1.0  0.43422  0.22702  0.47325  1.0000
  S   S260      1.0  0.40512  0.20567  0.96104  1.0000
  C   C983      1.0  0.40988  0.31828  0.90781  1.0000
  H   H1186     1.0  0.46877  0.31447  0.54540  1.0000
  H   H1187     1.0  0.44495  0.01131  0.95872  1.0000
  S   S261      1.0  0.37167  0.17283  0.48421  1.0000
  H   H1188     1.0  0.35119  0.10384  0.96717  1.0000
  H   H1189     1.0  0.23617  0.99665  0.82764  1.0000
  H   H1190     1.0  0.40632  0.26639  0.48031  1.0000
  H   H1191     1.0  0.38508  0.21933  0.48156  1.0000
  H   H1192     1.0  0.37881  0.24631  0.47659  1.0000
  H   H1193     1.0  0.37916  0.14848  0.96612  1.0000
  Fe  Fe133     1.0  0.48386  0.23029  0.65338  1.0000
  C   C984      1.0  0.48449  0.11320  0.49324  1.0000
  H   H1194     1.0  0.47895  0.32893  0.57494  1.0000
  Fe  Fe134     1.0  0.24115  0.99640  0.58057  1.0000
  H   H1195     1.0  0.36041  0.29442  0.96688  1.0000
  H   H1196     1.0  0.47359  0.01609  0.96771  1.0000
  Fe  Fe135     1.0  0.25410  0.38376  0.35406  1.0000
  H   H1197     1.0  0.31407  0.46976  0.02374  1.0000
  Fe  Fe136     1.0  0.27617  0.40796  0.37805  1.0000
  S   S262      1.0  0.26836  0.43138  0.36210  1.0000
  S   S263      1.0  0.29221  0.40672  0.40528  1.0000
  Fe  Fe137     1.0  0.27182  0.42149  0.32930  1.0000
  S   S264      1.0  0.28695  0.43920  0.29465  1.0000
  S   S265      1.0  0.24920  0.39057  0.38895  1.0000
  S   S266      1.0  0.28172  0.39916  0.34462  1.0000
  H   H1198     1.0  0.41929  0.42868  0.44359  1.0000
  S   S267      1.0  0.25429  0.40728  0.01670  1.0000
  Fe  Fe138     1.0  0.26464  0.51862  0.14634  1.0000
  S   S268      1.0  0.28845  0.51719  0.12186  1.0000
  H   H1199     1.0  0.24463  0.50894  0.23162  1.0000
  Fe  Fe139     1.0  0.26730  0.49033  0.18476  1.0000
  S   S269      1.0  0.29091  0.48653  0.16360  1.0000
  S   S270      1.0  0.25182  0.47498  0.22046  1.0000
  Fe  Fe140     1.0  0.30025  0.51591  0.15318  1.0000
  S   S271      1.0  0.32871  0.52704  0.15282  1.0000
  Fe  Fe141     1.0  0.27750  0.48799  0.13391  1.0000
  S   S272      1.0  0.27868  0.46648  0.11373  1.0000
  S   S273      1.0  0.27729  0.51941  0.17663  1.0000
  S   S274      1.0  0.25311  0.48970  0.15606  1.0000
  S   S275      1.0  0.43193  0.58587  0.39416  1.0000
  C   C985      1.0  0.43240  0.33310  0.36158  1.0000
  H   H1200     1.0  0.47362  0.34994  0.39950  1.0000
  H   H1201     1.0  0.42840  0.33851  0.45496  1.0000
  S   S276      1.0  0.41757  0.50706  0.44567  1.0000
  S   S277      1.0  0.37954  0.46573  0.45401  1.0000
  C   C986      1.0  0.27639  0.42494  0.22244  1.0000
  S   S278      1.0  0.46566  0.62413  0.01825  1.0000
  Fe  Fe142     1.0  0.43740  0.61270  0.15324  1.0000
  S   S279      1.0  0.41820  0.62725  0.14474  1.0000
  S   S280      1.0  0.45181  0.60038  0.12785  1.0000
  Fe  Fe143     1.0  0.42688  0.61055  0.20532  1.0000
  S   S281      1.0  0.40655  0.62436  0.20014  1.0000
  S   S282      1.0  0.42682  0.60088  0.24338  1.0000
  Fe  Fe144     1.0  0.39980  0.60763  0.17520  1.0000
  S   S283      1.0  0.37154  0.59632  0.17530  1.0000
  Fe  Fe145     1.0  0.42669  0.64277  0.17037  1.0000
  S   S284      1.0  0.41858  0.59239  0.18259  1.0000
  S   S285      1.0  0.44750  0.62966  0.17665  1.0000
  H   H1202     1.0  0.29519  0.44852  0.18199  1.0000
  H   H1203     1.0  0.25819  0.39433  0.19512  1.0000
  H   H1204     1.0  0.44907  0.44668  0.43660  1.0000
  C   C987      1.0  0.46042  0.61683  0.04877  1.0000
  C   C988      1.0  0.45707  0.62851  0.06261  1.0000
  C   C989      1.0  0.45370  0.62341  0.08696  1.0000
  C   C990      1.0  0.45383  0.60663  0.09760  1.0000
  C   C991      1.0  0.45654  0.59475  0.08380  1.0000
  C   C992      1.0  0.45969  0.59980  0.05947  1.0000
  H   H1205     1.0  0.45749  0.64169  0.05443  1.0000
  H   H1206     1.0  0.45168  0.63268  0.09741  1.0000
  H   H1207     1.0  0.27280  0.38522  0.98236  1.0000
  H   H1208     1.0  0.42629  0.63741  0.28556  1.0000
  H   H1209     1.0  0.26086  0.45290  0.17141  1.0000
  S   S286      1.0  0.24129  0.39498  0.97173  1.0000
  H   H1210     1.0  0.44701  0.36026  0.41050  1.0000
  C   C993      1.0  0.47090  0.61691  0.27976  1.0000
  S   S287      1.0  0.24277  0.35535  0.35368  1.0000
  C   C994      1.0  0.46039  0.61718  0.24407  1.0000
  C   C995      1.0  0.44416  0.60703  0.25681  1.0000
  C   C996      1.0  0.44150  0.60163  0.28104  1.0000
  C   C997      1.0  0.45479  0.60647  0.29246  1.0000
  H   H1211     1.0  0.24957  0.41576  0.17215  1.0000
  H   H1212     1.0  0.46277  0.62120  0.22540  1.0000
  H   H1213     1.0  0.42905  0.59371  0.29109  1.0000
  C   C998      1.0  0.42812  0.56374  0.40726  1.0000
  C   C999      1.0  0.44145  0.55714  0.41333  1.0000
  C   C1000     1.0  0.43806  0.53967  0.42501  1.0000
  C   C1001     1.0  0.42138  0.52870  0.43044  1.0000
  C   C1002     1.0  0.40809  0.53522  0.42408  1.0000
  C   C1003     1.0  0.41148  0.55271  0.41245  1.0000
  H   H1214     1.0  0.45432  0.56556  0.40938  1.0000
  H   H1215     1.0  0.44835  0.53477  0.43015  1.0000
  H   H1216     1.0  0.39522  0.52679  0.42798  1.0000
  H   H1217     1.0  0.40121  0.55770  0.40742  1.0000
  C   C1004     1.0  0.34029  0.54640  0.15923  1.0000
  C   C1005     1.0  0.33285  0.55985  0.16334  1.0000
  C   C1006     1.0  0.34266  0.57503  0.16800  1.0000
  C   C1007     1.0  0.36001  0.57701  0.16871  1.0000
  C   C1008     1.0  0.36741  0.56346  0.16495  1.0000
  C   C1009     1.0  0.35764  0.54835  0.16008  1.0000
  H   H1218     1.0  0.31955  0.55859  0.16278  1.0000
  H   H1219     1.0  0.33672  0.58533  0.17110  1.0000
  H   H1220     1.0  0.38056  0.56449  0.16610  1.0000
  H   H1221     1.0  0.36349  0.53796  0.15717  1.0000
  H   H1222     1.0  0.26602  0.47082  0.98713  1.0000
  H   H1223     1.0  0.44404  0.64082  0.22605  1.0000
  C   C1010     1.0  0.24860  0.45119  0.05905  1.0000
  C   C1011     1.0  0.25523  0.46990  0.08602  1.0000
  C   C1012     1.0  0.26686  0.46089  0.09276  1.0000
  C   C1013     1.0  0.26930  0.44698  0.08251  1.0000
  C   C1014     1.0  0.26022  0.44213  0.06579  1.0000
  H   H1224     1.0  0.27824  0.43989  0.08760  1.0000
  H   H1225     1.0  0.26217  0.43138  0.05818  1.0000
  H   H1226     1.0  0.44908  0.50760  0.41521  1.0000
  H   H1227     1.0  0.28086  0.35197  0.28228  1.0000
  H   H1228     1.0  0.23729  0.47223  0.06418  1.0000
  C   C1015     1.0  0.30461  0.42496  0.41289  1.0000
  C   C1016     1.0  0.30550  0.44207  0.40217  1.0000
  C   C1017     1.0  0.31509  0.45618  0.40920  1.0000
  C   C1018     1.0  0.32406  0.45339  0.42678  1.0000
  C   C1019     1.0  0.32324  0.43628  0.43742  1.0000
  C   C1020     1.0  0.31350  0.42216  0.43054  1.0000
  H   H1229     1.0  0.29889  0.44444  0.38840  1.0000
  H   H1230     1.0  0.24000  0.50239  0.19553  1.0000
  H   H1231     1.0  0.31293  0.40898  0.43890  1.0000
  C   C1021     1.0  0.27696  0.44946  0.27459  1.0000
  C   C1022     1.0  0.28718  0.46076  0.25385  1.0000
  C   C1023     1.0  0.27966  0.46878  0.23716  1.0000
  C   C1024     1.0  0.26182  0.46550  0.24114  1.0000
  C   C1025     1.0  0.25160  0.45428  0.26191  1.0000
  C   C1026     1.0  0.25913  0.44626  0.27859  1.0000
  H   H1232     1.0  0.30099  0.46326  0.25066  1.0000
  H   H1233     1.0  0.28766  0.47747  0.22126  1.0000
  H   H1234     1.0  0.25694  0.36955  0.00463  1.0000
  H   H1235     1.0  0.25114  0.43756  0.29447  1.0000
  C   C1027     1.0  0.30858  0.47697  0.98968  1.0000
  H   H1236     1.0  0.45879  0.38252  0.40363  1.0000
  H   H1237     1.0  0.26622  0.43000  0.46091  1.0000
  C   C1028     1.0  0.26888  0.39578  0.24649  1.0000
  H   H1238     1.0  0.43058  0.34827  0.38658  1.0000
  H   H1239     1.0  0.45649  0.58171  0.09197  1.0000
  H   H1240     1.0  0.46997  0.45875  0.43615  1.0000
  N   N67       1.0  0.27090  0.43104  0.18232  1.0000
  H   H1241     1.0  0.47320  0.56608  0.06455  1.0000
  H   H1242     1.0  0.28945  0.49372  0.01211  1.0000
  Fe  Fe146     1.0  0.26243  0.41566  0.97790  1.0000
  C   C1029     1.0  0.27009  0.41869  0.20415  1.0000
  C   C1030     1.0  0.26323  0.40036  0.20796  1.0000
  C   C1031     1.0  0.27002  0.37467  0.04334  1.0000
  C   C1032     1.0  0.41631  0.57436  0.04195  1.0000
  C   C1033     1.0  0.43773  0.47203  0.41653  1.0000
  S   S288      1.0  0.36553  0.49947  0.46388  1.0000
  C   C1034     1.0  0.29934  0.37288  0.98788  1.0000
  Fe  Fe147     1.0  0.46765  0.35992  0.46459  1.0000
  S   S289      1.0  0.48032  0.60165  0.39885  1.0000
  H   H1243     1.0  0.27851  0.44551  0.43548  1.0000
  H   H1244     1.0  0.28052  0.41878  0.25705  1.0000
  C   C1035     1.0  0.45932  0.45858  0.42699  1.0000
  C   C1036     1.0  0.45715  0.35471  0.36615  1.0000
  C   C1037     1.0  0.26340  0.42258  0.16512  1.0000
  H   H1245     1.0  0.27046  0.44668  0.01273  1.0000
  C   C1038     1.0  0.36498  0.56531  0.44437  1.0000
  H   H1246     1.0  0.26664  0.42404  0.41260  1.0000
  C   C1039     1.0  0.38243  0.57359  0.43938  1.0000
  H   H1247     1.0  0.24804  0.43757  0.19751  1.0000
  H   H1248     1.0  0.42109  0.56923  0.02735  1.0000
  N   N68       1.0  0.45319  0.47457  0.42646  1.0000
  H   H1249     1.0  0.43079  0.48221  0.41843  1.0000
  C   C1040     1.0  0.35779  0.55164  0.46381  1.0000
  H   H1250     1.0  0.41035  0.65277  0.26416  1.0000
  H   H1251     1.0  0.31013  0.37212  0.99652  1.0000
  S   S290      1.0  0.46901  0.62680  0.35860  1.0000
  H   H1252     1.0  0.47026  0.53422  0.39263  1.0000
  H   H1253     1.0  0.45248  0.60231  0.31112  1.0000
  H   H1254     1.0  0.46176  0.59065  0.04891  1.0000
  H   H1255     1.0  0.28355  0.48936  0.97242  1.0000
  S   S291      1.0  0.47438  0.58855  0.35162  1.0000
  H   H1256     1.0  0.42810  0.45949  0.42549  1.0000
  C   C1041     1.0  0.44390  0.65467  0.22118  1.0000
  H   H1257     1.0  0.33005  0.43392  0.45097  1.0000
  S   S292      1.0  0.44288  0.41101  0.45876  1.0000
  N   N69       1.0  0.46502  0.36842  0.37730  1.0000
  H   H1258     1.0  0.41033  0.65121  0.23479  1.0000
  H   H1259     1.0  0.40628  0.57500  0.44833  1.0000
  C   C1042     1.0  0.26426  0.35381  0.31335  1.0000
  C   C1043     1.0  0.28414  0.47933  0.01725  1.0000
  H   H1260     1.0  0.30529  0.41785  0.03260  1.0000
  N   N70       1.0  0.37056  0.56694  0.24791  1.0000
  C   C1044     1.0  0.37696  0.56588  0.26960  1.0000
  C   C1045     1.0  0.38544  0.56945  0.22849  1.0000
  C   C1046     1.0  0.36390  0.58260  0.24459  1.0000
  C   C1047     1.0  0.35710  0.55127  0.24801  1.0000
  C   C1048     1.0  0.34937  0.55063  0.22877  1.0000
  C   C1049     1.0  0.35162  0.53616  0.26651  1.0000
  C   C1050     1.0  0.33709  0.53583  0.22790  1.0000
  C   C1051     1.0  0.33922  0.52142  0.26554  1.0000
  C   C1052     1.0  0.33202  0.52124  0.24626  1.0000
  H   H1261     1.0  0.36647  0.56427  0.28498  1.0000
  H   H1262     1.0  0.38313  0.55499  0.27246  1.0000
  H   H1263     1.0  0.38704  0.57792  0.26890  1.0000
  H   H1264     1.0  0.38215  0.57217  0.21128  1.0000
  H   H1265     1.0  0.39044  0.55770  0.22965  1.0000
  H   H1266     1.0  0.39617  0.58066  0.22850  1.0000
  H   H1267     1.0  0.35209  0.58088  0.25808  1.0000
  H   H1268     1.0  0.37355  0.59449  0.24535  1.0000
  H   H1269     1.0  0.36072  0.58564  0.22735  1.0000
  H   H1270     1.0  0.35291  0.56157  0.21410  1.0000
  H   H1271     1.0  0.35674  0.53532  0.28186  1.0000
  H   H1272     1.0  0.33158  0.53564  0.21278  1.0000
  H   H1273     1.0  0.33524  0.50998  0.27975  1.0000
  H   H1274     1.0  0.32252  0.50975  0.24550  1.0000
  N   N71       1.0  0.39719  0.59459  0.10030  1.0000
  C   C1053     1.0  0.40251  0.61389  0.09626  1.0000
  C   C1054     1.0  0.37814  0.58911  0.10641  1.0000
  C   C1055     1.0  0.40360  0.58738  0.12041  1.0000
  C   C1056     1.0  0.40384  0.58794  0.08008  1.0000
  C   C1057     1.0  0.39873  0.56988  0.08048  1.0000
  C   C1058     1.0  0.41573  0.59886  0.05983  1.0000
  C   C1059     1.0  0.40485  0.56326  0.06164  1.0000
  C   C1060     1.0  0.42174  0.59209  0.04107  1.0000
  S   S293      1.0  0.24451  0.40552  0.33668  1.0000
  H   H1275     1.0  0.39839  0.62018  0.08100  1.0000
  H   H1276     1.0  0.39670  0.61852  0.11140  1.0000
  H   H1277     1.0  0.41666  0.61892  0.09362  1.0000
  H   H1278     1.0  0.37281  0.59316  0.09118  1.0000
  H   H1279     1.0  0.37275  0.59490  0.12060  1.0000
  H   H1280     1.0  0.37287  0.57479  0.11290  1.0000
  H   H1281     1.0  0.41787  0.59110  0.11649  1.0000
  H   H1282     1.0  0.39904  0.59221  0.13599  1.0000
  H   H1283     1.0  0.39928  0.57293  0.12545  1.0000
  H   H1284     1.0  0.39002  0.56072  0.09548  1.0000
  H   H1285     1.0  0.42082  0.61267  0.05804  1.0000
  C   C1061     1.0  0.41744  0.64937  0.24880  1.0000
  C   C1062     1.0  0.25426  0.42075  0.42553  1.0000
  H   H1286     1.0  0.30227  0.38612  0.97640  1.0000
  H   H1287     1.0  0.26714  0.45395  0.40327  1.0000
  C   C1063     1.0  0.47394  0.52207  0.39568  1.0000
  C   C1064     1.0  0.24619  0.46508  0.06929  1.0000
  S   S294      1.0  0.23752  0.44649  0.03702  1.0000
  H   H1288     1.0  0.44204  0.37613  0.38929  1.0000
  C   C1065     1.0  0.47364  0.62216  0.25551  1.0000
  H   H1289     1.0  0.48099  0.35584  0.34231  1.0000
  H   H1290     1.0  0.26991  0.47666  0.02222  1.0000
  Fe  Fe148     1.0  0.35407  0.47240  0.45952  1.0000
  C   C1066     1.0  0.46189  0.50673  0.40855  1.0000
  C   C1067     1.0  0.33727  0.48055  0.99787  1.0000
  S   S295      1.0  0.47465  0.38694  0.44238  1.0000
  H   H1291     1.0  0.47295  0.65467  0.30614  1.0000
  C   C1068     1.0  0.28462  0.45184  0.00692  1.0000
  H   H1292     1.0  0.25745  0.37521  0.23150  1.0000
  N   N72       1.0  0.25184  0.43595  0.43500  1.0000
  H   H1293     1.0  0.44116  0.47209  0.39776  1.0000
  S   S296      1.0  0.24938  0.53865  0.14030  1.0000
  H   H1294     1.0  0.43710  0.65590  0.20681  1.0000
  H   H1295     1.0  0.34421  0.54515  0.46765  1.0000
  H   H1296     1.0  0.26366  0.45179  0.45598  1.0000
  C   C1069     1.0  0.28018  0.47511  0.97998  1.0000
  C   C1070     1.0  0.28905  0.44035  0.17115  1.0000
  N   N73       1.0  0.28279  0.36863  0.00521  1.0000
  H   H1297     1.0  0.26501  0.34466  0.02658  1.0000
  C   C1071     1.0  0.47638  0.33111  0.99066  1.0000
  H   H1298     1.0  0.30437  0.33491  0.33751  1.0000
  C   C1072     1.0  0.43938  0.34585  0.37268  1.0000
  H   H1299     1.0  0.40070  0.54943  0.06232  1.0000
  H   H1300     1.0  0.34528  0.47920  0.01022  1.0000
  C   C1073     1.0  0.46628  0.49064  0.41286  1.0000
  H   H1301     1.0  0.31573  0.46937  0.40079  1.0000
  N   N74       1.0  0.28970  0.47100  0.99814  1.0000
  C   C1074     1.0  0.25413  0.45062  0.41494  1.0000
  H   H1302     1.0  0.35705  0.56944  0.43307  1.0000
  H   H1303     1.0  0.27041  0.41320  0.15952  1.0000
  C   C1075     1.0  0.26947  0.37161  0.99257  1.0000
  C   C1076     1.0  0.26270  0.38915  0.22887  1.0000
  H   H1304     1.0  0.30581  0.40063  0.00357  1.0000
  H   H1305     1.0  0.43087  0.60067  0.02584  1.0000
  C   C1077     1.0  0.28269  0.40036  0.05602  1.0000
  C   C1078     1.0  0.28321  0.37940  0.02276  1.0000
  H   H1306     1.0  0.28234  0.40844  0.06858  1.0000
  H   H1307     1.0  0.28801  0.47447  0.03345  1.0000
  S   S297      1.0  0.46239  0.58072  0.99315  1.0000
  C   C1079     1.0  0.29560  0.40562  0.03578  1.0000
  C   C1080     1.0  0.39282  0.56816  0.45364  1.0000
  Fe  Fe149     1.0  0.24173  0.41342  0.37098  1.0000
  C   C1081     1.0  0.24024  0.66136  0.13342  1.0000
  C   C1082     1.0  0.26556  0.44103  0.44744  1.0000
  Fe  Fe150     1.0  0.23844  0.42634  0.01463  1.0000
  H   H1308     1.0  0.48380  0.37221  0.39830  1.0000
  H   H1309     1.0  0.39549  0.43821  0.46412  1.0000
  Fe  Fe151     1.0  0.48488  0.61651  0.33263  1.0000
  C   C1083     1.0  0.44864  0.64531  0.29787  1.0000
  H   H1310     1.0  0.28998  0.44773  0.02203  1.0000
  H   H1311     1.0  0.26416  0.43232  0.14902  1.0000
  C   C1084     1.0  0.27572  0.41364  0.24327  1.0000
  Fe  Fe152     1.0  0.47475  0.60847  0.99306  1.0000
  H   H1312     1.0  0.25945  0.38118  0.07503  1.0000
  C   C1085     1.0  0.25022  0.34507  0.33172  1.0000
  H   H1313     1.0  0.25924  0.36339  0.04654  1.0000
  C   C1086     1.0  0.29586  0.39542  0.01926  1.0000
  C   C1087     1.0  0.45261  0.37191  0.39593  1.0000
  H   H1314     1.0  0.28185  0.43866  0.22081  1.0000
  S   S298      1.0  0.33561  0.47168  0.43523  1.0000
  H   H1315     1.0  0.24709  0.53280  0.20120  1.0000
  C   C1088     1.0  0.26995  0.34511  0.29641  1.0000
  C   C1089     1.0  0.26989  0.38495  0.05974  1.0000
  Fe  Fe153     1.0  0.45992  0.59896  0.37863  1.0000
  H   H1316     1.0  0.27075  0.36724  0.31222  1.0000
  H   H1317     1.0  0.29680  0.43104  0.16777  1.0000
  C   C1090     1.0  0.31940  0.47527  0.00544  1.0000
  H   H1318     1.0  0.38812  0.58409  0.42405  1.0000
  C   C1091     1.0  0.46025  0.33693  0.33723  1.0000
  H   H1319     1.0  0.41682  0.63522  0.25294  1.0000
  S   S299      1.0  0.46406  0.33633  0.44807  1.0000
  H   H1320     1.0  0.29906  0.36386  0.97588  1.0000
  H   H1321     1.0  0.27961  0.34156  0.00353  1.0000
  H   H1322     1.0  0.23779  0.45167  0.26509  1.0000
  H   H1323     1.0  0.26839  0.38707  0.26271  1.0000
  C   C1092     1.0  0.43880  0.64650  0.28121  1.0000
  H   H1324     1.0  0.29022  0.44936  0.15424  1.0000
  H   H1325     1.0  0.25319  0.48062  0.09368  1.0000
  H   H1326     1.0  0.26757  0.45250  0.19796  1.0000
  H   H1327     1.0  0.25453  0.40956  0.43903  1.0000
  H   H1328     1.0  0.28705  0.34722  0.02833  1.0000
  C   C1093     1.0  0.26143  0.44401  0.18752  1.0000
  C   C1094     1.0  0.27851  0.34978  0.01646  1.0000
  H   H1329     1.0  0.46825  0.33328  0.32353  1.0000
  H   H1330     1.0  0.28902  0.44518  0.99319  1.0000
  Fe  Fe154     1.0  0.39019  0.49167  0.46158  1.0000
  H   H1331     1.0  0.26761  0.36288  0.98035  1.0000
  S   S300      1.0  0.24793  0.43602  0.97594  1.0000
  H   H1332     1.0  0.47851  0.39572  0.36761  1.0000
  H   H1333     1.0  0.44360  0.63563  0.31411  1.0000
  C   C1095     1.0  0.48366  0.49099  0.40402  1.0000
  H   H1334     1.0  0.24383  0.41622  0.41676  1.0000
  H   H1335     1.0  0.24486  0.44723  0.40392  1.0000
  H   H1336     1.0  0.44230  0.48727  0.45186  1.0000
  C   C1096     1.0  0.46522  0.65603  0.29342  1.0000
  H   H1337     1.0  0.24557  0.65683  0.14846  1.0000
  C   C1097     1.0  0.44806  0.47614  0.45074  1.0000
  H   H1338     1.0  0.46356  0.45668  0.40922  1.0000
  C   C1098     1.0  0.41605  0.42571  0.46233  1.0000
  H   H1339     1.0  0.45927  0.47822  0.45886  1.0000
  H   H1340     1.0  0.25264  0.46264  0.42070  1.0000
  N   N75       1.0  0.43545  0.66029  0.24130  1.0000
  C   C1099     1.0  0.47865  0.36313  0.38776  1.0000
  C   C1100     1.0  0.46738  0.34981  0.34809  1.0000
  C   C1101     1.0  0.47280  0.38501  0.35968  1.0000
  H   H1341     1.0  0.43825  0.46422  0.46160  1.0000
  H   H1342     1.0  0.48330  0.38398  0.34596  1.0000
  H   H1343     1.0  0.46302  0.38914  0.35096  1.0000
  H   H1344     1.0  0.42022  0.55472  0.46277  1.0000
  C   C1102     1.0  0.44532  0.65882  0.25956  1.0000
  H   H1345     1.0  0.48448  0.57666  0.03524  1.0000
  H   H1346     1.0  0.48460  0.34127  0.01862  1.0000
  H   H1347     1.0  0.48407  0.55459  0.04644  1.0000
  H   H1348     1.0  0.45740  0.66249  0.21403  1.0000
  C   C1103     1.0  0.34487  0.48751  0.97442  1.0000
  C   C1104     1.0  0.43024  0.32990  0.44342  1.0000
  C   C1105     1.0  0.48493  0.56744  0.05109  1.0000
  C   C1106     1.0  0.42761  0.55747  0.71393  1.0000
  H   H1349     1.0  0.45300  0.40357  0.93253  1.0000
  S   S301      1.0  0.34684  0.46064  0.49796  1.0000
  S   S302      1.0  0.38544  0.48164  0.49995  1.0000
  Fe  Fe155     1.0  0.37326  0.45604  0.49276  1.0000
  S   S303      1.0  0.38045  0.43332  0.51298  1.0000
  Fe  Fe156     1.0  0.35988  0.48724  0.50190  1.0000
  S   S304      1.0  0.34712  0.50011  0.52829  1.0000
  H   H1350     1.0  0.46826  0.34806  0.88940  1.0000
  Fe  Fe157     1.0  0.37670  0.57359  0.65554  1.0000
  S   S305      1.0  0.38793  0.55068  0.65524  1.0000
  S   S306      1.0  0.39525  0.60109  0.64625  1.0000
  Fe  Fe158     1.0  0.33994  0.54992  0.66337  1.0000
  S   S307      1.0  0.34904  0.52567  0.66400  1.0000
  S   S308      1.0  0.31125  0.54827  0.67233  1.0000
  Fe  Fe159     1.0  0.36635  0.53660  0.68593  1.0000
  S   S309      1.0  0.37000  0.51725  0.71574  1.0000
  Fe  Fe160     1.0  0.36980  0.54173  0.63322  1.0000
  S   S310      1.0  0.38194  0.53077  0.60395  1.0000
  S   S311      1.0  0.35596  0.55987  0.68773  1.0000
  S   S312      1.0  0.35985  0.56562  0.63113  1.0000
  S   S313      1.0  0.25213  0.51188  0.62664  1.0000
  C   C1107     1.0  0.36273  0.63672  0.69244  1.0000
  H   H1351     1.0  0.35948  0.62113  0.66717  1.0000
  Fe  Fe161     1.0  0.47406  0.37393  0.50759  1.0000
  Fe  Fe162     1.0  0.36677  0.49144  0.87979  1.0000
  S   S314      1.0  0.37525  0.48595  0.84486  1.0000
  S   S315      1.0  0.33839  0.48823  0.89364  1.0000
  Fe  Fe163     1.0  0.40391  0.50615  0.88353  1.0000
  S   S316      1.0  0.41496  0.50239  0.84839  1.0000
  S   S317      1.0  0.42251  0.51243  0.90653  1.0000
  Fe  Fe164     1.0  0.39371  0.51242  0.83664  1.0000
  S   S318      1.0  0.39647  0.53350  0.80463  1.0000
  Fe  Fe165     1.0  0.39561  0.47635  0.85972  1.0000
  S   S319      1.0  0.40111  0.45046  0.85719  1.0000
  S   S320      1.0  0.38432  0.51855  0.87097  1.0000
  S   S321      1.0  0.38538  0.47949  0.89547  1.0000
  H   H1352     1.0  0.43032  0.57194  0.65598  1.0000
  S   S322      1.0  0.47165  0.39344  0.84801  1.0000
  H   H1353     1.0  0.42286  0.55125  0.49195  1.0000
  C   C1108     1.0  0.25889  0.49394  0.73265  1.0000
  S   S323      1.0  0.44236  0.64935  0.69696  1.0000
  C   C1109     1.0  0.40250  0.43111  0.47396  1.0000
  S   S324      1.0  0.45026  0.36600  0.49366  1.0000
  C   C1110     1.0  0.40698  0.56837  0.69613  1.0000
  H   H1354     1.0  0.44438  0.56177  0.67005  1.0000
  C   C1111     1.0  0.38329  0.64107  0.65654  1.0000
  C   C1112     1.0  0.42255  0.44935  0.84984  1.0000
  C   C1113     1.0  0.43613  0.46445  0.84245  1.0000
  C   C1114     1.0  0.45313  0.46324  0.83745  1.0000
  C   C1115     1.0  0.45671  0.44694  0.84014  1.0000
  C   C1116     1.0  0.44315  0.43179  0.84736  1.0000
  C   C1117     1.0  0.42610  0.43302  0.85208  1.0000
  H   H1355     1.0  0.43357  0.47708  0.84040  1.0000
  H   H1356     1.0  0.46356  0.47500  0.83163  1.0000
  H   H1357     1.0  0.44580  0.41917  0.84928  1.0000
  H   H1358     1.0  0.41565  0.42128  0.85772  1.0000
  C   C1118     1.0  0.43825  0.56489  0.92672  1.0000
  C   C1119     1.0  0.42603  0.56232  0.91317  1.0000
  C   C1120     1.0  0.42116  0.54636  0.90665  1.0000
  C   C1121     1.0  0.42845  0.53285  0.91375  1.0000
  C   C1122     1.0  0.44072  0.53546  0.92722  1.0000
  C   C1123     1.0  0.44565  0.55143  0.93364  1.0000
  H   H1359     1.0  0.42023  0.57266  0.90779  1.0000
  H   H1360     1.0  0.41169  0.54447  0.89630  1.0000
  H   H1361     1.0  0.44640  0.52507  0.93280  1.0000
  H   H1362     1.0  0.45504  0.55328  0.94411  1.0000
  C   C1124     1.0  0.37610  0.52193  0.74118  1.0000
  C   C1125     1.0  0.37904  0.53871  0.74529  1.0000
  C   C1126     1.0  0.38520  0.54209  0.76487  1.0000
  C   C1127     1.0  0.38789  0.52862  0.78087  1.0000
  C   C1128     1.0  0.38405  0.51166  0.77741  1.0000
  C   C1129     1.0  0.37833  0.50838  0.75753  1.0000
  H   H1363     1.0  0.37666  0.54906  0.73336  1.0000
  H   H1364     1.0  0.38793  0.55519  0.76762  1.0000
  H   H1365     1.0  0.38608  0.50119  0.78961  1.0000
  H   H1366     1.0  0.37590  0.49532  0.75460  1.0000
  C   C1130     1.0  0.29504  0.53839  0.65908  1.0000
  C   C1131     1.0  0.27780  0.53765  0.66823  1.0000
  C   C1132     1.0  0.26448  0.52955  0.65866  1.0000
  C   C1133     1.0  0.26828  0.52217  0.63967  1.0000
  C   C1134     1.0  0.28550  0.52286  0.63055  1.0000
  C   C1135     1.0  0.29880  0.53088  0.64019  1.0000
  H   H1367     1.0  0.27473  0.54337  0.68287  1.0000
  H   H1368     1.0  0.25134  0.52926  0.66577  1.0000
  H   H1369     1.0  0.28862  0.51719  0.61590  1.0000
  H   H1370     1.0  0.31197  0.53131  0.63298  1.0000
  H   H1371     1.0  0.44049  0.44377  0.88810  1.0000
  C   C1136     1.0  0.42041  0.41174  0.49897  1.0000
  C   C1137     1.0  0.40656  0.41689  0.51066  1.0000
  C   C1138     1.0  0.39767  0.42674  0.49816  1.0000
  H   H1372     1.0  0.42733  0.40434  0.50866  1.0000
  H   H1373     1.0  0.40281  0.41332  0.52939  1.0000
  C   C1139     1.0  0.35708  0.50893  0.54891  1.0000
  C   C1140     1.0  0.34809  0.51684  0.56418  1.0000
  C   C1141     1.0  0.35555  0.52375  0.58104  1.0000
  C   C1142     1.0  0.37208  0.52278  0.58274  1.0000
  C   C1143     1.0  0.38113  0.51507  0.56725  1.0000
  C   C1144     1.0  0.37368  0.50818  0.55041  1.0000
  H   H1374     1.0  0.33526  0.51754  0.56312  1.0000
  H   H1375     1.0  0.34849  0.52971  0.59282  1.0000
  H   H1376     1.0  0.39391  0.51428  0.56849  1.0000
  H   H1377     1.0  0.38075  0.50226  0.53868  1.0000
  C   C1145     1.0  0.42911  0.63650  0.68241  1.0000
  C   C1146     1.0  0.43204  0.63963  0.65822  1.0000
  C   C1147     1.0  0.42161  0.62860  0.64756  1.0000
  C   C1148     1.0  0.40805  0.61436  0.66086  1.0000
  C   C1149     1.0  0.40487  0.61151  0.68507  1.0000
  C   C1150     1.0  0.41543  0.62240  0.69572  1.0000
  H   H1378     1.0  0.42411  0.63107  0.62883  1.0000
  H   H1379     1.0  0.39418  0.60102  0.69559  1.0000
  H   H1380     1.0  0.41294  0.61992  0.71445  1.0000
  C   C1151     1.0  0.30387  0.43830  0.94415  1.0000
  C   C1152     1.0  0.29675  0.45089  0.93359  1.0000
  C   C1153     1.0  0.30747  0.46605  0.91789  1.0000
  C   C1154     1.0  0.32534  0.46865  0.91254  1.0000
  C   C1155     1.0  0.33244  0.45595  0.92287  1.0000
  C   C1156     1.0  0.32172  0.44084  0.93867  1.0000
  C   C1157     1.0  0.44159  0.33802  0.94289  1.0000
  H   H1381     1.0  0.34619  0.45783  0.91887  1.0000
  H   H1382     1.0  0.32731  0.43111  0.94670  1.0000
  H   H1383     1.0  0.40230  0.57308  0.71174  1.0000
  N   N76       1.0  0.36652  0.45432  0.57253  1.0000
  C   C1158     1.0  0.35538  0.45504  0.55565  1.0000
  C   C1159     1.0  0.38458  0.46142  0.55918  1.0000
  C   C1160     1.0  0.36387  0.43575  0.58365  1.0000
  C   C1161     1.0  0.36292  0.46417  0.59057  1.0000
  C   C1162     1.0  0.34909  0.47212  0.59267  1.0000
  C   C1163     1.0  0.37348  0.46609  0.60675  1.0000
  C   C1164     1.0  0.34642  0.48175  0.60950  1.0000
  C   C1165     1.0  0.37084  0.47600  0.62325  1.0000
  C   C1166     1.0  0.35741  0.48391  0.62450  1.0000
  H   H1384     1.0  0.35684  0.46869  0.54650  1.0000
  H   H1385     1.0  0.35861  0.44784  0.54204  1.0000
  H   H1386     1.0  0.34162  0.44891  0.56411  1.0000
  H   H1387     1.0  0.38750  0.47567  0.55203  1.0000
  H   H1388     1.0  0.38735  0.45519  0.54433  1.0000
  H   H1389     1.0  0.39396  0.45918  0.56978  1.0000
  H   H1390     1.0  0.35048  0.42993  0.59399  1.0000
  H   H1391     1.0  0.36633  0.42795  0.57043  1.0000
  H   H1392     1.0  0.37260  0.43398  0.59549  1.0000
  H   H1393     1.0  0.34042  0.47158  0.58111  1.0000
  H   H1394     1.0  0.38403  0.46018  0.60652  1.0000
  H   H1395     1.0  0.33615  0.48819  0.61033  1.0000
  H   H1396     1.0  0.37940  0.47785  0.63490  1.0000
  H   H1397     1.0  0.35574  0.49206  0.63680  1.0000
  C   C1167     1.0  0.23668  0.48340  0.54719  1.0000
  H   H1398     1.0  0.40310  0.52375  0.50076  1.0000
  C   C1168     1.0  0.38594  0.55406  0.47343  1.0000
  H   H1399     1.0  0.31493  0.50999  0.53594  1.0000
  H   H1400     1.0  0.23963  0.47082  0.54571  1.0000
  C   C1169     1.0  0.45249  0.34832  0.92195  1.0000
  C   C1170     1.0  0.48087  0.40112  0.62394  1.0000
  H   H1401     1.0  0.30969  0.48568  0.95252  1.0000
  H   H1402     1.0  0.23989  0.49222  0.52968  1.0000
  H   H1403     1.0  0.30064  0.51811  0.57066  1.0000
  C   C1171     1.0  0.23936  0.50717  0.56622  1.0000
  C   C1172     1.0  0.45866  0.63403  0.90317  1.0000
  H   H1404     1.0  0.24071  0.45522  0.72377  1.0000
  C   C1173     1.0  0.41737  0.34915  0.89053  1.0000
  H   H1405     1.0  0.44887  0.37477  0.60641  1.0000
  H   H1406     1.0  0.24382  0.51757  0.55000  1.0000
  H   H1407     1.0  0.45918  0.37829  0.64109  1.0000
  H   H1408     1.0  0.44958  0.64057  0.89593  1.0000
  H   H1409     1.0  0.24357  0.51289  0.58041  1.0000
  H   H1410     1.0  0.40453  0.57658  0.68082  1.0000
  C   C1174     1.0  0.27510  0.50621  0.56774  1.0000
  H   H1411     1.0  0.24008  0.41053  0.47528  1.0000
  H   H1412     1.0  0.24580  0.48493  0.59972  1.0000
  C   C1175     1.0  0.36767  0.63198  0.67162  1.0000
  H   H1413     1.0  0.39889  0.55493  0.69829  1.0000
  H   H1414     1.0  0.39758  0.52601  0.47306  1.0000
  C   C1176     1.0  0.28935  0.50601  0.71662  1.0000
  H   H1415     1.0  0.27673  0.50613  0.75101  1.0000
  H   H1416     1.0  0.40047  0.36340  0.90435  1.0000
  H   H1417     1.0  0.43005  0.52642  0.77061  1.0000
  C   C1177     1.0  0.46230  0.61814  0.87343  1.0000
  H   H1418     1.0  0.41399  0.53313  0.70683  1.0000
  C   C1178     1.0  0.29299  0.51093  0.56078  1.0000
  H   H1419     1.0  0.29850  0.50441  0.68162  1.0000
  C   C1179     1.0  0.43525  0.56408  0.73112  1.0000
  C   C1180     1.0  0.39424  0.65473  0.66234  1.0000
  C   C1181     1.0  0.45980  0.34025  0.90556  1.0000
  H   H1420     1.0  0.39861  0.54614  0.52437  1.0000
  C   C1182     1.0  0.40290  0.35069  0.90521  1.0000
  C   C1183     1.0  0.26467  0.49687  0.55521  1.0000
  C   C1184     1.0  0.27333  0.49234  0.53541  1.0000
  C   C1185     1.0  0.29126  0.49708  0.52864  1.0000
  C   C1186     1.0  0.39453  0.52882  0.49053  1.0000
  H   H1421     1.0  0.45532  0.60576  0.88642  1.0000
  C   C1187     1.0  0.33463  0.48924  0.95850  1.0000
  C   C1188     1.0  0.39087  0.55062  0.51226  1.0000
  H   H1422     1.0  0.45181  0.41988  0.96370  1.0000
  H   H1423     1.0  0.35872  0.49153  0.96851  1.0000
  C   C1189     1.0  0.31676  0.48408  0.96588  1.0000
  H   H1424     1.0  0.47965  0.35621  0.59163  1.0000
  H   H1425     1.0  0.47785  0.61080  0.90664  1.0000
  H   H1426     1.0  0.26658  0.48507  0.52489  1.0000
  H   H1427     1.0  0.29768  0.49347  0.51356  1.0000
  N   N77       1.0  0.43744  0.46554  0.91763  1.0000
  C   C1190     1.0  0.45047  0.47790  0.89788  1.0000
  C   C1191     1.0  0.42048  0.46293  0.91152  1.0000
  C   C1192     1.0  0.43656  0.47391  0.93775  1.0000
  C   C1193     1.0  0.44186  0.44866  0.92220  1.0000
  C   C1194     1.0  0.47872  0.39040  0.66600  1.0000
  C   C1195     1.0  0.44529  0.44136  0.94365  1.0000
  C   C1196     1.0  0.44997  0.41606  0.92974  1.0000
  S   S325      1.0  0.48111  0.40210  0.48847  1.0000
  C   C1197     1.0  0.37352  0.65045  0.69837  1.0000
  H   H1428     1.0  0.45087  0.47331  0.88149  1.0000
  H   H1429     1.0  0.44769  0.49088  0.89430  1.0000
  H   H1430     1.0  0.47132  0.61453  0.86017  1.0000
  H   H1431     1.0  0.41035  0.45309  0.92532  1.0000
  H   H1432     1.0  0.42044  0.45853  0.89503  1.0000
  H   H1433     1.0  0.41648  0.47527  0.90894  1.0000
  H   H1434     1.0  0.46351  0.47981  0.90140  1.0000
  S   S326      1.0  0.29094  0.41930  0.96440  1.0000
  H   H1435     1.0  0.43612  0.34421  0.95579  1.0000
  H   H1436     1.0  0.27062  0.49038  0.67645  1.0000
  C   C1198     1.0  0.47746  0.33420  0.96687  1.0000
  H   H1437     1.0  0.46464  0.64204  0.91427  1.0000
  H   H1438     1.0  0.34060  0.49450  0.94021  1.0000
  C   C1199     1.0  0.41517  0.55655  0.48039  1.0000
  H   H1439     1.0  0.30190  0.47580  0.90988  1.0000
  H   H1440     1.0  0.45252  0.62283  0.86536  1.0000
  C   C1200     1.0  0.48066  0.64818  0.86801  1.0000
  H   H1441     1.0  0.30189  0.51294  0.71812  1.0000
  C   C1201     1.0  0.39181  0.33606  0.92126  1.0000
  C   C1202     1.0  0.44283  0.43896  0.90480  1.0000
  H   H1442     1.0  0.24293  0.48995  0.67239  1.0000
  C   C1203     1.0  0.28740  0.50118  0.69598  1.0000
  C   C1204     1.0  0.42074  0.33295  0.89167  1.0000
  C   C1205     1.0  0.45992  0.38539  0.60532  1.0000
  S   S327      1.0  0.47826  0.44612  0.83478  1.0000
  H   H1443     1.0  0.42619  0.36058  0.87853  1.0000
  C   C1206     1.0  0.23839  0.47759  0.68595  1.0000
  H   H1444     1.0  0.43386  0.59557  0.67310  1.0000
  C   C1207     1.0  0.43097  0.56287  0.67192  1.0000
  C   C1208     1.0  0.42227  0.52809  0.73817  1.0000
  H   H1445     1.0  0.46500  0.39028  0.67119  1.0000
  S   S328      1.0  0.45662  0.37120  0.91662  1.0000
  H   H1446     1.0  0.36183  0.53548  0.49313  1.0000
  C   C1209     1.0  0.44678  0.42292  0.90855  1.0000
  C   C1210     1.0  0.48263  0.40997  0.58211  1.0000
  S   S329      1.0  0.47415  0.36423  0.54563  1.0000
  C   C1211     1.0  0.43520  0.58744  0.68936  1.0000
  H   H1447     1.0  0.47558  0.64106  0.83578  1.0000
  N   N78       1.0  0.33417  0.50509  0.82527  1.0000
  C   C1212     1.0  0.31891  0.50674  0.84120  1.0000
  C   C1213     1.0  0.33442  0.48649  0.83057  1.0000
  C   C1214     1.0  0.34978  0.51541  0.83049  1.0000
  C   C1215     1.0  0.33370  0.51174  0.80086  1.0000
  C   C1216     1.0  0.33393  0.50137  0.78407  1.0000
  C   C1217     1.0  0.33322  0.52924  0.79313  1.0000
  C   C1218     1.0  0.33369  0.50819  0.76110  1.0000
  C   C1219     1.0  0.33309  0.53594  0.77008  1.0000
  C   C1220     1.0  0.33336  0.52543  0.75409  1.0000
  H   H1448     1.0  0.30685  0.49979  0.83720  1.0000
  H   H1449     1.0  0.31858  0.50113  0.85967  1.0000
  H   H1450     1.0  0.31872  0.52053  0.84024  1.0000
  H   H1451     1.0  0.33482  0.48190  0.84903  1.0000
  H   H1452     1.0  0.34603  0.48440  0.81993  1.0000
  H   H1453     1.0  0.32276  0.47784  0.82774  1.0000
  H   H1454     1.0  0.35048  0.52950  0.82794  1.0000
  H   H1455     1.0  0.35058  0.51092  0.84875  1.0000
  H   H1456     1.0  0.36150  0.51423  0.81917  1.0000
  H   H1457     1.0  0.33470  0.48806  0.78800  1.0000
  H   H1458     1.0  0.33325  0.53797  0.80480  1.0000
  H   H1459     1.0  0.33451  0.50027  0.74835  1.0000
  H   H1460     1.0  0.33309  0.54943  0.76444  1.0000
  H   H1461     1.0  0.33376  0.53076  0.73607  1.0000
  N   N79       1.0  0.23891  0.48087  0.70938  1.0000
  C   C1221     1.0  0.42095  0.53912  0.71827  1.0000
  H   H1462     1.0  0.44156  0.55818  0.76447  1.0000
  C   C1222     1.0  0.27118  0.49308  0.69328  1.0000
  Fe  Fe166     1.0  0.47610  0.38733  0.88411  1.0000
  H   H1463     1.0  0.45097  0.62148  0.91520  1.0000
  H   H1464     1.0  0.44742  0.41579  0.89487  1.0000
  H   H1465     1.0  0.26950  0.50985  0.58317  1.0000
  H   H1466     1.0  0.38101  0.33826  0.93230  1.0000
  Fe  Fe167     1.0  0.45876  0.39364  0.47234  1.0000
  H   H1467     1.0  0.37728  0.54341  0.52037  1.0000
  H   H1468     1.0  0.39193  0.56467  0.51164  1.0000
  H   H1469     1.0  0.38128  0.52090  0.49911  1.0000
  C   C1223     1.0  0.42979  0.53497  0.75466  1.0000
  H   H1470     1.0  0.42265  0.55004  0.67170  1.0000
  C   C1224     1.0  0.43622  0.55291  0.75117  1.0000
  H   H1471     1.0  0.44913  0.58867  0.68792  1.0000
  H   H1472     1.0  0.43220  0.33185  0.88053  1.0000
  C   C1225     1.0  0.44928  0.42528  0.94724  1.0000
  C   C1226     1.0  0.25634  0.48931  0.71158  1.0000
  C   C1227     1.0  0.42522  0.41622  0.47471  1.0000
  H   H1473     1.0  0.43311  0.48650  0.93377  1.0000
  H   H1474     1.0  0.38715  0.63711  0.64050  1.0000
  C   C1228     1.0  0.46816  0.39656  0.58388  1.0000
  C   C1229     1.0  0.48160  0.65103  0.84371  1.0000
  H   H1475     1.0  0.43047  0.59359  0.70347  1.0000
  H   H1476     1.0  0.44020  0.57784  0.72980  1.0000
  H   H1477     1.0  0.41671  0.51416  0.74136  1.0000
  H   H1478     1.0  0.44494  0.44776  0.95794  1.0000
  S   S330      1.0  0.44389  0.58504  0.93474  1.0000
  Fe  Fe168     1.0  0.46451  0.59024  0.95499  1.0000
  H   H1479     1.0  0.44914  0.47701  0.94265  1.0000
  H   H1480     1.0  0.24587  0.46752  0.58493  1.0000
  N   N80       1.0  0.39656  0.54773  0.48876  1.0000
  H   H1481     1.0  0.44253  0.65034  0.64768  1.0000
  C   C1230     1.0  0.30105  0.50638  0.54126  1.0000
  H   H1482     1.0  0.28299  0.44888  0.93738  1.0000
  Fe  Fe169     1.0  0.48491  0.42109  0.84781  1.0000
  N   N81       1.0  0.42537  0.56894  0.69322  1.0000
  N   N82       1.0  0.47152  0.63132  0.88439  1.0000
  C   C1231     1.0  0.24083  0.47909  0.58604  1.0000
  S   S331      1.0  0.47454  0.61830  0.95577  1.0000
  H   H1483     1.0  0.46362  0.39448  0.56846  1.0000
  H   H1484     1.0  0.42654  0.46557  0.95302  1.0000
  C   C1232     1.0  0.46609  0.38755  0.62514  1.0000
  C   C1233     1.0  0.27515  0.50229  0.73499  1.0000
  H   H1485     1.0  0.24621  0.46858  0.68144  1.0000
  H   H1486     1.0  0.35053  0.62961  0.70410  1.0000
  N   N83       1.0  0.24574  0.49171  0.56332  1.0000
  C   C1234     1.0  0.48405  0.62387  0.89485  1.0000
  H   H1487     1.0  0.47965  0.37718  0.66401  1.0000
  H   H1488     1.0  0.41787  0.57076  0.47978  1.0000
  H   H1489     1.0  0.28265  0.46820  0.96584  1.0000
  C   C1235     1.0  0.36804  0.54613  0.47824  1.0000
  H   H1490     1.0  0.24827  0.49133  0.74738  1.0000
  H   H1491     1.0  0.36916  0.65361  0.71472  1.0000
  H   H1492     1.0  0.40997  0.65553  0.71255  1.0000
  C   C1236     1.0  0.38972  0.65977  0.68361  1.0000
  H   H1493     1.0  0.47304  0.42184  0.65201  1.0000
  H   H1494     1.0  0.40633  0.66083  0.65005  1.0000
  H   H1495     1.0  0.48438  0.39277  0.68105  1.0000
  S   S332      1.0  0.26449  0.87765  0.40892  1.0000
  C   C1237     1.0  0.41854  0.95625  0.39186  1.0000
  H   H1496     1.0  0.33928  0.84609  0.08704  1.0000
  S   S333      1.0  0.38442  0.92343  0.99690  1.0000
  H   H1497     1.0  0.30549  0.85622  0.35364  1.0000
  Fe  Fe170     1.0  0.35617  0.91024  0.00930  1.0000
  S   S334      1.0  0.34073  0.89858  0.04632  1.0000
  S   S335      1.0  0.34851  0.93225  0.98888  1.0000
  Fe  Fe171     1.0  0.33751  0.83463  0.21020  1.0000
  S   S336      1.0  0.32651  0.80586  0.21309  1.0000
  S   S337      1.0  0.33231  0.84869  0.23953  1.0000
  Fe  Fe172     1.0  0.35218  0.84151  0.15801  1.0000
  S   S338      1.0  0.34259  0.81356  0.15674  1.0000
  S   S339      1.0  0.36983  0.86145  0.12676  1.0000
  Fe  Fe173     1.0  0.31794  0.81364  0.18005  1.0000
  S   S340      1.0  0.29130  0.80545  0.17205  1.0000
  Fe  Fe174     1.0  0.35194  0.80772  0.18953  1.0000
  S   S341      1.0  0.36676  0.78718  0.19138  1.0000
  S   S342      1.0  0.32707  0.84239  0.17883  1.0000
  S   S343      1.0  0.36338  0.83572  0.18908  1.0000
  C   C1238     1.0  0.43233  0.96110  0.44124  1.0000
  C   C1239     1.0  0.43985  0.98281  0.33415  1.0000
  Fe  Fe175     1.0  0.36498  0.89911  0.37178  1.0000
  S   S344      1.0  0.36352  0.91443  0.33737  1.0000
  S   S345      1.0  0.34358  0.88313  0.40248  1.0000
  Fe  Fe176     1.0  0.40413  0.90755  0.35902  1.0000
  S   S346      1.0  0.40565  0.92301  0.32349  1.0000
  S   S347      1.0  0.42919  0.90648  0.36919  1.0000
  Fe  Fe177     1.0  0.38621  0.93444  0.34184  1.0000
  S   S348      1.0  0.38900  0.96346  0.33767  1.0000
  Fe  Fe178     1.0  0.38317  0.90155  0.32198  1.0000
  S   S349      1.0  0.38531  0.88904  0.29056  1.0000
  S   S350      1.0  0.38585  0.92007  0.37744  1.0000
  S   S351      1.0  0.38338  0.88514  0.35628  1.0000
  C   C1240     1.0  0.42412  0.97182  0.33343  1.0000
  H   H1498     1.0  0.30560  0.83596  0.37221  1.0000
  Fe  Fe179     1.0  0.46313  0.78988  0.20026  1.0000
  S   S352      1.0  0.44128  0.80145  0.21257  1.0000
  S   S353      1.0  0.47447  0.77132  0.22145  1.0000
  C   C1241     1.0  0.44257  0.68899  0.17129  1.0000
  C   C1242     1.0  0.43821  0.70462  0.17325  1.0000
  C   C1243     1.0  0.44985  0.71858  0.17792  1.0000
  C   C1244     1.0  0.46603  0.71705  0.18071  1.0000
  C   C1245     1.0  0.47046  0.70149  0.17850  1.0000
  C   C1246     1.0  0.45888  0.68759  0.17363  1.0000
  H   H1499     1.0  0.42568  0.70590  0.17132  1.0000
  H   H1500     1.0  0.44624  0.73045  0.17959  1.0000
  H   H1501     1.0  0.33745  0.85120  0.38631  1.0000
  S   S354      1.0  0.46749  0.77912  0.16831  1.0000
  C   C1247     1.0  0.43474  0.91573  0.44066  1.0000
  C   C1248     1.0  0.41838  0.91066  0.43626  1.0000
  C   C1249     1.0  0.41650  0.90784  0.41435  1.0000
  C   C1250     1.0  0.43099  0.90985  0.39686  1.0000
  C   C1251     1.0  0.44733  0.91459  0.40144  1.0000
  C   C1252     1.0  0.44923  0.91763  0.42322  1.0000
  H   H1502     1.0  0.40712  0.90882  0.44984  1.0000
  H   H1503     1.0  0.40383  0.90380  0.41113  1.0000
  H   H1504     1.0  0.45853  0.91588  0.38808  1.0000
  H   H1505     1.0  0.46188  0.92123  0.42659  1.0000
  C   C1253     1.0  0.38754  0.79135  0.19709  1.0000
  C   C1254     1.0  0.39755  0.77964  0.19353  1.0000
  C   C1255     1.0  0.41414  0.78261  0.19788  1.0000
  C   C1256     1.0  0.42070  0.79719  0.20625  1.0000
  C   C1257     1.0  0.41069  0.80888  0.20979  1.0000
  C   C1258     1.0  0.39426  0.80608  0.20504  1.0000
  H   H1506     1.0  0.39242  0.76819  0.18744  1.0000
  H   H1507     1.0  0.42168  0.77346  0.19523  1.0000
  H   H1508     1.0  0.41563  0.82012  0.21640  1.0000
  H   H1509     1.0  0.38666  0.81511  0.20801  1.0000
  C   C1259     1.0  0.34737  0.86020  0.25305  1.0000
  C   C1260     1.0  0.34185  0.87000  0.26860  1.0000
  C   C1261     1.0  0.35322  0.87889  0.28027  1.0000
  C   C1262     1.0  0.37023  0.87788  0.27674  1.0000
  C   C1263     1.0  0.37578  0.86822  0.26100  1.0000
  C   C1264     1.0  0.36447  0.85947  0.24917  1.0000
  H   H1510     1.0  0.32868  0.87070  0.27168  1.0000
  H   H1511     1.0  0.34890  0.88671  0.29168  1.0000
  H   H1512     1.0  0.38894  0.86744  0.25802  1.0000
  H   H1513     1.0  0.36890  0.85189  0.23742  1.0000
  C   C1265     1.0  0.27855  0.78515  0.16962  1.0000
  C   C1266     1.0  0.26248  0.78450  0.16416  1.0000
  C   C1267     1.0  0.25189  0.76878  0.16194  1.0000
  C   C1268     1.0  0.25726  0.75346  0.16511  1.0000
  C   C1269     1.0  0.27339  0.75414  0.17035  1.0000
  C   C1270     1.0  0.28396  0.76985  0.17266  1.0000
  H   H1514     1.0  0.25818  0.79625  0.16161  1.0000
  H   H1515     1.0  0.27775  0.74241  0.17276  1.0000
  H   H1516     1.0  0.29629  0.77009  0.17681  1.0000
  C   C1271     1.0  0.39984  0.95063  0.42936  1.0000
  C   C1272     1.0  0.40910  0.97732  0.33729  1.0000
  H   H1517     1.0  0.39443  0.97429  0.39837  1.0000
  C   C1273     1.0  0.39435  0.98084  0.00438  1.0000
  C   C1274     1.0  0.44277  0.98474  0.40708  1.0000
  H   H1518     1.0  0.38722  0.96751  0.01248  1.0000
  C   C1275     1.0  0.34944  0.88904  0.06857  1.0000
  C   C1276     1.0  0.33925  0.88316  0.09127  1.0000
  C   C1277     1.0  0.34531  0.87459  0.10924  1.0000
  C   C1278     1.0  0.36173  0.87204  0.10465  1.0000
  C   C1279     1.0  0.37210  0.87829  0.08210  1.0000
  C   C1280     1.0  0.36593  0.88664  0.06404  1.0000
  H   H1519     1.0  0.32653  0.88515  0.09490  1.0000
  H   H1520     1.0  0.33735  0.87009  0.12664  1.0000
  H   H1521     1.0  0.38487  0.87645  0.07846  1.0000
  H   H1522     1.0  0.37388  0.89111  0.04662  1.0000
  C   C1281     1.0  0.35010  0.83274  0.30466  1.0000
  C   C1282     1.0  0.28647  0.87957  0.40773  1.0000
  C   C1283     1.0  0.29189  0.87001  0.42537  1.0000
  C   C1284     1.0  0.30947  0.87143  0.42363  1.0000
  C   C1285     1.0  0.32176  0.88252  0.40438  1.0000
  C   C1286     1.0  0.31636  0.89223  0.38685  1.0000
  C   C1287     1.0  0.29876  0.89064  0.38846  1.0000
  H   H1523     1.0  0.28249  0.86134  0.44017  1.0000
  H   H1524     1.0  0.31356  0.86379  0.43716  1.0000
  H   H1525     1.0  0.32570  0.90092  0.37203  1.0000
  H   H1526     1.0  0.29462  0.89810  0.37478  1.0000
  H   H1527     1.0  0.44181  0.99197  0.39064  1.0000
  C   C1288     1.0  0.29302  0.84080  0.04212  1.0000
  H   H1528     1.0  0.32208  0.85863  0.07012  1.0000
  C   C1289     1.0  0.39246  0.90857  0.22925  1.0000
  H   H1529     1.0  0.46385  0.97359  0.36998  1.0000
  H   H1530     1.0  0.28898  0.80592  0.08496  1.0000
  H   H1531     1.0  0.38361  0.82989  0.13505  1.0000
  C   C1290     1.0  0.30949  0.83672  0.11846  1.0000
  H   H1532     1.0  0.31530  0.83424  0.13369  1.0000
  H   H1533     1.0  0.42361  0.95906  0.32999  1.0000
  H   H1534     1.0  0.31008  0.86633  0.03704  1.0000
  C   C1291     1.0  0.31971  0.82695  0.30691  1.0000
  H   H1535     1.0  0.33730  0.81958  0.28197  1.0000
  C   C1292     1.0  0.42937  0.97011  0.42043  1.0000
  H   H1536     1.0  0.31198  0.85632  0.38014  1.0000
  H   H1537     1.0  0.31523  0.80522  0.12740  1.0000
  Fe  Fe180     1.0  0.24480  0.86356  0.44217  1.0000
  C   C1293     1.0  0.30565  0.85307  0.04749  1.0000
  C   C1294     1.0  0.38933  0.88282  0.17376  1.0000
  H   H1538     1.0  0.46089  0.85372  0.11496  1.0000
  H   H1539     1.0  0.31339  0.85100  0.11127  1.0000
  C   C1295     1.0  0.39739  0.98677  0.98034  1.0000
  C   C1296     1.0  0.46544  0.87678  0.36705  1.0000
  H   H1540     1.0  0.35373  0.84907  0.36435  1.0000
  H   H1541     1.0  0.33860  0.87819  0.35719  1.0000
  C   C1297     1.0  0.33958  0.84546  0.37084  1.0000
  H   H1542     1.0  0.39618  0.95543  0.44527  1.0000
  H   H1543     1.0  0.42314  0.94958  0.45231  1.0000
  H   H1544     1.0  0.24607  0.98961  0.43860  1.0000
  C   C1298     1.0  0.47205  0.66809  0.27232  1.0000
  H   H1545     1.0  0.24798  0.82489  0.97304  1.0000
  C   C1299     1.0  0.34836  0.84128  0.32286  1.0000
  H   H1546     1.0  0.48523  0.84603  0.32663  1.0000
  C   C1300     1.0  0.24360  0.68911  0.14362  1.0000
  S   S355      1.0  0.24440  0.73328  0.16243  1.0000
  C   C1301     1.0  0.41003  0.99404  0.34140  1.0000
  H   H1547     1.0  0.39081  0.80186  0.14502  1.0000
  C   C1302     1.0  0.31262  0.84992  0.36519  1.0000
  C   C1303     1.0  0.46230  0.66951  0.25560  1.0000
  H   H1548     1.0  0.41521  0.98836  0.38855  1.0000
  S   S356      1.0  0.42705  0.67148  0.16662  1.0000
  H   H1549     1.0  0.46154  0.88454  0.39957  1.0000
  C   C1304     1.0  0.30251  0.83434  0.97560  1.0000
  C   C1305     1.0  0.45801  0.99006  0.41420  1.0000
  H   H1550     1.0  0.31242  0.79989  0.10042  1.0000
  H   H1551     1.0  0.38742  0.87623  0.15929  1.0000
  H   H1552     1.0  0.23965  0.76857  0.15755  1.0000
  C   C1306     1.0  0.36525  0.90903  0.20750  1.0000
  H   H1553     1.0  0.44777  0.68750  0.22474  1.0000
  C   C1307     1.0  0.39143  0.90065  0.21049  1.0000
  C   C1308     1.0  0.35908  0.87883  0.18519  1.0000
  H   H1554     1.0  0.40266  0.90792  0.23837  1.0000
  C   C1309     1.0  0.46055  0.98088  0.43459  1.0000
  H   H1555     1.0  0.31822  0.85646  0.98405  1.0000
  C   C1310     1.0  0.44768  0.96650  0.44813  1.0000
  H   H1556     1.0  0.24662  0.76466  0.21076  1.0000
  C   C1311     1.0  0.37676  0.90512  0.15842  1.0000
  H   H1557     1.0  0.35643  0.92264  0.23305  1.0000
  Fe  Fe181     1.0  0.37665  0.94415  0.97427  1.0000
  H   H1558     1.0  0.47259  0.98471  0.43976  1.0000
  C   C1312     1.0  0.33208  0.84256  0.33406  1.0000
  H   H1559     1.0  0.46537  0.83702  0.16289  1.0000
  H   H1560     1.0  0.38810  0.94689  0.42256  1.0000
  C   C1313     1.0  0.33875  0.87072  0.34336  1.0000
  C   C1314     1.0  0.28727  0.82390  0.05583  1.0000
  H   H1561     1.0  0.30498  0.83608  0.33218  1.0000
  N   N84       1.0  0.33063  0.85191  0.35308  1.0000
  S   S357      1.0  0.48094  0.73379  0.18781  1.0000
  C   C1315     1.0  0.43494  0.67864  0.23366  1.0000
  H   H1562     1.0  0.35781  0.86889  0.20118  1.0000
  N   N85       1.0  0.37587  0.89197  0.17951  1.0000
  H   H1563     1.0  0.23766  0.69980  0.14705  1.0000
  S   S358      1.0  0.48447  0.94873  0.44405  1.0000
  H   H1564     1.0  0.24085  0.70828  0.10691  1.0000
  C   C1316     1.0  0.30908  0.80811  0.11259  1.0000
  H   H1565     1.0  0.44298  0.83088  0.17638  1.0000
  H   H1566     1.0  0.45135  0.97837  0.33129  1.0000
  C   C1317     1.0  0.37988  0.91644  0.23733  1.0000
  H   H1567     1.0  0.35749  0.87198  0.17091  1.0000
  C   C1318     1.0  0.40660  0.97874  0.40395  1.0000
  H   H1568     1.0  0.38044  0.92188  0.25251  1.0000
  H   H1569     1.0  0.45246  0.85163  0.15663  1.0000
  H   H1570     1.0  0.40234  0.89200  0.16809  1.0000
  H   H1571     1.0  0.33809  0.82538  0.07975  1.0000
  H   H1572     1.0  0.25553  0.69478  0.12975  1.0000
  H   H1573     1.0  0.36270  0.83225  0.29606  1.0000
  C   C1319     1.0  0.36633  0.91673  0.22644  1.0000
  C   C1320     1.0  0.48543  0.87766  0.39195  1.0000
  C   C1321     1.0  0.31777  0.83527  0.32536  1.0000
  H   H1574     1.0  0.33970  0.82819  0.10836  1.0000
  H   H1575     1.0  0.38903  0.87241  0.18883  1.0000
  C   C1322     1.0  0.33581  0.82559  0.29670  1.0000
  H   H1576     1.0  0.43156  0.92617  0.98106  1.0000
  H   H1577     1.0  0.35999  0.84739  0.32752  1.0000
  H   H1578     1.0  0.40588  0.85758  0.12766  1.0000
  H   H1579     1.0  0.48500  0.93783  0.36745  1.0000
  H   H1580     1.0  0.35239  0.87330  0.33414  1.0000
  C   C1323     1.0  0.33369  0.83184  0.09368  1.0000
  C   C1324     1.0  0.46833  0.96195  0.37614  1.0000
  H   H1581     1.0  0.46259  0.67585  0.17160  1.0000
  H   H1582     1.0  0.42296  0.94442  0.39718  1.0000
  C   C1325     1.0  0.30720  0.83134  0.08076  1.0000
  H   H1583     1.0  0.38902  0.91554  0.15386  1.0000
  H   H1584     1.0  0.37589  0.89911  0.14318  1.0000
  H   H1585     1.0  0.33195  0.87628  0.33072  1.0000
  H   H1586     1.0  0.40758  0.95249  0.38359  1.0000
  N   N86       1.0  0.41380  0.96400  0.41177  1.0000
  H   H1587     1.0  0.40351  0.93830  0.43429  1.0000
  H   H1588     1.0  0.27727  0.81443  0.05179  1.0000
  H   H1589     1.0  0.33503  0.83105  0.37694  1.0000
  H   H1590     1.0  0.24265  0.75543  0.24121  1.0000
  H   H1591     1.0  0.30877  0.82188  0.30004  1.0000
  H   H1592     1.0  0.36607  0.91144  0.16067  1.0000
  H   H1593     1.0  0.42912  0.96548  0.37820  1.0000
  H   H1594     1.0  0.34799  0.88449  0.18825  1.0000
  H   H1595     1.0  0.24767  0.68434  0.15973  1.0000
  H   H1596     1.0  0.29503  0.80372  0.12037  1.0000
  C   C1326     1.0  0.31257  0.84848  0.06654  1.0000
  C   C1327     1.0  0.29417  0.81915  0.07493  1.0000
  S   S359      1.0  0.35491  0.89462  0.98190  1.0000
  C   C1328     1.0  0.37764  0.90052  0.19913  1.0000
  H   H1597     1.0  0.39778  0.98768  0.03666  1.0000
  H   H1598     1.0  0.29532  0.83282  0.12519  1.0000
  H   H1599     1.0  0.40135  0.89433  0.20574  1.0000
  N   N87       1.0  0.31467  0.82694  0.10099  1.0000
  H   H1600     1.0  0.42983  0.68381  0.24862  1.0000
  C   C1329     1.0  0.40036  0.99229  0.01805  1.0000
  H   H1601     1.0  0.45346  0.87892  0.36349  1.0000
  C   C1330     1.0  0.46999  0.88006  0.38738  1.0000
  H   H1602     1.0  0.46502  0.81267  0.14583  1.0000
  H   H1603     1.0  0.35442  0.90949  0.19977  1.0000
  H   H1604     1.0  0.28757  0.84447  0.02746  1.0000
  N   N88       1.0  0.44849  0.82956  0.14056  1.0000
  C   C1331     1.0  0.45145  0.81196  0.14511  1.0000
  C   C1332     1.0  0.46077  0.83975  0.11862  1.0000
  C   C1333     1.0  0.45252  0.83771  0.15984  1.0000
  C   C1334     1.0  0.43069  0.82935  0.13878  1.0000
  C   C1335     1.0  0.41748  0.81367  0.14285  1.0000
  C   C1336     1.0  0.42602  0.84522  0.13335  1.0000
  C   C1337     1.0  0.40077  0.81399  0.14136  1.0000
  C   C1338     1.0  0.40925  0.84537  0.13186  1.0000
  C   C1339     1.0  0.39665  0.82977  0.13591  1.0000
  H   H1605     1.0  0.44873  0.80500  0.13126  1.0000
  H   H1606     1.0  0.30873  0.82521  0.98374  1.0000
  H   H1607     1.0  0.44356  0.80384  0.16217  1.0000
  H   H1608     1.0  0.46085  0.95094  0.37019  1.0000
  H   H1609     1.0  0.40398  0.98575  0.41797  1.0000
  H   H1610     1.0  0.45763  0.83440  0.10361  1.0000
  H   H1611     1.0  0.48298  0.70022  0.18045  1.0000
  H   H1612     1.0  0.44974  0.95918  0.46388  1.0000
  S   S360      1.0  0.43685  0.91980  0.46794  1.0000
  H   H1613     1.0  0.41958  0.80094  0.14769  1.0000
  H   H1614     1.0  0.43529  0.85763  0.13045  1.0000
  H   H1615     1.0  0.25483  0.98804  0.46408  1.0000
  H   H1616     1.0  0.46477  0.95869  0.39548  1.0000
  C   C1340     1.0  0.47626  0.87096  0.35123  1.0000
  H   H1617     1.0  0.42677  0.67999  0.22086  1.0000
  C   C1341     1.0  0.24283  0.98784  0.45780  1.0000
  H   H1618     1.0  0.24357  0.77795  0.23094  1.0000
  H   H1619     1.0  0.46829  0.67888  0.23936  1.0000
  H   H1620     1.0  0.47200  0.86884  0.33575  1.0000
  H   H1621     1.0  0.47420  0.83936  0.11909  1.0000
  C   C1342     1.0  0.43895  0.93950  0.98139  1.0000
  Fe  Fe182     1.0  0.48061  0.76198  0.18841  1.0000
  C   C1343     1.0  0.23906  0.76464  0.22808  1.0000
  H   H1622     1.0  0.45144  0.93817  0.98497  1.0000
  H   H1623     1.0  0.30771  0.89377  0.45881  1.0000
  H   H1624     1.0  0.43188  0.94337  0.99637  1.0000
  C   C1344     1.0  0.30786  0.85190  0.97584  1.0000
  C   C1345     1.0  0.23700  0.95674  0.46590  1.0000
  H   H1625     1.0  0.24066  0.95643  0.44727  1.0000
  H   H1626     1.0  0.25104  0.66631  0.11778  1.0000
  H   H1627     1.0  0.48520  0.95815  0.33468  1.0000
  H   H1628     1.0  0.48506  0.67621  0.26879  1.0000
  H   H1629     1.0  0.28144  0.75268  0.58607  1.0000
  S   S361      1.0  0.27626  0.87510  0.82646  1.0000
  Fe  Fe183     1.0  0.27785  0.86408  0.86277  1.0000
  S   S362      1.0  0.30245  0.86841  0.87593  1.0000
  Fe  Fe184     1.0  0.25436  0.76463  0.66281  1.0000
  C   C1346     1.0  0.40477  0.66706  0.71324  1.0000
  C   C1347     1.0  0.24418  0.91466  0.49983  1.0000
  S   S363      1.0  0.25953  0.95687  0.52677  1.0000
  C   C1348     1.0  0.26889  0.82991  0.77309  1.0000
  S   S364      1.0  0.27671  0.97410  0.79743  1.0000
  C   C1349     1.0  0.44981  0.96992  0.96104  1.0000
  Fe  Fe185     1.0  0.45803  0.71470  0.68193  1.0000
  S   S365      1.0  0.45436  0.69289  0.71244  1.0000
  S   S366      1.0  0.43713  0.72884  0.68300  1.0000
  Fe  Fe186     1.0  0.46061  0.67699  0.68658  1.0000
  H   H1630     1.0  0.34033  0.80494  0.77659  1.0000
  S   S367      1.0  0.46263  0.69849  0.65588  1.0000
  Fe  Fe187     1.0  0.43209  0.85192  0.71148  1.0000
  S   S368      1.0  0.45311  0.85481  0.68054  1.0000
  S   S369      1.0  0.43348  0.86101  0.74515  1.0000
  Fe  Fe188     1.0  0.40385  0.83610  0.68743  1.0000
  S   S370      1.0  0.42292  0.83773  0.65448  1.0000
  S   S371      1.0  0.37464  0.83046  0.69653  1.0000
  Fe  Fe189     1.0  0.43861  0.82801  0.67872  1.0000
  S   S372      1.0  0.45652  0.81091  0.67159  1.0000
  Fe  Fe190     1.0  0.43614  0.86418  0.65862  1.0000
  S   S373      1.0  0.44433  0.88975  0.63162  1.0000
  S   S374      1.0  0.41864  0.82439  0.71145  1.0000
  S   S375      1.0  0.41605  0.86328  0.68975  1.0000
  S   S376      1.0  0.46348  0.93498  0.86845  1.0000
  H   H1631     1.0  0.26807  0.81118  0.54253  1.0000
  S   S377      1.0  0.32748  0.91807  0.94152  1.0000
  C   C1350     1.0  0.24868  0.89197  0.74711  1.0000
  S   S378      1.0  0.48452  0.89607  0.84991  1.0000
  S   S379      1.0  0.37681  0.93105  0.94428  1.0000
  H   H1632     1.0  0.34091  0.89117  0.92365  1.0000
  S   S380      1.0  0.47214  0.93836  0.50043  1.0000
  C   C1351     1.0  0.46005  0.79987  0.73558  1.0000
  C   C1352     1.0  0.33437  0.96800  0.91088  1.0000
  Fe  Fe191     1.0  0.25614  0.80263  0.64264  1.0000
  S   S381      1.0  0.27188  0.78476  0.63207  1.0000
  H   H1633     1.0  0.46467  0.74412  0.77883  1.0000
  Fe  Fe192     1.0  0.25591  0.79126  0.69388  1.0000
  S   S382      1.0  0.27119  0.77204  0.68709  1.0000
  Fe  Fe193     1.0  0.28755  0.79360  0.65719  1.0000
  S   S383      1.0  0.31655  0.79731  0.64770  1.0000
  C   C1353     1.0  0.29893  0.89062  0.47567  1.0000
  S   S384      1.0  0.27318  0.81330  0.66531  1.0000
  C   C1354     1.0  0.25326  0.81742  0.78276  1.0000
  C   C1355     1.0  0.44640  0.92318  0.89201  1.0000
  C   C1356     1.0  0.43215  0.92984  0.89691  1.0000
  C   C1357     1.0  0.41872  0.92146  0.91637  1.0000
  C   C1358     1.0  0.41959  0.90651  0.93136  1.0000
  C   C1359     1.0  0.43374  0.89968  0.92627  1.0000
  C   C1360     1.0  0.44711  0.90796  0.90658  1.0000
  H   H1634     1.0  0.43150  0.94156  0.88559  1.0000
  H   H1635     1.0  0.40783  0.92670  0.91984  1.0000
  H   H1636     1.0  0.43447  0.88807  0.93774  1.0000
  H   H1637     1.0  0.45807  0.90274  0.90291  1.0000
  C   C1361     1.0  0.35932  0.82280  0.68078  1.0000
  C   C1362     1.0  0.36269  0.81319  0.66416  1.0000
  C   C1363     1.0  0.34950  0.80569  0.65399  1.0000
  C   C1364     1.0  0.33289  0.80786  0.66012  1.0000
  C   C1365     1.0  0.32974  0.81809  0.67602  1.0000
  C   C1366     1.0  0.34281  0.82529  0.68655  1.0000
  H   H1638     1.0  0.37528  0.81107  0.65967  1.0000
  H   H1639     1.0  0.35211  0.79793  0.64154  1.0000
  H   H1640     1.0  0.31725  0.82049  0.68015  1.0000
  H   H1641     1.0  0.34011  0.83277  0.69931  1.0000
  C   C1367     1.0  0.45169  0.87079  0.75497  1.0000
  C   C1368     1.0  0.46846  0.87368  0.74221  1.0000
  C   C1369     1.0  0.25267  0.89542  0.72244  1.0000
  C   C1370     1.0  0.46316  0.88430  0.78435  1.0000
  C   C1371     1.0  0.44915  0.87607  0.77611  1.0000
  H   H1642     1.0  0.47063  0.86953  0.72608  1.0000
  H   H1643     1.0  0.46097  0.88839  0.80055  1.0000
  H   H1644     1.0  0.43624  0.87386  0.78616  1.0000
  C   C1372     1.0  0.45747  0.89253  0.60384  1.0000
  C   C1373     1.0  0.46006  0.90800  0.58718  1.0000
  C   C1374     1.0  0.47009  0.91053  0.56467  1.0000
  C   C1375     1.0  0.36272  0.96637  0.91360  1.0000
  C   C1376     1.0  0.44240  0.98424  0.95820  1.0000
  C   C1377     1.0  0.46516  0.87966  0.59794  1.0000
  S   S385      1.0  0.23768  0.78197  0.67202  1.0000
  H   H1645     1.0  0.24887  0.95782  0.47269  1.0000
  C   C1378     1.0  0.24587  0.80656  0.76932  1.0000
  H   H1646     1.0  0.46328  0.86771  0.61065  1.0000
  H   H1647     1.0  0.23740  0.78259  0.61345  1.0000
  C   C1379     1.0  0.44257  0.75158  0.68069  1.0000
  C   C1380     1.0  0.42950  0.76009  0.68415  1.0000
  C   C1381     1.0  0.43352  0.77827  0.68185  1.0000
  C   C1382     1.0  0.45066  0.78801  0.67598  1.0000
  C   C1383     1.0  0.46370  0.77943  0.67285  1.0000
  C   C1384     1.0  0.45969  0.76130  0.67515  1.0000
  H   H1648     1.0  0.41622  0.75265  0.68842  1.0000
  H   H1649     1.0  0.42339  0.78478  0.68425  1.0000
  H   H1650     1.0  0.37346  0.96922  0.92248  1.0000
  H   H1651     1.0  0.46984  0.75494  0.67213  1.0000
  H   H1652     1.0  0.26680  0.80932  0.58449  1.0000
  S   S386      1.0  0.27956  0.84255  0.78996  1.0000
  C   C1385     1.0  0.45828  0.73580  0.73833  1.0000
  H   H1653     1.0  0.41445  0.67693  0.71817  1.0000
  C   C1386     1.0  0.30892  0.88211  0.89453  1.0000
  C   C1387     1.0  0.29991  0.89393  0.90091  1.0000
  C   C1388     1.0  0.30579  0.90484  0.91529  1.0000
  C   C1389     1.0  0.32063  0.90398  0.92355  1.0000
  C   C1390     1.0  0.32950  0.89201  0.91738  1.0000
  C   C1391     1.0  0.32369  0.88117  0.90290  1.0000
  H   H1654     1.0  0.28858  0.89486  0.89451  1.0000
  H   H1655     1.0  0.29882  0.91405  0.91998  1.0000
  H   H1656     1.0  0.33074  0.87205  0.89811  1.0000
  C   C1392     1.0  0.27670  0.83193  0.74963  1.0000
  C   C1393     1.0  0.26910  0.82132  0.73605  1.0000
  H   H1657     1.0  0.28875  0.84165  0.74195  1.0000
  H   H1658     1.0  0.27518  0.82301  0.71800  1.0000
  N   N89       1.0  0.26762  0.83380  0.94144  1.0000
  H   H1659     1.0  0.48087  0.93330  0.65434  1.0000
  C   C1394     1.0  0.26538  0.95181  0.80451  1.0000
  C   C1395     1.0  0.27258  0.93965  0.81618  1.0000
  C   C1396     1.0  0.26388  0.92184  0.82296  1.0000
  H   H1660     1.0  0.47698  0.78693  0.66823  1.0000
  H   H1661     1.0  0.28494  0.94407  0.82017  1.0000
  H   H1662     1.0  0.26953  0.91268  0.83215  1.0000
  C   C1397     1.0  0.46639  0.97322  0.96589  1.0000
  H   H1663     1.0  0.26782  0.93331  0.49888  1.0000
  H   H1664     1.0  0.45735  0.81252  0.73340  1.0000
  H   H1665     1.0  0.26503  0.82195  0.91236  1.0000
  C   C1398     1.0  0.46743  0.76693  0.73991  1.0000
  C   C1399     1.0  0.28382  0.89986  0.50768  1.0000
  H   H1666     1.0  0.44265  0.89670  0.67660  1.0000
  N   N90       1.0  0.26232  0.87754  0.54153  1.0000
  C   C1400     1.0  0.24942  0.94596  0.79939  1.0000
  H   H1667     1.0  0.24268  0.81536  0.94952  1.0000
  H   H1668     1.0  0.27294  0.85549  0.51544  1.0000
  H   H1669     1.0  0.45543  0.74268  0.61714  1.0000
  C   C1401     1.0  0.26095  0.89253  0.55221  1.0000
  H   H1670     1.0  0.30443  0.87742  0.96518  1.0000
  H   H1671     1.0  0.25312  0.74971  0.60941  1.0000
  C   C1402     1.0  0.44836  0.78567  0.73226  1.0000
  H   H1672     1.0  0.42519  0.67206  0.67153  1.0000
  Fe  Fe194     1.0  0.48456  0.92329  0.85427  1.0000
  H   H1673     1.0  0.27347  0.89914  0.55537  1.0000
  H   H1674     1.0  0.47592  0.88864  0.68735  1.0000
  C   C1403     1.0  0.35578  0.99382  0.91475  1.0000
  H   H1675     1.0  0.23608  0.92314  0.86506  1.0000
  N   N91       1.0  0.34894  0.97460  0.92129  1.0000
  N   N92       1.0  0.43271  0.87839  0.52884  1.0000
  C   C1404     1.0  0.43854  0.89747  0.52656  1.0000
  C   C1405     1.0  0.44789  0.87122  0.52705  1.0000
  C   C1406     1.0  0.42511  0.87562  0.50872  1.0000
  C   C1407     1.0  0.42072  0.87018  0.55166  1.0000
  C   C1408     1.0  0.42612  0.87203  0.57242  1.0000
  C   C1409     1.0  0.40362  0.86018  0.55411  1.0000
  C   C1410     1.0  0.41518  0.86446  0.59424  1.0000
  C   C1411     1.0  0.39276  0.85258  0.57607  1.0000
  C   C1412     1.0  0.39853  0.85471  0.59608  1.0000
  H   H1676     1.0  0.44599  0.90091  0.53952  1.0000
  H   H1677     1.0  0.44714  0.90409  0.50930  1.0000
  H   H1678     1.0  0.42750  0.90335  0.52855  1.0000
  H   H1679     1.0  0.44408  0.85684  0.52915  1.0000
  H   H1680     1.0  0.45519  0.87399  0.54044  1.0000
  H   H1681     1.0  0.45723  0.87704  0.51007  1.0000
  H   H1682     1.0  0.43448  0.88212  0.49189  1.0000
  H   H1683     1.0  0.42101  0.86155  0.50866  1.0000
  H   H1684     1.0  0.41400  0.88135  0.50845  1.0000
  H   H1685     1.0  0.43891  0.87941  0.57193  1.0000
  H   H1686     1.0  0.39830  0.85805  0.53938  1.0000
  H   H1687     1.0  0.41967  0.86622  0.60981  1.0000
  H   H1688     1.0  0.37975  0.84499  0.57765  1.0000
  H   H1689     1.0  0.39007  0.84882  0.61307  1.0000
  H   H1690     1.0  0.46137  0.92141  0.64924  1.0000
  H   H1691     1.0  0.25033  0.90758  0.48876  1.0000
  H   H1692     1.0  0.26985  0.85788  0.91748  1.0000
  H   H1693     1.0  0.41503  0.95422  0.96904  1.0000
  H   H1694     1.0  0.23995  0.84702  0.76058  1.0000
  H   H1695     1.0  0.26918  0.78099  0.52676  1.0000
  C   C1413     1.0  0.24530  0.86992  0.53731  1.0000
  C   C1414     1.0  0.39255  0.68806  0.69307  1.0000
  H   H1696     1.0  0.44251  0.75918  0.73069  1.0000
  H   H1697     1.0  0.47755  0.73110  0.76710  1.0000
  H   H1698     1.0  0.24527  0.85849  0.52945  1.0000
  H   H1699     1.0  0.45568  0.73863  0.72070  1.0000
  C   C1415     1.0  0.27928  0.86914  0.50815  1.0000
  H   H1700     1.0  0.42605  0.69234  0.67966  1.0000
  H   H1701     1.0  0.24141  0.87951  0.52505  1.0000
  H   H1702     1.0  0.23638  0.70242  0.65044  1.0000
  C   C1416     1.0  0.27479  0.82636  0.92228  1.0000
  H   H1703     1.0  0.35784  0.95190  0.91740  1.0000
  C   C1417     1.0  0.41780  0.68186  0.67375  1.0000
  C   C1418     1.0  0.47899  0.78165  0.74340  1.0000
  H   H1704     1.0  0.48124  0.87226  0.57102  1.0000
  H   H1705     1.0  0.42986  0.98309  0.95446  1.0000
  C   C1419     1.0  0.28940  0.82855  0.96457  1.0000
  C   C1420     1.0  0.47586  0.89952  0.67316  1.0000
  N   N93       1.0  0.24376  0.87415  0.76199  1.0000
  S   S387      1.0  0.40384  0.89680  0.95730  1.0000
  C   C1421     1.0  0.24636  0.93871  0.51988  1.0000
  S   S388      1.0  0.24849  0.86744  0.47712  1.0000
  C   C1422     1.0  0.25722  0.81383  0.57670  1.0000
  C   C1423     1.0  0.24361  0.86022  0.74880  1.0000
  S   S389      1.0  0.39006  0.97305  0.96230  1.0000
  H   H1706     1.0  0.47628  0.73979  0.58660  1.0000
  Fe  Fe195     1.0  0.24886  0.87336  0.84191  1.0000
  H   H1707     1.0  0.38914  0.69320  0.67658  1.0000
  H   H1708     1.0  0.25532  0.93454  0.75210  1.0000
  H   H1709     1.0  0.44614  0.73338  0.75152  1.0000
  H   H1710     1.0  0.33827  0.97107  0.89160  1.0000
  H   H1711     1.0  0.28160  0.91076  0.51466  1.0000
  C   C1424     1.0  0.28123  0.84024  0.95339  1.0000
  H   H1712     1.0  0.36236  0.80132  0.74531  1.0000
  S   S390      1.0  0.24502  0.79291  0.73082  1.0000
  S   S391      1.0  0.24373  0.81914  0.61965  1.0000
  H   H1713     1.0  0.24414  0.97867  0.82201  1.0000
  C   C1425     1.0  0.47991  0.88744  0.77142  1.0000
  H   H1714     1.0  0.47198  0.92248  0.55199  1.0000
  N   N94       1.0  0.32937  0.85887  0.81249  1.0000
  C   C1426     1.0  0.31597  0.84327  0.82686  1.0000
  C   C1427     1.0  0.34070  0.86530  0.82756  1.0000
  C   C1428     1.0  0.32098  0.87270  0.80512  1.0000
  C   C1429     1.0  0.33856  0.85438  0.79179  1.0000
  C   C1430     1.0  0.35653  0.85603  0.78696  1.0000
  C   C1431     1.0  0.32947  0.84812  0.77566  1.0000
  C   C1432     1.0  0.36475  0.85176  0.76713  1.0000
  C   C1433     1.0  0.33783  0.84391  0.75591  1.0000
  C   C1434     1.0  0.35543  0.84577  0.75163  1.0000
  H   H1715     1.0  0.30578  0.83871  0.81771  1.0000
  H   H1716     1.0  0.32159  0.83225  0.83188  1.0000
  H   H1717     1.0  0.30932  0.84599  0.84311  1.0000
  H   H1718     1.0  0.34694  0.85529  0.83458  1.0000
  H   H1719     1.0  0.33339  0.86860  0.84291  1.0000
  H   H1720     1.0  0.35075  0.87744  0.81810  1.0000
  H   H1721     1.0  0.31078  0.86827  0.79593  1.0000
  H   H1722     1.0  0.31465  0.87698  0.82028  1.0000
  H   H1723     1.0  0.33047  0.88437  0.79326  1.0000
  H   H1724     1.0  0.36460  0.86066  0.79809  1.0000
  H   H1725     1.0  0.31581  0.84655  0.77814  1.0000
  H   H1726     1.0  0.37850  0.85320  0.76360  1.0000
  H   H1727     1.0  0.33066  0.83928  0.74371  1.0000
  H   H1728     1.0  0.36191  0.84262  0.73620  1.0000
  N   N95       1.0  0.46633  0.91134  0.68236  1.0000
  H   H1729     1.0  0.27964  0.86935  0.56141  1.0000
  H   H1730     1.0  0.43214  0.75501  0.62997  1.0000
  H   H1731     1.0  0.47962  0.73317  0.61555  1.0000
  N   N96       1.0  0.40109  0.67394  0.69062  1.0000
  H   H1732     1.0  0.24682  0.90500  0.77592  1.0000
  H   H1733     1.0  0.25635  0.90227  0.54123  1.0000
  H   H1734     1.0  0.30155  0.91734  0.47736  1.0000
  C   C1435     1.0  0.47552  0.74441  0.76461  1.0000
  C   C1436     1.0  0.34283  0.96866  0.94688  1.0000
  C   C1437     1.0  0.45118  0.94699  0.94020  1.0000
  H   H1735     1.0  0.46685  0.80559  0.61650  1.0000
  C   C1438     1.0  0.44802  0.90144  0.69073  1.0000
  C   C1439     1.0  0.48247  0.88201  0.75038  1.0000
  C   C1440     1.0  0.25408  0.92924  0.50564  1.0000
  H   H1736     1.0  0.47002  0.89368  0.66003  1.0000
  H   H1737     1.0  0.46428  0.94698  0.94247  1.0000
  Fe  Fe196     1.0  0.48265  0.70245  0.71027  1.0000
  C   C1441     1.0  0.45862  0.75656  0.61584  1.0000
  C   C1442     1.0  0.26651  0.86447  0.55873  1.0000
  C   C1443     1.0  0.25339  0.82000  0.95795  1.0000
  C   C1444     1.0  0.44500  0.76349  0.62325  1.0000
  C   C1445     1.0  0.26551  0.77413  0.54486  1.0000
  Fe  Fe197     1.0  0.34914  0.91746  0.96050  1.0000
  N   N97       1.0  0.44095  0.95222  0.95936  1.0000
  C   C1446     1.0  0.25789  0.81486  0.55293  1.0000
  H   H1738     1.0  0.46201  0.72327  0.74009  1.0000
  S   S392      1.0  0.48004  0.90874  0.47085  1.0000
  H   H1739     1.0  0.42386  0.95938  0.93808  1.0000
  Fe  Fe198     1.0  0.24279  0.83731  0.87316  1.0000
  H   H1740     1.0  0.25149  0.88837  0.56923  1.0000
  C   C1447     1.0  0.26008  0.84758  0.93127  1.0000
  H   H1741     1.0  0.26040  0.91488  0.69026  1.0000
  C   C1448     1.0  0.46742  0.92605  0.66302  1.0000
  H   H1742     1.0  0.37474  0.99467  0.93602  1.0000
  C   C1449     1.0  0.25387  0.80824  0.74603  1.0000
  C   C1450     1.0  0.44796  0.78117  0.62303  1.0000
  H   H1743     1.0  0.46482  0.91918  0.75830  1.0000
  Fe  Fe199     1.0  0.25165  0.97928  0.54052  1.0000
  H   H1744     1.0  0.24714  0.81570  0.80081  1.0000
  H   H1745     1.0  0.26592  0.85195  0.55342  1.0000
  H   H1746     1.0  0.24382  0.95518  0.79026  1.0000
  N   N98       1.0  0.29565  0.78302  0.74178  1.0000
  C   C1451     1.0  0.28344  0.78499  0.76194  1.0000
  C   C1452     1.0  0.29416  0.79473  0.72077  1.0000
  C   C1453     1.0  0.29015  0.76472  0.73952  1.0000
  C   C1454     1.0  0.31374  0.78732  0.74379  1.0000
  C   C1455     1.0  0.32678  0.78530  0.72633  1.0000
  C   C1456     1.0  0.31908  0.79445  0.76213  1.0000
  C   C1457     1.0  0.34404  0.79000  0.72724  1.0000
  C   C1458     1.0  0.33643  0.79923  0.76274  1.0000
  C   C1459     1.0  0.34887  0.79709  0.74527  1.0000
  H   H1747     1.0  0.28589  0.79877  0.76366  1.0000
  H   H1748     1.0  0.26992  0.78124  0.76007  1.0000
  H   H1749     1.0  0.28396  0.77656  0.77842  1.0000
  H   H1750     1.0  0.29951  0.80864  0.72082  1.0000
  H   H1751     1.0  0.28059  0.79302  0.71948  1.0000
  H   H1752     1.0  0.30105  0.79224  0.70453  1.0000
  H   H1753     1.0  0.29199  0.75552  0.75437  1.0000
  H   H1754     1.0  0.27635  0.76097  0.73888  1.0000
  H   H1755     1.0  0.29730  0.76252  0.72327  1.0000
  H   H1756     1.0  0.32384  0.78068  0.71132  1.0000
  H   H1757     1.0  0.31017  0.79675  0.77599  1.0000
  C   C1460     1.0  0.42353  0.95084  0.95494  1.0000
  S   S393      1.0  0.26981  0.83657  0.85879  1.0000
  Fe  Fe200     1.0  0.26617  0.84751  0.82372  1.0000
  H   H1758     1.0  0.25303  0.85933  0.78792  1.0000
  H   H1759     1.0  0.24960  0.84218  0.92298  1.0000
  H   H1760     1.0  0.32943  0.95353  0.91642  1.0000
  C   C1461     1.0  0.27534  0.88229  0.51934  1.0000
  S   S394      1.0  0.25107  0.86453  0.87878  1.0000
  H   H1761     1.0  0.33329  0.97542  0.95364  1.0000
  H   H1762     1.0  0.27934  0.81486  0.92857  1.0000
  S   S395      1.0  0.23845  0.84611  0.83739  1.0000
  H   H1763     1.0  0.43989  0.90962  0.69730  1.0000
  H   H1764     1.0  0.45242  0.95577  0.92312  1.0000
  C   C1462     1.0  0.25602  0.87273  0.77708  1.0000
  C   C1463     1.0  0.24923  0.77278  0.55806  1.0000
  C   C1464     1.0  0.24778  0.91602  0.81831  1.0000
  C   C1465     1.0  0.47486  0.98970  0.96813  1.0000
  H   H1765     1.0  0.28585  0.81485  0.96456  1.0000
  C   C1466     1.0  0.47772  0.89763  0.55870  1.0000
  C   C1467     1.0  0.24446  0.81909  0.59013  1.0000
  S   S396      1.0  0.26693  0.99579  0.56060  1.0000
  C   C1468     1.0  0.25739  0.91250  0.70904  1.0000
  H   H1766     1.0  0.24109  0.95409  0.85046  1.0000
  H   H1767     1.0  0.45418  0.91802  0.59164  1.0000
  C   C1469     1.0  0.24060  0.92813  0.80641  1.0000
  C   C1470     1.0  0.25832  0.92655  0.71968  1.0000
  C   C1471     1.0  0.24565  0.82079  0.54249  1.0000
  H   H1768     1.0  0.46076  0.93547  0.66930  1.0000
  C   C1472     1.0  0.30007  0.86371  0.96519  1.0000
  C   C1473     1.0  0.29094  0.87330  0.48672  1.0000
  H   H1769     1.0  0.28583  0.83620  0.90981  1.0000
  H   H1770     1.0  0.45111  0.90819  0.72957  1.0000
  H   H1771     1.0  0.47976  0.97136  0.88349  1.0000
  H   H1772     1.0  0.40105  0.69924  0.69753  1.0000
  H   H1773     1.0  0.25429  0.85372  0.94471  1.0000
  H   H1774     1.0  0.43746  0.78640  0.62944  1.0000
  H   H1775     1.0  0.43668  0.78746  0.72734  1.0000
  H   H1776     1.0  0.25732  0.86105  0.57593  1.0000
  H   H1777     1.0  0.38059  0.68362  0.70693  1.0000
  S   S397      1.0  0.24646  0.73627  0.65986  1.0000
  C   C1474     1.0  0.47216  0.92170  0.74061  1.0000
  H   H1778     1.0  0.35345  0.97099  0.95608  1.0000
  C   C1475     1.0  0.47394  0.91803  0.70062  1.0000
  C   C1476     1.0  0.46443  0.91544  0.72376  1.0000
  C   C1477     1.0  0.47533  0.88227  0.57548  1.0000
  C   C1478     1.0  0.27243  0.75827  0.57819  1.0000
  C   C1479     1.0  0.47530  0.79786  0.74124  1.0000
  C   C1480     1.0  0.29540  0.90386  0.48615  1.0000
  C   C1481     1.0  0.24969  0.90660  0.75731  1.0000
  N   N99       1.0  0.47195  0.75010  0.74152  1.0000
  C   C1482     1.0  0.25450  0.92360  0.74378  1.0000
  H   H1779     1.0  0.26205  0.93976  0.70924  1.0000
  H   H1780     1.0  0.35383  0.78886  0.71331  1.0000
  C   C1483     1.0  0.45193  0.76942  0.73425  1.0000
  H   H1781     1.0  0.26942  0.87589  0.76666  1.0000
  H   H1782     1.0  0.32336  0.97340  0.91634  1.0000
  H   H1783     1.0  0.23894  0.98176  0.85129  1.0000
  H   H1784     1.0  0.33664  0.95437  0.95223  1.0000
  H   H1785     1.0  0.29347  0.86301  0.47837  1.0000
  H   H1786     1.0  0.25655  0.86169  0.73789  1.0000
  C   C1484     1.0  0.46457  0.79198  0.61564  1.0000
  C   C1485     1.0  0.27712  0.76699  0.55493  1.0000
  H   H1787     1.0  0.36820  0.97102  0.89460  1.0000
  H   H1788     1.0  0.41616  0.68802  0.65652  1.0000
  H   H1789     1.0  0.44510  0.93352  0.93900  1.0000
  H   H1790     1.0  0.44632  0.88971  0.70468  1.0000
  H   H1791     1.0  0.25574  0.88151  0.78935  1.0000
  Fe  Fe201     1.0  0.46437  0.92801  0.47053  1.0000
  S   S398      1.0  0.24699  0.82164  0.51262  1.0000
  C   C1486     1.0  0.47570  0.76733  0.60761  1.0000
  H   H1792     1.0  0.25745  0.80826  0.96470  1.0000
  Fe  Fe202     1.0  0.38271  0.90954  0.96778  1.0000
  C   C1487     1.0  0.28702  0.85809  0.95400  1.0000
  H   H1793     1.0  0.25229  0.88518  0.71307  1.0000
  H   H1794     1.0  0.41709  0.93733  0.95425  1.0000
  H   H1795     1.0  0.28192  0.86809  0.94563  1.0000
  H   H1796     1.0  0.28978  0.76822  0.54469  1.0000
  C   C1488     1.0  0.47827  0.78523  0.60807  1.0000
  H   H1797     1.0  0.24103  0.77885  0.54914  1.0000
  C   C1489     1.0  0.25617  0.75678  0.59151  1.0000
  S   S399      1.0  0.23610  0.89384  0.82774  1.0000
  C   C1490     1.0  0.24415  0.76426  0.58199  1.0000
  H   H1798     1.0  0.48441  0.80899  0.74364  1.0000
  H   H1799     1.0  0.47284  0.96299  0.96825  1.0000
  C   C1491     1.0  0.48540  0.74196  0.59808  1.0000
  H   H1800     1.0  0.39321  0.66297  0.72772  1.0000
  H   H1801     1.0  0.69990  0.16200  0.34297  1.0000
  S   S400      1.0  0.71977  0.13230  0.34057  1.0000
  Fe  Fe203     1.0  0.70885  0.13880  0.37393  1.0000
  S   S401      1.0  0.68028  0.13677  0.38220  1.0000
  C   C1492     1.0  0.51251  0.00791  0.39350  1.0000
  S   S402      1.0  0.69047  0.12048  0.99355  1.0000
  H   H1802     1.0  0.48974  0.27570  0.09797  1.0000
  Fe  Fe204     1.0  0.69993  0.14676  0.00143  1.0000
  S   S403      1.0  0.68640  0.15254  0.03439  1.0000
  Fe  Fe205     1.0  0.71413  0.01766  0.29177  1.0000
  S   S404      1.0  0.70974  0.04319  0.30026  1.0000
  C   C1493     1.0  0.48655  0.09810  0.46186  1.0000
  S   S405      1.0  0.69201  0.02273  0.03988  1.0000
  C   C1494     1.0  0.50252  0.05337  0.46795  1.0000
  C   C1495     1.0  0.67127  0.16969  0.29624  1.0000
  S   S406      1.0  0.51738  0.05739  0.38033  1.0000
  Fe  Fe206     1.0  0.50625  0.28369  0.14679  1.0000
  S   S407      1.0  0.51023  0.30802  0.11943  1.0000
  S   S408      1.0  0.52510  0.26722  0.14250  1.0000
  S   S409      1.0  0.49737  0.05049  0.97757  1.0000
  S   S410      1.0  0.50221  0.29688  0.17658  1.0000
  Fe  Fe207     1.0  0.52924  0.13562  0.17459  1.0000
  S   S411      1.0  0.54765  0.13672  0.14142  1.0000
  S   S412      1.0  0.52693  0.11293  0.20445  1.0000
  Fe  Fe208     1.0  0.52106  0.16881  0.15367  1.0000
  S   S413      1.0  0.53925  0.17259  0.11956  1.0000
  S   S414      1.0  0.50201  0.18494  0.15826  1.0000
  Fe  Fe209     1.0  0.52799  0.14397  0.12277  1.0000
  S   S415      1.0  0.52381  0.13652  0.08881  1.0000
  Fe  Fe210     1.0  0.55754  0.16507  0.14084  1.0000
  S   S416      1.0  0.58653  0.17666  0.12787  1.0000
  S   S417      1.0  0.50873  0.14051  0.15595  1.0000
  S   S418      1.0  0.54013  0.16369  0.17505  1.0000
  Fe  Fe211     1.0  0.70759  0.19861  0.13641  1.0000
  S   S419      1.0  0.69445  0.22018  0.13662  1.0000
  C   C1496     1.0  0.49158  0.11284  0.09851  1.0000
  Fe  Fe212     1.0  0.70386  0.19135  0.18903  1.0000
  S   S420      1.0  0.69051  0.21240  0.19300  1.0000
  S   S421      1.0  0.70551  0.17081  0.21903  1.0000
  Fe  Fe213     1.0  0.67549  0.20221  0.16807  1.0000
  S   S422      1.0  0.64667  0.19901  0.17960  1.0000
  Fe  Fe214     1.0  0.71046  0.22884  0.16148  1.0000
  H   H1803     1.0  0.70388  0.20740  0.31788  1.0000
  S   S423      1.0  0.68756  0.18004  0.16615  1.0000
  H   H1804     1.0  0.49084  0.13034  0.26605  1.0000
  H   H1805     1.0  0.49818  0.15208  0.11054  1.0000
  C   C1497     1.0  0.60299  0.18265  0.14279  1.0000
  C   C1498     1.0  0.62019  0.18552  0.13120  1.0000
  C   C1499     1.0  0.63372  0.19046  0.14218  1.0000
  C   C1500     1.0  0.63018  0.19268  0.16491  1.0000
  C   C1501     1.0  0.61300  0.19000  0.17644  1.0000
  C   C1502     1.0  0.59946  0.18499  0.16548  1.0000
  H   H1806     1.0  0.62307  0.18384  0.11360  1.0000
  H   H1807     1.0  0.64686  0.19250  0.13307  1.0000
  H   H1808     1.0  0.61015  0.19188  0.19393  1.0000
  H   H1809     1.0  0.58635  0.18323  0.17443  1.0000
  C   C1503     1.0  0.50672  0.12188  0.08205  1.0000
  C   C1504     1.0  0.50821  0.11984  0.05907  1.0000
  C   C1505     1.0  0.49583  0.16730  0.06890  1.0000
  H   H1810     1.0  0.51984  0.12680  0.04617  1.0000
  C   C1506     1.0  0.51849  0.24436  0.14665  1.0000
  C   C1507     1.0  0.50118  0.23546  0.15090  1.0000
  C   C1508     1.0  0.49633  0.21724  0.15428  1.0000
  C   C1509     1.0  0.50875  0.20782  0.15308  1.0000
  C   C1510     1.0  0.52610  0.21674  0.14822  1.0000
  C   C1511     1.0  0.53093  0.23496  0.14511  1.0000
  H   H1811     1.0  0.66345  0.09204  0.45516  1.0000
  C   C1512     1.0  0.63133  0.06573  0.41986  1.0000
  H   H1812     1.0  0.53575  0.20957  0.14723  1.0000
  H   H1813     1.0  0.54437  0.24180  0.14160  1.0000
  H   H1814     1.0  0.51134  0.08866  0.39442  1.0000
  H   H1815     1.0  0.68984  0.10107  0.38423  1.0000
  H   H1816     1.0  0.70570  0.09472  0.36545  1.0000
  C   C1513     1.0  0.51332  0.10969  0.23211  1.0000
  C   C1514     1.0  0.50607  0.12272  0.23848  1.0000
  H   H1817     1.0  0.65820  0.08179  0.36700  1.0000
  H   H1818     1.0  0.69172  0.05559  0.41068  1.0000
  H   H1819     1.0  0.69644  0.20704  0.24324  1.0000
  H   H1820     1.0  0.50826  0.13489  0.22608  1.0000
  C   C1515     1.0  0.54057  0.08910  0.42839  1.0000
  C   C1516     1.0  0.54501  0.07381  0.42536  1.0000
  C   C1517     1.0  0.53770  0.06417  0.41068  1.0000
  C   C1518     1.0  0.52560  0.06950  0.39938  1.0000
  C   C1519     1.0  0.52071  0.08447  0.40296  1.0000
  C   C1520     1.0  0.52835  0.09436  0.41721  1.0000
  H   H1821     1.0  0.55431  0.06957  0.43397  1.0000
  H   H1822     1.0  0.54146  0.05252  0.40813  1.0000
  H   H1823     1.0  0.61814  0.06422  0.42854  1.0000
  C   C1521     1.0  0.65975  0.06275  0.42179  1.0000
  C   C1522     1.0  0.72945  0.05257  0.33176  1.0000
  C   C1523     1.0  0.64254  0.06024  0.43249  1.0000
  C   C1524     1.0  0.69624  0.16322  0.05373  1.0000
  C   C1525     1.0  0.71399  0.16739  0.05152  1.0000
  H   H1824     1.0  0.50478  0.06220  0.45133  1.0000
  C   C1526     1.0  0.71100  0.18088  0.08487  1.0000
  C   C1527     1.0  0.69323  0.17649  0.08728  1.0000
  C   C1528     1.0  0.68591  0.16774  0.07171  1.0000
  H   H1825     1.0  0.68515  0.17989  0.10106  1.0000
  H   H1826     1.0  0.67215  0.16451  0.07358  1.0000
  C   C1529     1.0  0.72032  0.07959  0.00414  1.0000
  C   C1530     1.0  0.52115  0.28183  0.07102  1.0000
  C   C1531     1.0  0.72126  0.04970  0.01896  1.0000
  C   C1532     1.0  0.70343  0.04463  0.02697  1.0000
  C   C1533     1.0  0.69416  0.05717  0.02390  1.0000
  C   C1534     1.0  0.70254  0.07459  0.01263  1.0000
  H   H1827     1.0  0.67198  0.18453  0.23941  1.0000
  C   C1535     1.0  0.66639  0.17064  0.27503  1.0000
  H   H1828     1.0  0.68036  0.05331  0.03004  1.0000
  H   H1829     1.0  0.69519  0.08402  0.01037  1.0000
  C   C1536     1.0  0.64166  0.09956  0.44556  1.0000
  C   C1537     1.0  0.65920  0.10043  0.44263  1.0000
  C   C1538     1.0  0.67124  0.11193  0.42343  1.0000
  C   C1539     1.0  0.66576  0.12257  0.40699  1.0000
  C   C1540     1.0  0.64825  0.12190  0.41013  1.0000
  C   C1541     1.0  0.63621  0.11045  0.42938  1.0000
  C   C1542     1.0  0.49619  0.12010  0.26113  1.0000
  H   H1830     1.0  0.68471  0.11248  0.42132  1.0000
  S   S424      1.0  0.55024  0.10203  0.44564  1.0000
  H   H1831     1.0  0.69134  0.11343  0.05236  1.0000
  C   C1543     1.0  0.71759  0.17336  0.24041  1.0000
  C   C1544     1.0  0.71650  0.15861  0.25752  1.0000
  C   C1545     1.0  0.51194  0.22579  0.05358  1.0000
  C   C1546     1.0  0.50021  0.09121  0.27094  1.0000
  H   H1832     1.0  0.50720  0.17875  0.06413  1.0000
  H   H1833     1.0  0.70871  0.14605  0.25699  1.0000
  H   H1834     1.0  0.50081  0.26121  0.11032  1.0000
  Fe  Fe215     1.0  0.70285  0.99948  0.04873  1.0000
  H   H1835     1.0  0.67279  0.19310  0.33632  1.0000
  C   C1547     1.0  0.71741  0.07446  0.31327  1.0000
  C   C1548     1.0  0.71963  0.05751  0.31624  1.0000
  H   H1836     1.0  0.57104  0.06140  0.97567  1.0000
  H   H1837     1.0  0.51092  0.18449  0.21311  1.0000
  H   H1838     1.0  0.70997  0.07849  0.30119  1.0000
  H   H1839     1.0  0.68684  0.13591  0.11623  1.0000
  H   H1840     1.0  0.63791  0.05453  0.45094  1.0000
  H   H1841     1.0  0.49967  0.25679  0.21635  1.0000
  H   H1842     1.0  0.48902  0.19288  0.11716  1.0000
  H   H1843     1.0  0.49714  0.01815  0.44255  1.0000
  C   C1549     1.0  0.51149  0.25112  0.07080  1.0000
  H   H1844     1.0  0.50579  0.17507  0.10658  1.0000
  N   N100      1.0  0.54000  0.10071  0.32105  1.0000
  C   C1550     1.0  0.55112  0.09849  0.33773  1.0000
  C   C1551     1.0  0.52421  0.10397  0.33367  1.0000
  C   C1552     1.0  0.53521  0.08403  0.31374  1.0000
  C   C1553     1.0  0.54827  0.11510  0.30034  1.0000
  C   C1554     1.0  0.56527  0.12574  0.29677  1.0000
  C   C1555     1.0  0.53925  0.11882  0.28287  1.0000
  H   H1845     1.0  0.50826  0.21834  0.04111  1.0000
  C   C1556     1.0  0.54668  0.13222  0.26305  1.0000
  C   C1557     1.0  0.56330  0.14245  0.26012  1.0000
  H   H1846     1.0  0.55454  0.11027  0.34488  1.0000
  H   H1847     1.0  0.54454  0.08751  0.35299  1.0000
  H   H1848     1.0  0.56300  0.09537  0.32970  1.0000
  H   H1849     1.0  0.52701  0.11681  0.33847  1.0000
  H   H1850     1.0  0.51816  0.09379  0.34994  1.0000
  H   H1851     1.0  0.51423  0.10384  0.32333  1.0000
  H   H1852     1.0  0.54656  0.08142  0.30325  1.0000
  H   H1853     1.0  0.52960  0.07278  0.32897  1.0000
  H   H1854     1.0  0.52538  0.08388  0.30318  1.0000
  H   H1855     1.0  0.57314  0.12402  0.30913  1.0000
  H   H1856     1.0  0.52624  0.11145  0.28456  1.0000
  H   H1857     1.0  0.52747  0.27981  0.08581  1.0000
  H   H1858     1.0  0.53936  0.13473  0.25006  1.0000
  H   H1859     1.0  0.65231  0.13253  0.46282  1.0000
  H   H1860     1.0  0.66409  0.15880  0.31034  1.0000
  H   H1861     1.0  0.53249  0.08353  0.01550  1.0000
  H   H1862     1.0  0.62033  0.22514  0.14101  1.0000
  C   C1558     1.0  0.67675  0.18081  0.34016  1.0000
  C   C1559     1.0  0.51385  0.21214  0.20671  1.0000
  H   H1863     1.0  0.51871  0.01871  0.40012  1.0000
  H   H1864     1.0  0.69962  0.00985  0.17130  1.0000
  H   H1865     1.0  0.61775  0.27473  0.15511  1.0000
  H   H1866     1.0  0.49024  0.11425  0.11625  1.0000
  H   H1867     1.0  0.65961  0.15409  0.46709  1.0000
  C   C1560     1.0  0.70526  0.11512  0.04557  1.0000
  H   H1868     1.0  0.68385  0.15210  0.32982  1.0000
  C   C1561     1.0  0.72965  0.06713  0.00755  1.0000
  C   C1562     1.0  0.72133  0.17633  0.06689  1.0000
  C   C1563     1.0  0.49396  0.16430  0.10967  1.0000
  C   C1564     1.0  0.70624  0.19427  0.32118  1.0000
  H   H1869     1.0  0.49341  0.28512  0.05665  1.0000
  Fe  Fe216     1.0  0.49304  0.06001  0.36943  1.0000
  H   H1870     1.0  0.72852  0.04014  0.02120  1.0000
  H   H1871     1.0  0.71757  0.19425  0.30789  1.0000
  H   H1872     1.0  0.64394  0.13011  0.39745  1.0000
  H   H1873     1.0  0.49915  0.24468  0.04272  1.0000
  S   S425      1.0  0.72092  0.19186  0.10390  1.0000
  N   N101      1.0  0.69089  0.18039  0.32130  1.0000
  S   S426      1.0  0.71184  0.00409  0.21303  1.0000
  C   C1565     1.0  0.68486  0.06196  0.36923  1.0000
  N   N102      1.0  0.50603  0.26714  0.07289  1.0000
  C   C1566     1.0  0.69427  0.19596  0.27932  1.0000
  C   C1567     1.0  0.68917  0.19686  0.25827  1.0000
  S   S427      1.0  0.57739  0.06857  0.46639  1.0000
  C   C1568     1.0  0.51037  0.09395  0.24843  1.0000
  C   C1569     1.0  0.55253  0.08467  0.98620  1.0000
  C   C1570     1.0  0.69879  0.12282  0.09232  1.0000
  H   H1874     1.0  0.72889  0.20093  0.22792  1.0000
  H   H1875     1.0  0.68061  0.17976  0.35712  1.0000
  H   H1876     1.0  0.52487  0.10618  0.41953  1.0000
  C   C1571     1.0  0.57259  0.13921  0.27692  1.0000
  H   H1877     1.0  0.49403  0.09262  0.44983  1.0000
  C   C1572     1.0  0.49483  0.10884  0.05258  1.0000
  N   N103      1.0  0.58196  0.12808  0.18665  1.0000
  C   C1573     1.0  0.57326  0.14220  0.18751  1.0000
  C   C1574     1.0  0.57597  0.11854  0.16941  1.0000
  C   C1575     1.0  0.57630  0.11559  0.20959  1.0000
  C   C1576     1.0  0.60077  0.13576  0.18103  1.0000
  C   C1577     1.0  0.60872  0.14372  0.19700  1.0000
  C   C1578     1.0  0.61157  0.13640  0.15940  1.0000
  C   C1579     1.0  0.62638  0.15142  0.19187  1.0000
  C   C1580     1.0  0.62922  0.14417  0.15446  1.0000
  C   C1581     1.0  0.63660  0.15160  0.17068  1.0000
  H   H1878     1.0  0.57694  0.14997  0.20015  1.0000
  H   H1879     1.0  0.57651  0.15135  0.17027  1.0000
  H   H1880     1.0  0.55908  0.13700  0.19240  1.0000
  H   H1881     1.0  0.57844  0.12741  0.15203  1.0000
  H   H1882     1.0  0.56183  0.11253  0.17445  1.0000
  H   H1883     1.0  0.58224  0.10785  0.16764  1.0000
  H   H1884     1.0  0.57808  0.12201  0.22414  1.0000
  H   H1885     1.0  0.56231  0.10889  0.21346  1.0000
  H   H1886     1.0  0.58341  0.10537  0.21017  1.0000
  H   H1887     1.0  0.60130  0.14451  0.21330  1.0000
  H   H1888     1.0  0.60670  0.13132  0.14577  1.0000
  H   H1889     1.0  0.63216  0.15790  0.20397  1.0000
  H   H1890     1.0  0.63717  0.14484  0.13770  1.0000
  H   H1891     1.0  0.65020  0.15805  0.16654  1.0000
  H   H1892     1.0  0.72292  0.09925  0.32304  1.0000
  N   N104      1.0  0.71395  0.10888  0.06371  1.0000
  N   N105      1.0  0.68428  0.07351  0.38577  1.0000
  N   N106      1.0  0.72403  0.20768  0.99139  1.0000
  H   H1893     1.0  0.52517  0.25160  0.09871  1.0000
  C   C1582     1.0  0.71430  0.12026  0.08050  1.0000
  H   H1894     1.0  0.69538  0.07774  0.41483  1.0000
  C   C1583     1.0  0.50560  0.22544  0.20772  1.0000
  C   C1584     1.0  0.63719  0.07351  0.39632  1.0000
  H   H1895     1.0  0.49620  0.10740  0.03485  1.0000
  C   C1585     1.0  0.62583  0.14572  0.46788  1.0000
  H   H1896     1.0  0.51515  0.09662  0.99161  1.0000
  H   H1897     1.0  0.51747  0.29427  0.07125  1.0000
  S   S428      1.0  0.72492  0.20838  0.15915  1.0000
  S   S429      1.0  0.73140  0.10124  0.98926  1.0000
  C   C1586     1.0  0.71339  0.20860  0.97385  1.0000
  H   H1898     1.0  0.55953  0.07865  0.99736  1.0000
  H   H1899     1.0  0.51353  0.23857  0.20040  1.0000
  Fe  Fe217     1.0  0.56550  0.09081  0.46951  1.0000
  H   H1900     1.0  0.60386  0.24676  0.14677  1.0000
  H   H1901     1.0  0.49793  0.07899  0.28327  1.0000
  C   C1587     1.0  0.69877  0.13374  0.10792  1.0000
  C   C1588     1.0  0.52622  0.22943  0.08476  1.0000
  C   C1589     1.0  0.49476  0.99674  0.36862  1.0000
  H   H1902     1.0  0.67838  0.06545  0.35502  1.0000
  H   H1903     1.0  0.71098  0.12925  0.03782  1.0000
  C   C1590     1.0  0.52130  0.24477  0.08584  1.0000
  C   C1591     1.0  0.73126  0.10844  0.05173  1.0000
  H   H1904     1.0  0.70915  0.07242  0.39217  1.0000
  N   N107      1.0  0.67031  0.26014  0.15235  1.0000
  C   C1592     1.0  0.67726  0.27708  0.15809  1.0000
  C   C1593     1.0  0.67222  0.24625  0.17064  1.0000
  C   C1594     1.0  0.68106  0.26004  0.12979  1.0000
  C   C1595     1.0  0.65211  0.25684  0.15083  1.0000
  C   C1596     1.0  0.64366  0.24098  0.14598  1.0000
  C   C1597     1.0  0.64227  0.26900  0.15405  1.0000
  C   C1598     1.0  0.62648  0.23745  0.14455  1.0000
  C   C1599     1.0  0.62507  0.26533  0.15254  1.0000
  C   C1600     1.0  0.61720  0.24959  0.14784  1.0000
  H   H1905     1.0  0.67013  0.27785  0.17528  1.0000
  H   H1906     1.0  0.69098  0.27894  0.15912  1.0000
  H   H1907     1.0  0.67691  0.28826  0.14459  1.0000
  H   H1908     1.0  0.66351  0.24513  0.18760  1.0000
  H   H1909     1.0  0.68559  0.24870  0.17316  1.0000
  H   H1910     1.0  0.66920  0.23328  0.16640  1.0000
  H   H1911     1.0  0.67997  0.27032  0.11559  1.0000
  H   H1912     1.0  0.69488  0.26231  0.13030  1.0000
  H   H1913     1.0  0.67737  0.24741  0.12474  1.0000
  H   H1914     1.0  0.65024  0.23105  0.14343  1.0000
  H   H1915     1.0  0.64753  0.28139  0.15781  1.0000
  H   H1916     1.0  0.50176  0.04049  0.42834  1.0000
  H   H1917     1.0  0.73129  0.03959  0.33428  1.0000
  Fe  Fe218     1.0  0.71857  0.12296  0.98122  1.0000
  H   H1918     1.0  0.53364  0.22483  0.09659  1.0000
  C   C1601     1.0  0.50289  0.01065  0.37702  1.0000
  S   S430      1.0  0.72238  0.25837  0.15371  1.0000
  C   C1602     1.0  0.68759  0.03680  0.97821  1.0000
  H   H1919     1.0  0.69075  0.08974  0.08384  1.0000
  H   H1920     1.0  0.51585  0.08377  0.24359  1.0000
  H   H1921     1.0  0.70935  0.21958  0.01416  1.0000
  C   C1603     1.0  0.67537  0.18416  0.25607  1.0000
  S   S431      1.0  0.72708  0.16540  0.36540  1.0000
  S   S432      1.0  0.62698  0.08442  0.46936  1.0000
  H   H1922     1.0  0.65588  0.16062  0.27307  1.0000
  H   H1923     1.0  0.69825  0.06262  0.36082  1.0000
  H   H1924     1.0  0.53090  0.28383  0.05469  1.0000
  C   C1604     1.0  0.69169  0.09191  0.37278  1.0000
  H   H1925     1.0  0.68600  0.09538  0.35778  1.0000
  C   C1605     1.0  0.71412  0.14234  0.11234  1.0000
  H   H1926     1.0  0.71016  0.19234  0.33806  1.0000
  S   S433      1.0  0.72794  0.99832  0.05859  1.0000
  C   C1606     1.0  0.65432  0.07590  0.38534  1.0000
  H   H1927     1.0  0.52743  0.21532  0.19882  1.0000
  H   H1928     1.0  0.52420  0.02188  0.45351  1.0000
  H   H1929     1.0  0.62271  0.10978  0.43146  1.0000
  C   C1607     1.0  0.69552  0.06961  0.40170  1.0000
  C   C1608     1.0  0.73424  0.08123  0.34156  1.0000
  C   C1609     1.0  0.49113  0.02874  0.43707  1.0000
  H   H1930     1.0  0.67850  0.04811  0.37813  1.0000
  H   H1931     1.0  0.50162  0.02363  0.37080  1.0000
  H   H1932     1.0  0.66526  0.16972  0.34294  1.0000
  H   H1933     1.0  0.56891  0.15304  0.24493  1.0000
  C   C1610     1.0  0.49437  0.26405  0.09588  1.0000
  H   H1934     1.0  0.72206  0.16363  0.03814  1.0000
  H   H1935     1.0  0.58549  0.14730  0.27466  1.0000
  C   C1611     1.0  0.66621  0.07086  0.39783  1.0000
  H   H1936     1.0  0.66771  0.05843  0.43278  1.0000
  H   H1937     1.0  0.70520  0.16232  0.31287  1.0000
  Fe  Fe219     1.0  0.50409  0.32070  0.14930  1.0000
  H   H1938     1.0  0.68656  0.11664  0.08924  1.0000
  H   H1939     1.0  0.70627  0.10801  0.03135  1.0000
  C   C1612     1.0  0.71298  0.20713  0.01413  1.0000
  C   C1613     1.0  0.68550  0.18221  0.29897  1.0000
  C   C1614     1.0  0.72473  0.08627  0.32570  1.0000
  C   C1615     1.0  0.72911  0.19116  0.99327  1.0000
  Fe  Fe220     1.0  0.71694  0.99990  0.24977  1.0000
  H   H1940     1.0  0.48713  0.99951  0.35629  1.0000
  H   H1941     1.0  0.72452  0.14846  0.28824  1.0000
  C   C1616     1.0  0.72956  0.14009  0.10115  1.0000
  C   C1617     1.0  0.49683  0.27274  0.05496  1.0000
  C   C1618     1.0  0.50458  0.19475  0.21479  1.0000
  H   H1942     1.0  0.62842  0.07784  0.38661  1.0000
  H   H1943     1.0  0.71410  0.15115  0.12402  1.0000
  H   H1944     1.0  0.70547  0.20589  0.27944  1.0000
  H   H1945     1.0  0.71932  0.20432  0.02873  1.0000
  C   C1619     1.0  0.69507  0.16348  0.32690  1.0000
  S   S434      1.0  0.49039  0.05741  0.33370  1.0000
  C   C1620     1.0  0.70433  0.09077  0.07585  1.0000
  C   C1621     1.0  0.52163  0.22000  0.06858  1.0000
  H   H1946     1.0  0.50484  0.27517  0.03713  1.0000
  C   C1622     1.0  0.70720  0.00059  0.16967  1.0000
  H   H1947     1.0  0.52561  0.20818  0.06774  1.0000
  C   C1623     1.0  0.50682  0.24108  0.05464  1.0000
  C   C1624     1.0  0.72786  0.18952  0.24108  1.0000
  H   H1948     1.0  0.49155  0.24260  0.15167  1.0000
  H   H1949     1.0  0.70087  0.19646  0.01849  1.0000
  S   S435      1.0  0.72804  0.14849  0.99104  1.0000
  H   H1950     1.0  0.48595  0.16321  0.12717  1.0000
  C   C1625     1.0  0.53707  0.08740  0.99679  1.0000
  S   S436      1.0  0.72518  0.12666  0.39441  1.0000
  H   H1951     1.0  0.71769  0.17972  0.99927  1.0000
  H   H1952     1.0  0.70561  0.02240  0.98627  1.0000
  C   C1626     1.0  0.72976  0.12922  0.08545  1.0000
  C   C1627     1.0  0.49324  0.10437  0.27748  1.0000
  H   H1953     1.0  0.71026  0.08570  0.08996  1.0000
  H   H1954     1.0  0.70404  0.08178  0.06374  1.0000
  C   C1628     1.0  0.72542  0.15995  0.27530  1.0000
  H   H1955     1.0  0.62721  0.13805  0.45430  1.0000
  H   H1956     1.0  0.67675  0.02707  0.98999  1.0000
  H   H1957     1.0  0.48923  0.16766  0.05431  1.0000
  C   C1629     1.0  0.48938  0.25314  0.20697  1.0000
  H   H1958     1.0  0.70226  0.99749  0.13622  1.0000
  H   H1959     1.0  0.50074  0.15547  0.06994  1.0000
  H   H1960     1.0  0.73053  0.09984  0.03914  1.0000
  S   S437      1.0  0.69479  0.99988  0.27807  1.0000
  C   C1630     1.0  0.52727  0.09481  0.98337  1.0000
  H   H1961     1.0  0.58757  0.08969  0.97887  1.0000
  H   H1962     1.0  0.63156  0.15975  0.45939  1.0000
  C   C1631     1.0  0.70389  0.03414  0.97616  1.0000
  H   H1963     1.0  0.73054  0.25166  0.19970  1.0000
  C   C1632     1.0  0.48765  0.22161  0.21711  1.0000
  H   H1964     1.0  0.70079  0.19863  0.97986  1.0000
  H   H1965     1.0  0.49537  0.25466  0.18834  1.0000
  H   H1966     1.0  0.73508  0.17952  0.06510  1.0000
  C   C1633     1.0  0.73525  0.27140  0.16847  1.0000
  C   C1634     1.0  0.48706  0.19057  0.22446  1.0000
  C   C1635     1.0  0.73530  0.17615  0.27642  1.0000
  C   C1636     1.0  0.48904  0.02577  0.49542  1.0000
  H   H1967     1.0  0.68198  0.09110  0.91611  1.0000
  H   H1968     1.0  0.62538  0.11308  0.48677  1.0000
  C   C1637     1.0  0.53801  0.01797  0.50381  1.0000
  Fe  Fe221     1.0  0.60754  0.17447  0.66437  1.0000
  S   S438      1.0  0.60008  0.14754  0.65837  1.0000
  S   S439      1.0  0.58537  0.18489  0.67907  1.0000
  Fe  Fe222     1.0  0.64577  0.17569  0.65748  1.0000
  S   S440      1.0  0.64051  0.14833  0.65164  1.0000
  S   S441      1.0  0.67447  0.18827  0.65398  1.0000
  Fe  Fe223     1.0  0.62331  0.15620  0.62897  1.0000
  S   S442      1.0  0.62703  0.14597  0.59585  1.0000
  Fe  Fe224     1.0  0.61769  0.14146  0.68131  1.0000
  S   S443      1.0  0.60667  0.11481  0.70568  1.0000
  S   S444      1.0  0.62978  0.18411  0.63282  1.0000
  S   S445      1.0  0.62402  0.16794  0.68925  1.0000
  S   S446      1.0  0.71988  0.25278  0.68331  1.0000
  H   H1969     1.0  0.58139  0.10590  0.91961  1.0000
  S   S447      1.0  0.58697  0.07201  0.51684  1.0000
  C   C1638     1.0  0.73398  0.23585  0.74306  1.0000
  H   H1970     1.0  0.52506  0.10508  0.94894  1.0000
  S   S448      1.0  0.55160  0.07993  0.50670  1.0000
  C   C1639     1.0  0.52040  0.04091  0.85869  1.0000
  Fe  Fe225     1.0  0.57532  0.09458  0.51582  1.0000
  S   S449      1.0  0.57241  0.11023  0.54377  1.0000
  Fe  Fe226     1.0  0.56454  0.05849  0.50411  1.0000
  S   S450      1.0  0.55028  0.03018  0.51970  1.0000
  H   H1971     1.0  0.67066  0.07177  0.93706  1.0000
  H   H1972     1.0  0.49018  0.99706  0.89802  1.0000
  Fe  Fe227     1.0  0.60569  0.06912  0.88870  1.0000
  S   S451      1.0  0.59898  0.09105  0.86689  1.0000
  S   S452      1.0  0.61733  0.06921  0.92037  1.0000
  Fe  Fe228     1.0  0.58635  0.04190  0.86578  1.0000
  S   S453      1.0  0.57859  0.06190  0.84174  1.0000
  S   S454      1.0  0.57546  0.01254  0.87571  1.0000
  Fe  Fe229     1.0  0.60553  0.07836  0.83728  1.0000
  S   S455      1.0  0.62300  0.09766  0.80529  1.0000
  Fe  Fe230     1.0  0.57277  0.07301  0.87295  1.0000
  S   S456      1.0  0.54874  0.08221  0.87974  1.0000
  S   S457      1.0  0.61396  0.05731  0.85890  1.0000
  S   S458      1.0  0.57878  0.05217  0.89717  1.0000
  H   H1973     1.0  0.68701  0.07089  0.91340  1.0000
  H   H1974     1.0  0.54232  0.03728  0.88672  1.0000
  H   H1975     1.0  0.68323  0.22152  0.61034  1.0000
  Fe  Fe231     1.0  0.50492  0.20617  0.63764  1.0000
  S   S459      1.0  0.53230  0.20637  0.62206  1.0000
  C   C1640     1.0  0.58277  0.06891  0.58963  1.0000
  C   C1641     1.0  0.52636  0.30592  0.65227  1.0000
  C   C1642     1.0  0.52994  0.29122  0.64507  1.0000
  C   C1643     1.0  0.51665  0.27624  0.64684  1.0000
  C   C1644     1.0  0.49962  0.27584  0.65583  1.0000
  C   C1645     1.0  0.49601  0.29073  0.66235  1.0000
  C   C1646     1.0  0.50929  0.30570  0.66061  1.0000
  H   H1976     1.0  0.54309  0.29131  0.63845  1.0000
  H   H1977     1.0  0.51959  0.26491  0.64166  1.0000
  S   S460      1.0  0.54366  0.32413  0.65057  1.0000
  H   H1978     1.0  0.50842  0.01579  0.91333  1.0000
  C   C1647     1.0  0.53422  0.07319  0.90676  1.0000
  C   C1648     1.0  0.53684  0.05977  0.92265  1.0000
  C   C1649     1.0  0.52536  0.05286  0.94425  1.0000
  C   C1650     1.0  0.51115  0.05935  0.95014  1.0000
  C   C1651     1.0  0.50827  0.07259  0.93417  1.0000
  C   C1652     1.0  0.51982  0.07951  0.91247  1.0000
  H   H1979     1.0  0.54762  0.05458  0.91836  1.0000
  C   C1653     1.0  0.51108  0.04729  0.50434  1.0000
  H   H1980     1.0  0.51766  0.08986  0.90021  1.0000
  H   H1981     1.0  0.71652  0.21740  0.71399  1.0000
  C   C1654     1.0  0.57004  0.18891  0.66298  1.0000
  C   C1655     1.0  0.55366  0.18894  0.67480  1.0000
  C   C1656     1.0  0.54167  0.19358  0.66248  1.0000
  C   C1657     1.0  0.54610  0.19848  0.63823  1.0000
  C   C1658     1.0  0.56238  0.19820  0.62646  1.0000
  C   C1659     1.0  0.57426  0.19330  0.63874  1.0000
  H   H1982     1.0  0.55028  0.18554  0.69355  1.0000
  H   H1983     1.0  0.52913  0.19365  0.67173  1.0000
  H   H1984     1.0  0.56590  0.20196  0.60770  1.0000
  H   H1985     1.0  0.58684  0.19339  0.62945  1.0000
  C   C1660     1.0  0.61130  0.11024  0.73332  1.0000
  C   C1661     1.0  0.62425  0.12167  0.73954  1.0000
  C   C1662     1.0  0.62763  0.11761  0.76170  1.0000
  C   C1663     1.0  0.61790  0.10230  0.77794  1.0000
  C   C1664     1.0  0.60471  0.09103  0.77187  1.0000
  C   C1665     1.0  0.60155  0.09491  0.74953  1.0000
  H   H1986     1.0  0.63185  0.13349  0.72718  1.0000
  H   H1987     1.0  0.63788  0.12635  0.76628  1.0000
  H   H1988     1.0  0.59721  0.07917  0.78421  1.0000
  H   H1989     1.0  0.59149  0.08602  0.74484  1.0000
  C   C1666     1.0  0.61113  0.13496  0.58319  1.0000
  C   C1667     1.0  0.61550  0.12406  0.56861  1.0000
  C   C1668     1.0  0.60360  0.11587  0.55711  1.0000
  C   C1669     1.0  0.58743  0.11907  0.55930  1.0000
  C   C1670     1.0  0.58291  0.12961  0.57435  1.0000
  C   C1671     1.0  0.59462  0.13739  0.58642  1.0000
  H   H1990     1.0  0.62818  0.12196  0.56616  1.0000
  H   H1991     1.0  0.60688  0.10702  0.54667  1.0000
  H   H1992     1.0  0.57033  0.13198  0.57644  1.0000
  H   H1993     1.0  0.59108  0.14577  0.59754  1.0000
  C   C1672     1.0  0.68667  0.20581  0.66336  1.0000
  C   C1673     1.0  0.70464  0.20878  0.65906  1.0000
  C   C1674     1.0  0.71500  0.22292  0.66521  1.0000
  C   C1675     1.0  0.70752  0.23442  0.67560  1.0000
  C   C1676     1.0  0.68954  0.23125  0.68032  1.0000
  C   C1677     1.0  0.67917  0.21705  0.67427  1.0000
  H   H1994     1.0  0.71059  0.20015  0.65069  1.0000
  H   H1995     1.0  0.71644  0.18898  0.78258  1.0000
  H   H1996     1.0  0.68357  0.23993  0.68856  1.0000
  H   H1997     1.0  0.66539  0.21496  0.67776  1.0000
  H   H1998     1.0  0.66007  0.15818  0.50555  1.0000
  H   H1999     1.0  0.61133  0.12036  0.50667  1.0000
  H   H2000     1.0  0.67870  0.08357  0.96977  1.0000
  H   H2001     1.0  0.63102  0.11713  0.51311  1.0000
  C   C1678     1.0  0.51181  0.29624  0.55585  1.0000
  C   C1679     1.0  0.52921  0.00046  0.51385  1.0000
  C   C1680     1.0  0.52558  0.01577  0.47030  1.0000
  C   C1681     1.0  0.51510  0.31283  0.54182  1.0000
  H   H2002     1.0  0.57781  0.01818  0.82584  1.0000
  H   H2003     1.0  0.49724  0.07758  0.93862  1.0000
  C   C1682     1.0  0.65923  0.11439  0.92887  1.0000
  C   C1683     1.0  0.65357  0.11532  0.90809  1.0000
  C   C1684     1.0  0.64076  0.10160  0.90522  1.0000
  C   C1685     1.0  0.63349  0.08677  0.92317  1.0000
  C   C1686     1.0  0.63905  0.08584  0.94406  1.0000
  C   C1687     1.0  0.65183  0.09962  0.94696  1.0000
  H   H2004     1.0  0.48638  0.25718  0.57547  1.0000
  H   H2005     1.0  0.63657  0.10248  0.88908  1.0000
  C   C1688     1.0  0.52087  0.00636  0.84757  1.0000
  H   H2006     1.0  0.73068  0.24020  0.72622  1.0000
  H   H2007     1.0  0.65856  0.13506  0.48903  1.0000
  N   N108      1.0  0.51940  0.02525  0.87656  1.0000
  N   N109      1.0  0.69682  0.08217  0.93976  1.0000
  H   H2008     1.0  0.67593  0.17239  0.74945  1.0000
  C   C1689     1.0  0.71117  0.19129  0.76747  1.0000
  H   H2009     1.0  0.68877  0.10391  0.94954  1.0000
  C   C1690     1.0  0.71598  0.06251  0.95000  1.0000
  H   H2010     1.0  0.63335  0.07446  0.95811  1.0000
  C   C1691     1.0  0.71939  0.20538  0.74800  1.0000
  H   H2011     1.0  0.51538  0.27877  0.71250  1.0000
  H   H2012     1.0  0.53703  0.01384  0.89248  1.0000
  C   C1692     1.0  0.65196  0.14060  0.47606  1.0000
  H   H2013     1.0  0.61393  0.06728  0.61921  1.0000
  C   C1693     1.0  0.54834  0.09691  0.94852  1.0000
  H   H2014     1.0  0.63125  0.09119  0.62623  1.0000
  C   C1694     1.0  0.55864  0.08929  0.96171  1.0000
  C   C1695     1.0  0.73041  0.24970  0.60204  1.0000
  C   C1696     1.0  0.49401  0.10594  0.47775  1.0000
  H   H2015     1.0  0.65654  0.17441  0.53556  1.0000
  Fe  Fe232     1.0  0.69220  0.13516  0.95735  1.0000
  H   H2016     1.0  0.50611  0.28493  0.54985  1.0000
  H   H2017     1.0  0.59067  0.10886  0.95662  1.0000
  H   H2018     1.0  0.56518  0.99861  0.80226  1.0000
  H   H2019     1.0  0.52952  0.04199  0.84212  1.0000
  C   C1697     1.0  0.61677  0.15339  0.51422  1.0000
  S   S461      1.0  0.49393  0.22593  0.61832  1.0000
  C   C1698     1.0  0.70974  0.22587  0.59357  1.0000
  C   C1699     1.0  0.63293  0.15128  0.50395  1.0000
  C   C1700     1.0  0.69951  0.24314  0.61888  1.0000
  H   H2020     1.0  0.57828  0.09980  0.61942  1.0000
  C   C1701     1.0  0.69623  0.22959  0.60755  1.0000
  H   H2021     1.0  0.60118  0.05390  0.59076  1.0000
  H   H2022     1.0  0.68956  0.16889  0.78285  1.0000
  S   S462      1.0  0.67552  0.13206  0.93116  1.0000
  C   C1702     1.0  0.69561  0.19522  0.72985  1.0000
  H   H2023     1.0  0.53258  0.01547  0.83705  1.0000
  H   H2024     1.0  0.65575  0.09895  0.96324  1.0000
  H   H2025     1.0  0.56166  0.05943  0.95126  1.0000
  H   H2026     1.0  0.50633  0.31690  0.66620  1.0000
  C   C1703     1.0  0.51574  0.29426  0.57759  1.0000
  H   H2027     1.0  0.65916  0.12675  0.89406  1.0000
  H   H2028     1.0  0.63036  0.10851  0.64071  1.0000
  C   C1704     1.0  0.56880  0.00573  0.83432  1.0000
  H   H2029     1.0  0.68958  0.19673  0.71521  1.0000
  C   C1705     1.0  0.57638  0.08167  0.59812  1.0000
  H   H2030     1.0  0.60506  0.14694  0.51003  1.0000
  H   H2031     1.0  0.62809  0.17751  0.55261  1.0000
  C   C1706     1.0  0.54100  0.28114  0.69388  1.0000
  C   C1707     1.0  0.52321  0.30889  0.58521  1.0000
  H   H2032     1.0  0.58965  0.07312  0.66853  1.0000
  Fe  Fe233     1.0  0.59888  0.08397  0.47902  1.0000
  H   H2033     1.0  0.56484  0.28095  0.67399  1.0000
  C   C1708     1.0  0.71107  0.20699  0.72929  1.0000
  H   H2034     1.0  0.71945  0.20589  0.95727  1.0000
  H   H2035     1.0  0.72366  0.23697  0.75701  1.0000
  C   C1709     1.0  0.72661  0.23572  0.59076  1.0000
  H   H2036     1.0  0.72265  0.09859  0.93322  1.0000
  H   H2037     1.0  0.73077  0.04505  0.96126  1.0000
  C   C1710     1.0  0.71258  0.09420  0.92373  1.0000
  Fe  Fe234     1.0  0.72647  0.16120  0.95521  1.0000
  C   C1711     1.0  0.52390  0.27227  0.70375  1.0000
  H   H2038     1.0  0.60263  0.16405  0.53924  1.0000
  H   H2039     1.0  0.62619  0.11027  0.61227  1.0000
  H   H2040     1.0  0.59191  0.08898  0.91784  1.0000
  H   H2041     1.0  0.55167  0.10056  0.92979  1.0000
  S   S463      1.0  0.71976  0.13580  0.94440  1.0000
  H   H2042     1.0  0.57731  0.06306  0.57681  1.0000
  H   H2043     1.0  0.52233  0.07089  0.47809  1.0000
  H   H2044     1.0  0.67251  0.05389  0.96883  1.0000
  C   C1712     1.0  0.49933  0.03099  0.51043  1.0000
  N   N110      1.0  0.56987  0.13858  0.74483  1.0000
  C   C1713     1.0  0.58748  0.15011  0.73497  1.0000
  C   C1714     1.0  0.56735  0.12404  0.73280  1.0000
  C   C1715     1.0  0.55771  0.14902  0.73946  1.0000
  C   C1716     1.0  0.56750  0.13129  0.76997  1.0000
  C   C1717     1.0  0.55272  0.13087  0.78674  1.0000
  C   C1718     1.0  0.57977  0.12348  0.77822  1.0000
  C   C1719     1.0  0.55066  0.12332  0.81026  1.0000
  C   C1720     1.0  0.57761  0.11599  0.80171  1.0000
  C   C1721     1.0  0.56307  0.11591  0.81771  1.0000
  H   H2045     1.0  0.59744  0.14279  0.73400  1.0000
  H   H2046     1.0  0.58895  0.15726  0.71680  1.0000
  H   H2047     1.0  0.59073  0.16001  0.74529  1.0000
  H   H2048     1.0  0.57617  0.11572  0.73597  1.0000
  H   H2049     1.0  0.56988  0.12889  0.71364  1.0000
  H   H2050     1.0  0.55408  0.11541  0.73892  1.0000
  H   H2051     1.0  0.55865  0.15987  0.74865  1.0000
  H   H2052     1.0  0.56045  0.15509  0.72052  1.0000
  H   H2053     1.0  0.54422  0.14090  0.74396  1.0000
  H   H2054     1.0  0.54255  0.13621  0.78216  1.0000
  H   H2055     1.0  0.59112  0.12291  0.76654  1.0000
  H   H2056     1.0  0.53933  0.12310  0.82283  1.0000
  H   H2057     1.0  0.58725  0.11013  0.80750  1.0000
  H   H2058     1.0  0.56140  0.11000  0.83593  1.0000
  H   H2059     1.0  0.54567  0.29457  0.69496  1.0000
  H   H2060     1.0  0.52502  0.05319  0.86441  1.0000
  C   C1722     1.0  0.68791  0.18152  0.74911  1.0000
  C   C1723     1.0  0.53293  0.09962  0.95933  1.0000
  C   C1724     1.0  0.61519  0.16310  0.53114  1.0000
  C   C1725     1.0  0.68359  0.07876  0.92603  1.0000
  C   C1726     1.0  0.62952  0.17070  0.53869  1.0000
  H   H2061     1.0  0.70710  0.21498  0.58533  1.0000
  S   S464      1.0  0.49638  0.21192  0.67240  1.0000
  H   H2062     1.0  0.51412  0.03890  0.90371  1.0000
  H   H2063     1.0  0.71817  0.26241  0.62701  1.0000
  H   H2064     1.0  0.49109  0.11907  0.50505  1.0000
  H   H2065     1.0  0.71792  0.08803  0.91001  1.0000
  C   C1727     1.0  0.69094  0.09133  0.95756  1.0000
  C   C1728     1.0  0.56499  0.00025  0.85847  1.0000
  H   H2066     1.0  0.50763  0.04074  0.85480  1.0000
  H   H2067     1.0  0.58422  0.10193  0.65495  1.0000
  C   C1729     1.0  0.51272  0.05845  0.48311  1.0000
  C   C1730     1.0  0.69565  0.17958  0.76789  1.0000
  H   H2068     1.0  0.51942  0.05093  0.51574  1.0000
  C   C1731     1.0  0.57287  0.06663  0.95679  1.0000
  C   C1732     1.0  0.62507  0.12193  0.49888  1.0000
  C   C1733     1.0  0.58360  0.08967  0.61418  1.0000
  C   C1734     1.0  0.52258  0.32755  0.54929  1.0000
  H   H2069     1.0  0.59969  0.11784  0.63110  1.0000
  H   H2070     1.0  0.68901  0.24554  0.63046  1.0000
  H   H2071     1.0  0.54309  0.03896  0.47385  1.0000
  C   C1735     1.0  0.64734  0.15933  0.51191  1.0000
  H   H2072     1.0  0.49553  0.02654  0.89718  1.0000
  C   C1736     1.0  0.59626  0.06385  0.59745  1.0000
  H   H2073     1.0  0.71000  0.10634  0.91480  1.0000
  C   C1737     1.0  0.57958  0.09161  0.92527  1.0000
  C   C1738     1.0  0.60348  0.07163  0.61369  1.0000
  H   H2074     1.0  0.60882  0.08564  0.67425  1.0000
  H   H2075     1.0  0.60450  0.11289  0.65886  1.0000
  H   H2076     1.0  0.56605  0.08577  0.59165  1.0000
  N   N111      1.0  0.55675  0.24705  0.66544  1.0000
  C   C1739     1.0  0.57433  0.25822  0.65429  1.0000
  C   C1740     1.0  0.55842  0.23138  0.68095  1.0000
  C   C1741     1.0  0.54873  0.24158  0.64675  1.0000
  C   C1742     1.0  0.54585  0.25582  0.67895  1.0000
  C   C1743     1.0  0.55189  0.27312  0.68161  1.0000
  C   C1744     1.0  0.52850  0.24703  0.68984  1.0000
  C   C1745     1.0  0.51768  0.25522  0.70182  1.0000
  H   H2077     1.0  0.61008  0.06955  0.65760  1.0000
  H   H2078     1.0  0.57401  0.27011  0.64196  1.0000
  H   H2079     1.0  0.58146  0.26216  0.66741  1.0000
  H   H2080     1.0  0.58207  0.25124  0.64409  1.0000
  H   H2081     1.0  0.54591  0.22146  0.68823  1.0000
  H   H2082     1.0  0.56373  0.23480  0.69581  1.0000
  H   H2083     1.0  0.56706  0.22476  0.67157  1.0000
  H   H2084     1.0  0.54629  0.25280  0.63544  1.0000
  H   H2085     1.0  0.55693  0.23563  0.63548  1.0000
  H   H2086     1.0  0.53629  0.23150  0.65357  1.0000
  H   H2087     1.0  0.52307  0.23381  0.68883  1.0000
  H   H2088     1.0  0.50428  0.24845  0.70917  1.0000
  N   N112      1.0  0.60553  0.09308  0.63935  1.0000
  C   C1746     1.0  0.62411  0.10102  0.62923  1.0000
  C   C1747     1.0  0.59806  0.10700  0.64627  1.0000
  C   C1748     1.0  0.60345  0.07974  0.66080  1.0000
  C   C1749     1.0  0.59746  0.08488  0.62245  1.0000
  C   C1750     1.0  0.50884  0.02654  0.89867  1.0000
  C   C1751     1.0  0.71804  0.04696  0.96212  1.0000
  S   S465      1.0  0.58828  0.10735  0.47853  1.0000
  H   H2089     1.0  0.72873  0.22489  0.66187  1.0000
  C   C1752     1.0  0.53691  0.02575  0.88002  1.0000
  C   C1753     1.0  0.51247  0.00925  0.86875  1.0000
  C   C1754     1.0  0.51650  0.99836  0.48058  1.0000
  C   C1755     1.0  0.64554  0.16883  0.52911  1.0000
  H   H2090     1.0  0.52591  0.30675  0.60226  1.0000
  H   H2091     1.0  0.61180  0.14373  0.47399  1.0000
  C   C1756     1.0  0.71632  0.25289  0.61652  1.0000
  H   H2092     1.0  0.58439  0.06320  0.94809  1.0000
  C   C1757     1.0  0.68535  0.05225  0.96609  1.0000
  H   H2093     1.0  0.73415  0.21573  0.78323  1.0000
  H   H2094     1.0  0.51178  0.31435  0.52504  1.0000
  H   H2095     1.0  0.54613  0.02664  0.86362  1.0000
  H   H2096     1.0  0.56981  0.08474  0.91704  1.0000
  N   N113      1.0  0.63409  0.14018  0.48692  1.0000
  H   H2097     1.0  0.51297  0.28137  0.58870  1.0000
  S   S466      1.0  0.69890  0.16121  0.96647  1.0000
  C   C1758     1.0  0.53639  0.02550  0.48178  1.0000
  C   C1759     1.0  0.69947  0.06558  0.95150  1.0000
  H   H2098     1.0  0.72756  0.07208  0.94008  1.0000
  H   H2099     1.0  0.50731  0.10645  0.47798  1.0000
  H   H2100     1.0  0.49876  0.02205  0.52647  1.0000
  C   C1760     1.0  0.52709  0.32597  0.57120  1.0000
  H   H2101     1.0  0.70067  0.09423  0.96801  1.0000
  H   H2102     1.0  0.52753  0.04254  0.95654  1.0000
  C   C1761     1.0  0.49016  0.03696  0.47377  1.0000
  N   N114      1.0  0.57476  0.08567  0.95095  1.0000
  H   H2103     1.0  0.55006  0.32790  0.59948  1.0000
  C   C1762     1.0  0.58922  0.09456  0.95994  1.0000
  H   H2104     1.0  0.60164  0.09251  0.95152  1.0000
  H   H2105     1.0  0.71089  0.22164  0.96989  1.0000
  S   S467      1.0  0.70942  0.60442  0.45367  1.0000
  C   C1763     1.0  0.49808  0.62167  0.07943  1.0000
  S   S468      1.0  0.67181  0.58238  0.42893  1.0000
  Fe  Fe235     1.0  0.72309  0.58433  0.46559  1.0000
  H   H2106     1.0  0.50900  0.60433  0.30911  1.0000
  C   C1764     1.0  0.62251  0.46069  0.28917  1.0000
  S   S469      1.0  0.50786  0.62110  0.34901  1.0000
  H   H2107     1.0  0.54715  0.33856  0.15951  1.0000
  H   H2108     1.0  0.50169  0.63232  0.04301  1.0000
  C   C1765     1.0  0.55948  0.57688  0.40534  1.0000
  Fe  Fe236     1.0  0.49621  0.39333  0.45999  1.0000
  S   S470      1.0  0.50779  0.57204  0.38164  1.0000
  C   C1766     1.0  0.55098  0.54985  0.97542  1.0000
  Fe  Fe237     1.0  0.49581  0.59369  0.37002  1.0000
  H   H2109     1.0  0.53491  0.57550  0.42468  1.0000
  C   C1767     1.0  0.50219  0.60538  0.04978  1.0000
  S   S471      1.0  0.51637  0.34905  0.15035  1.0000
  C   C1768     1.0  0.72007  0.58667  0.40338  1.0000
  Fe  Fe238     1.0  0.57712  0.48913  0.00911  1.0000
  S   S472      1.0  0.56898  0.47596  0.04751  1.0000
  Fe  Fe239     1.0  0.60535  0.52041  0.37544  1.0000
  S   S473      1.0  0.61197  0.53521  0.33822  1.0000
  S   S474      1.0  0.62228  0.51939  0.40197  1.0000
  Fe  Fe240     1.0  0.56861  0.50309  0.37263  1.0000
  S   S475      1.0  0.57245  0.51665  0.33530  1.0000
  S   S476      1.0  0.54196  0.48803  0.39379  1.0000
  Fe  Fe241     1.0  0.59797  0.51035  0.33004  1.0000
  S   S477      1.0  0.61106  0.50269  0.29788  1.0000
  Fe  Fe242     1.0  0.58591  0.54022  0.34612  1.0000
  S   S478      1.0  0.58110  0.56649  0.33441  1.0000
  S   S479      1.0  0.59321  0.49496  0.36689  1.0000
  S   S480      1.0  0.58028  0.52728  0.38379  1.0000
  H   H2110     1.0  0.58839  0.61286  0.37038  1.0000
  S   S481      1.0  0.52323  0.40711  0.43950  1.0000
  H   H2111     1.0  0.55033  0.53666  0.31057  1.0000
  Fe  Fe243     1.0  0.62965  0.43981  0.18803  1.0000
  S   S482      1.0  0.62118  0.46440  0.18176  1.0000
  S   S483      1.0  0.65387  0.43821  0.20126  1.0000
  Fe  Fe244     1.0  0.59608  0.41743  0.17940  1.0000
  S   S484      1.0  0.58525  0.44061  0.17295  1.0000
  S   S485      1.0  0.58480  0.38944  0.17600  1.0000
  Fe  Fe245     1.0  0.61178  0.45498  0.15205  1.0000
  S   S486      1.0  0.61863  0.47409  0.11720  1.0000
  Fe  Fe246     1.0  0.59551  0.44826  0.20329  1.0000
  S   S487      1.0  0.57957  0.45819  0.23048  1.0000
  S   S488      1.0  0.62229  0.43154  0.15654  1.0000
  S   S489      1.0  0.60427  0.42388  0.21148  1.0000
  S   S490      1.0  0.72641  0.49507  0.17039  1.0000
  C   C1769     1.0  0.67374  0.45447  0.19298  1.0000
  C   C1770     1.0  0.67704  0.46890  0.17458  1.0000
  C   C1771     1.0  0.69314  0.48129  0.16821  1.0000
  C   C1772     1.0  0.70603  0.47960  0.18034  1.0000
  C   C1773     1.0  0.70251  0.46546  0.19929  1.0000
  C   C1774     1.0  0.68657  0.45282  0.20527  1.0000
  H   H2112     1.0  0.66732  0.47037  0.16495  1.0000
  H   H2113     1.0  0.69568  0.49220  0.15360  1.0000
  H   H2114     1.0  0.71211  0.46417  0.20916  1.0000
  H   H2115     1.0  0.68414  0.44170  0.21954  1.0000
  C   C1775     1.0  0.60139  0.49175  0.27842  1.0000
  C   C1776     1.0  0.58406  0.48259  0.28390  1.0000
  C   C1777     1.0  0.57748  0.47259  0.26889  1.0000
  C   C1778     1.0  0.58818  0.47147  0.24845  1.0000
  C   C1779     1.0  0.60535  0.48109  0.24262  1.0000
  C   C1780     1.0  0.61185  0.49128  0.25742  1.0000
  H   H2116     1.0  0.57582  0.48284  0.29995  1.0000
  H   H2117     1.0  0.56413  0.46535  0.27346  1.0000
  H   H2118     1.0  0.61360  0.48060  0.22676  1.0000
  H   H2119     1.0  0.62514  0.49862  0.25287  1.0000
  C   C1781     1.0  0.53689  0.46545  0.40592  1.0000
  C   C1782     1.0  0.54869  0.45572  0.40146  1.0000
  C   C1783     1.0  0.54428  0.43779  0.41166  1.0000
  C   C1784     1.0  0.52807  0.42948  0.42632  1.0000
  C   C1785     1.0  0.51624  0.43920  0.43068  1.0000
  C   C1786     1.0  0.52067  0.45713  0.42053  1.0000
  H   H2120     1.0  0.56115  0.46196  0.39003  1.0000
  H   H2121     1.0  0.55345  0.43031  0.40820  1.0000
  H   H2122     1.0  0.50375  0.43291  0.44200  1.0000
  H   H2123     1.0  0.51151  0.46460  0.42408  1.0000
  C   C1787     1.0  0.58307  0.47575  0.06650  1.0000
  C   C1788     1.0  0.60017  0.48560  0.05966  1.0000
  C   C1789     1.0  0.61093  0.48506  0.07542  1.0000
  C   C1790     1.0  0.60468  0.47465  0.09804  1.0000
  C   C1791     1.0  0.58749  0.46512  0.10500  1.0000
  C   C1792     1.0  0.57676  0.46561  0.08926  1.0000
  H   H2124     1.0  0.60512  0.49357  0.04222  1.0000
  H   H2125     1.0  0.62418  0.49263  0.06999  1.0000
  H   H2126     1.0  0.58241  0.45758  0.12259  1.0000
  H   H2127     1.0  0.56347  0.45815  0.09472  1.0000
  C   C1793     1.0  0.56508  0.37807  0.17057  1.0000
  C   C1794     1.0  0.56321  0.36093  0.16750  1.0000
  C   C1795     1.0  0.54828  0.35167  0.16193  1.0000
  C   C1796     1.0  0.53500  0.35951  0.15909  1.0000
  C   C1797     1.0  0.53683  0.37663  0.16229  1.0000
  C   C1798     1.0  0.55163  0.38578  0.16823  1.0000
  H   H2128     1.0  0.57344  0.35475  0.16933  1.0000
  H   H2129     1.0  0.55762  0.56291  0.41026  1.0000
  H   H2130     1.0  0.52664  0.38283  0.16025  1.0000
  H   H2131     1.0  0.55264  0.39883  0.17084  1.0000
  S   S491      1.0  0.55632  0.49655  0.99314  1.0000
  C   C1799     1.0  0.52850  0.57127  0.36867  1.0000
  C   C1800     1.0  0.53988  0.58526  0.35189  1.0000
  C   C1801     1.0  0.55602  0.58372  0.34131  1.0000
  C   C1802     1.0  0.56083  0.56825  0.34758  1.0000
  C   C1803     1.0  0.54954  0.55443  0.36463  1.0000
  C   C1804     1.0  0.53353  0.55603  0.37532  1.0000
  H   H2132     1.0  0.53635  0.59727  0.34720  1.0000
  H   H2133     1.0  0.56483  0.59452  0.32833  1.0000
  H   H2134     1.0  0.55314  0.54249  0.36963  1.0000
  H   H2135     1.0  0.52506  0.54535  0.38880  1.0000
  C   C1805     1.0  0.56396  0.61267  0.39103  1.0000
  C   C1806     1.0  0.65793  0.56466  0.42196  1.0000
  C   C1807     1.0  0.64942  0.56811  0.40401  1.0000
  C   C1808     1.0  0.63844  0.55448  0.39771  1.0000
  C   C1809     1.0  0.63590  0.53716  0.40922  1.0000
  C   C1810     1.0  0.64450  0.53371  0.42709  1.0000
  C   C1811     1.0  0.65540  0.54734  0.43347  1.0000
  H   H2136     1.0  0.65127  0.58143  0.39491  1.0000
  H   H2137     1.0  0.63197  0.55738  0.38391  1.0000
  H   H2138     1.0  0.64268  0.52038  0.43611  1.0000
  H   H2139     1.0  0.66181  0.54443  0.44733  1.0000
  H   H2140     1.0  0.48927  0.55525  0.09247  1.0000
  N   N115      1.0  0.53456  0.61089  0.41388  1.0000
  C   C1812     1.0  0.52883  0.61815  0.39319  1.0000
  C   C1813     1.0  0.54104  0.62526  0.42499  1.0000
  H   H2141     1.0  0.53916  0.62859  0.38054  1.0000
  H   H2142     1.0  0.52449  0.60776  0.38403  1.0000
  H   H2143     1.0  0.48606  0.58334  0.29721  1.0000
  H   H2144     1.0  0.58885  0.46526  0.41359  1.0000
  H   H2145     1.0  0.54615  0.62047  0.44010  1.0000
  H   H2146     1.0  0.53076  0.63143  0.43123  1.0000
  N   N116      1.0  0.59318  0.50359  0.15757  1.0000
  C   C1814     1.0  0.58441  0.48470  0.16531  1.0000
  C   C1815     1.0  0.61149  0.50560  0.15822  1.0000
  C   C1816     1.0  0.58547  0.51247  0.17459  1.0000
  C   C1817     1.0  0.59176  0.51143  0.13400  1.0000
  C   C1818     1.0  0.60066  0.52904  0.12325  1.0000
  C   C1819     1.0  0.58153  0.50211  0.12117  1.0000
  C   C1820     1.0  0.59999  0.53655  0.10072  1.0000
  C   C1821     1.0  0.58093  0.50976  0.09867  1.0000
  C   C1822     1.0  0.59026  0.52686  0.08839  1.0000
  H   H2147     1.0  0.58963  0.47736  0.15301  1.0000
  H   H2148     1.0  0.58618  0.47898  0.18271  1.0000
  H   H2149     1.0  0.57031  0.48209  0.16701  1.0000
  H   H2150     1.0  0.61794  0.49978  0.14485  1.0000
  H   H2151     1.0  0.61293  0.49907  0.17542  1.0000
  H   H2152     1.0  0.61885  0.51941  0.15511  1.0000
  H   H2153     1.0  0.57180  0.51156  0.17425  1.0000
  H   H2154     1.0  0.58584  0.50650  0.19265  1.0000
  H   H2155     1.0  0.59230  0.52650  0.17109  1.0000
  H   H2156     1.0  0.60835  0.53709  0.13211  1.0000
  H   H2157     1.0  0.57410  0.48876  0.12786  1.0000
  H   H2158     1.0  0.60719  0.54989  0.09266  1.0000
  H   H2159     1.0  0.57341  0.50225  0.08895  1.0000
  H   H2160     1.0  0.58997  0.53256  0.07077  1.0000
  C   C1823     1.0  0.54648  0.58437  0.41353  1.0000
  H   H2161     1.0  0.58656  0.50079  0.41826  1.0000
  C   C1824     1.0  0.65052  0.47469  0.23224  1.0000
  C   C1825     1.0  0.56684  0.46153  0.45573  1.0000
  H   H2162     1.0  0.51101  0.58656  0.32983  1.0000
  S   S492      1.0  0.59667  0.51443  0.99109  1.0000
  H   H2163     1.0  0.64312  0.48460  0.23096  1.0000
  C   C1826     1.0  0.60537  0.45194  0.29948  1.0000
  C   C1827     1.0  0.53858  0.53663  0.99211  1.0000
  H   H2164     1.0  0.66406  0.48125  0.22288  1.0000
  C   C1828     1.0  0.59034  0.48438  0.45926  1.0000
  H   H2165     1.0  0.71275  0.59129  0.36194  1.0000
  C   C1829     1.0  0.55170  0.43039  0.46658  1.0000
  C   C1830     1.0  0.51700  0.59342  0.27138  1.0000
  N   N117      1.0  0.71725  0.57309  0.38985  1.0000
  C   C1831     1.0  0.51560  0.59379  0.31139  1.0000
  C   C1832     1.0  0.49367  0.57368  0.30047  1.0000
  H   H2166     1.0  0.71292  0.55280  0.42061  1.0000
  S   S493      1.0  0.70115  0.56162  0.46697  1.0000
  C   C1833     1.0  0.49743  0.59117  0.09022  1.0000
  C   C1834     1.0  0.50121  0.55924  0.07852  1.0000
  H   H2167     1.0  0.52252  0.59270  0.44668  1.0000
  H   H2168     1.0  0.72749  0.59963  0.39228  1.0000
  H   H2169     1.0  0.55098  0.41718  0.46460  1.0000
  C   C1835     1.0  0.57452  0.58714  0.38985  1.0000
  C   C1836     1.0  0.51921  0.59869  0.43054  1.0000
  H   H2170     1.0  0.49320  0.60728  0.11457  1.0000
  C   C1837     1.0  0.54834  0.60258  0.40657  1.0000
  C   C1838     1.0  0.65963  0.45365  0.25744  1.0000
  H   H2171     1.0  0.65747  0.47501  0.28599  1.0000
  H   H2172     1.0  0.51249  0.52822  0.01217  1.0000
  H   H2173     1.0  0.71248  0.45044  0.16170  1.0000
  H   H2174     1.0  0.53327  0.65786  0.37537  1.0000
  C   C1839     1.0  0.51774  0.55372  0.98993  1.0000
  C   C1840     1.0  0.64385  0.65413  0.45736  1.0000
  C   C1841     1.0  0.70671  0.55661  0.40622  1.0000
  C   C1842     1.0  0.54687  0.55773  0.28610  1.0000
  C   C1843     1.0  0.51586  0.57593  0.04030  1.0000
  H   H2175     1.0  0.62741  0.44056  0.24389  1.0000
  H   H2176     1.0  0.72271  0.41166  0.19882  1.0000
  H   H2177     1.0  0.67345  0.46006  0.24954  1.0000
  S   S494      1.0  0.50187  0.60622  0.98445  1.0000
  C   C1844     1.0  0.66715  0.63356  0.43992  1.0000
  N   N118      1.0  0.64921  0.46643  0.25683  1.0000
  H   H2178     1.0  0.49994  0.53385  0.37694  1.0000
  C   C1845     1.0  0.68793  0.64710  0.45894  1.0000
  C   C1846     1.0  0.60451  0.43557  0.26974  1.0000
  H   H2179     1.0  0.51797  0.62394  0.39789  1.0000
  C   C1847     1.0  0.53700  0.56944  0.28172  1.0000
  H   H2180     1.0  0.69516  0.65695  0.44281  1.0000
  S   S495      1.0  0.49675  0.64946  0.39806  1.0000
  H   H2181     1.0  0.60529  0.48275  0.41665  1.0000
  H   H2182     1.0  0.51534  0.58544  0.25825  1.0000
  C   C1848     1.0  0.59634  0.43953  0.28967  1.0000
  H   H2183     1.0  0.51516  0.58417  0.02380  1.0000
  H   H2184     1.0  0.58423  0.58112  0.38281  1.0000
  C   C1849     1.0  0.57678  0.60501  0.38277  1.0000
  C   C1850     1.0  0.52203  0.53857  0.99935  1.0000
  H   H2185     1.0  0.70560  0.56870  0.36134  1.0000
  H   H2186     1.0  0.49648  0.63355  0.08439  1.0000
  H   H2187     1.0  0.58288  0.43326  0.29723  1.0000
  N   N119      1.0  0.58163  0.47633  0.44275  1.0000
  C   C1851     1.0  0.49565  0.50644  0.39124  1.0000
  N   N120      1.0  0.51234  0.58226  0.29525  1.0000
  H   H2188     1.0  0.62841  0.47058  0.29733  1.0000
  C   C1852     1.0  0.52225  0.56915  0.29845  1.0000
  H   H2189     1.0  0.52228  0.50922  0.97126  1.0000
  H   H2190     1.0  0.56872  0.48409  0.41628  1.0000
  H   H2191     1.0  0.55835  0.55843  0.27345  1.0000
  H   H2192     1.0  0.70419  0.54577  0.39713  1.0000
  H   H2193     1.0  0.49080  0.56409  0.28959  1.0000
  C   C1853     1.0  0.49594  0.35952  0.98561  1.0000
  H   H2194     1.0  0.51700  0.56338  0.03581  1.0000
  N   N121      1.0  0.50067  0.57341  0.05941  1.0000
  S   S496      1.0  0.58446  0.47464  0.98192  1.0000
  H   H2195     1.0  0.49534  0.58011  0.10437  1.0000
  C   C1854     1.0  0.53019  0.56712  0.97354  1.0000
  H   H2196     1.0  0.73006  0.44026  0.20074  1.0000
  C   C1855     1.0  0.65695  0.48037  0.26784  1.0000
  C   C1856     1.0  0.50048  0.59000  0.06658  1.0000
  H   H2197     1.0  0.70773  0.58832  0.41251  1.0000
  H   H2198     1.0  0.54174  0.52492  0.99950  1.0000
  H   H2199     1.0  0.72733  0.58324  0.41671  1.0000
  H   H2200     1.0  0.54143  0.57884  0.26534  1.0000
  S   S497      1.0  0.48792  0.62365  0.29342  1.0000
  H   H2201     1.0  0.56690  0.49549  0.43908  1.0000
  H   H2202     1.0  0.48845  0.56676  0.31894  1.0000
  C   C1857     1.0  0.62167  0.44415  0.25933  1.0000
  N   N122      1.0  0.66927  0.64190  0.45971  1.0000
  Fe  Fe247     1.0  0.57630  0.52061  0.97292  1.0000
  H   H2203     1.0  0.64960  0.49040  0.26803  1.0000
  H   H2204     1.0  0.59884  0.45537  0.31463  1.0000
  C   C1858     1.0  0.51810  0.55644  0.31963  1.0000
  H   H2205     1.0  0.52475  0.53528  0.34011  1.0000
  H   H2206     1.0  0.52955  0.60011  0.30849  1.0000
  H   H2207     1.0  0.50763  0.55596  0.33368  1.0000
  C   C1859     1.0  0.57565  0.48970  0.42859  1.0000
  C   C1860     1.0  0.70700  0.57796  0.37297  1.0000
  H   H2208     1.0  0.55141  0.63601  0.41287  1.0000
  H   H2209     1.0  0.56619  0.62654  0.38464  1.0000
  H   H2210     1.0  0.59734  0.42606  0.26202  1.0000
  N   N123      1.0  0.58586  0.41182  0.10333  1.0000
  C   C1861     1.0  0.57005  0.39788  0.10524  1.0000
  C   C1862     1.0  0.59946  0.40310  0.10775  1.0000
  C   C1863     1.0  0.58239  0.42134  0.12173  1.0000
  C   C1864     1.0  0.59145  0.42446  0.08060  1.0000
  C   C1865     1.0  0.58057  0.42579  0.06479  1.0000
  C   C1866     1.0  0.60773  0.43682  0.07443  1.0000
  C   C1867     1.0  0.58597  0.43835  0.04386  1.0000
  C   C1868     1.0  0.61306  0.44918  0.05334  1.0000
  C   C1869     1.0  0.60221  0.44992  0.03807  1.0000
  H   H2211     1.0  0.55855  0.40302  0.10559  1.0000
  H   H2212     1.0  0.57150  0.39106  0.09078  1.0000
  H   H2213     1.0  0.56692  0.38774  0.12164  1.0000
  H   H2214     1.0  0.60363  0.39712  0.09318  1.0000
  H   H2215     1.0  0.59497  0.39261  0.12400  1.0000
  H   H2216     1.0  0.61091  0.41212  0.11047  1.0000
  H   H2217     1.0  0.57189  0.42765  0.11951  1.0000
  H   H2218     1.0  0.57851  0.41253  0.13923  1.0000
  H   H2219     1.0  0.59393  0.43165  0.12171  1.0000
  H   H2220     1.0  0.56765  0.41761  0.06843  1.0000
  H   H2221     1.0  0.61624  0.43752  0.08620  1.0000
  H   H2222     1.0  0.57729  0.43960  0.03240  1.0000
  H   H2223     1.0  0.62537  0.45875  0.04925  1.0000
  H   H2224     1.0  0.60610  0.45997  0.02216  1.0000
  C   C1870     1.0  0.73411  0.57187  0.37759  1.0000
  H   H2225     1.0  0.65847  0.44664  0.27556  1.0000
  H   H2226     1.0  0.52794  0.58199  0.04500  1.0000
  H   H2227     1.0  0.53040  0.60179  0.26701  1.0000
  Fe  Fe248     1.0  0.49092  0.62888  0.37693  1.0000
  C   C1871     1.0  0.66131  0.65668  0.45862  1.0000
  H   H2228     1.0  0.69383  0.57791  0.38188  1.0000
  C   C1872     1.0  0.59461  0.47126  0.42666  1.0000
  Fe  Fe249     1.0  0.68682  0.58134  0.45753  1.0000
  C   C1873     1.0  0.50107  0.62096  0.05615  1.0000
  H   H2229     1.0  0.50878  0.60262  0.26942  1.0000
  H   H2230     1.0  0.57598  0.44039  0.44357  1.0000
  C   C1874     1.0  0.71641  0.43804  0.16429  1.0000
  H   H2231     1.0  0.69359  0.63578  0.45968  1.0000
  H   H2232     1.0  0.64561  0.46517  0.22223  1.0000
  H   H2233     1.0  0.51245  0.56325  0.08615  1.0000
  H   H2234     1.0  0.50267  0.36872  0.99403  1.0000
  H   H2235     1.0  0.50366  0.60535  0.03164  1.0000
  H   H2236     1.0  0.65556  0.44365  0.24756  1.0000
  H   H2237     1.0  0.51296  0.58816  0.42269  1.0000
  H   H2238     1.0  0.50920  0.60544  0.43579  1.0000
  C   C1875     1.0  0.73232  0.41054  0.18476  1.0000
  C   C1876     1.0  0.49629  0.60682  0.09641  1.0000
  C   C1877     1.0  0.63113  0.45726  0.26846  1.0000
  H   H2239     1.0  0.50887  0.50641  0.38478  1.0000
  C   C1878     1.0  0.52792  0.54464  0.32364  1.0000
  H   H2240     1.0  0.60179  0.49537  0.44995  1.0000
  C   C1879     1.0  0.54237  0.54539  0.30701  1.0000
  H   H2241     1.0  0.67036  0.48734  0.25831  1.0000
  H   H2242     1.0  0.48841  0.47954  0.40674  1.0000
  S   S498      1.0  0.49673  0.55540  0.99902  1.0000
  H   H2243     1.0  0.60064  0.46209  0.43614  1.0000
  H   H2244     1.0  0.70819  0.42980  0.18108  1.0000
  H   H2245     1.0  0.69396  0.55790  0.41470  1.0000
  H   H2246     1.0  0.67387  0.62301  0.43963  1.0000
  H   H2247     1.0  0.71306  0.43148  0.15032  1.0000
  H   H2248     1.0  0.50226  0.54724  0.07231  1.0000
  H   H2249     1.0  0.48605  0.63020  0.24552  1.0000
  H   H2250     1.0  0.65354  0.62720  0.44067  1.0000
  C   C1880     1.0  0.56601  0.44398  0.45439  1.0000
  Fe  Fe250     1.0  0.48958  0.57908  0.98189  1.0000
  H   H2251     1.0  0.67241  0.64326  0.42307  1.0000
  C   C1881     1.0  0.51585  0.65989  0.40538  1.0000
  C   C1882     1.0  0.49073  0.52190  0.38692  1.0000
  H   H2252     1.0  0.63611  0.64150  0.45708  1.0000
  H   H2253     1.0  0.48976  0.36266  0.37457  1.0000
  H   H2254     1.0  0.73152  0.38456  0.20226  1.0000
  C   C1883     1.0  0.48558  0.34374  0.00002  1.0000
  C   C1884     1.0  0.53211  0.66240  0.39129  1.0000
  H   H2255     1.0  0.73353  0.54595  0.39711  1.0000
  N   N124      1.0  0.73498  0.44117  0.16382  1.0000
  Fe  Fe251     1.0  0.69224  0.56301  0.50398  1.0000
  S   S499      1.0  0.67596  0.58089  0.49471  1.0000
  S   S500      1.0  0.68365  0.53747  0.53095  1.0000
  H   H2256     1.0  0.52984  0.38778  0.91586  1.0000
  S   S501      1.0  0.71408  0.58193  0.82497  1.0000
  Fe  Fe252     1.0  0.70976  0.57490  0.86381  1.0000
  S   S502      1.0  0.68213  0.57135  0.88240  1.0000
  Fe  Fe253     1.0  0.60279  0.50063  0.96254  1.0000
  H   H2257     1.0  0.55249  0.47736  0.47259  1.0000
  S   S503      1.0  0.52196  0.63166  0.91793  1.0000
  H   H2258     1.0  0.51581  0.47389  0.89071  1.0000
  H   H2259     1.0  0.54497  0.36923  0.56964  1.0000
  C   C1885     1.0  0.73477  0.57288  0.73937  1.0000
  Fe  Fe254     1.0  0.69171  0.50854  0.65844  1.0000
  S   S504      1.0  0.66967  0.50292  0.68882  1.0000
  S   S505      1.0  0.69674  0.53419  0.63249  1.0000
  Fe  Fe255     1.0  0.70282  0.47694  0.67890  1.0000
  S   S506      1.0  0.68133  0.46915  0.71124  1.0000
  Fe  Fe256     1.0  0.66453  0.47482  0.68649  1.0000
  S   S507      1.0  0.63589  0.46140  0.69124  1.0000
  Fe  Fe257     1.0  0.68808  0.49792  0.71111  1.0000
  S   S508      1.0  0.68491  0.51166  0.74130  1.0000
  S   S509      1.0  0.68552  0.48097  0.65422  1.0000
  S   S510      1.0  0.71061  0.50513  0.68055  1.0000
  S   S511      1.0  0.54183  0.46911  0.95385  1.0000
  H   H2260     1.0  0.70978  0.54158  0.67644  1.0000
  S   S512      1.0  0.63037  0.50166  0.94655  1.0000
  Fe  Fe258     1.0  0.50058  0.61382  0.94716  1.0000
  C   C1886     1.0  0.52372  0.34208  0.60116  1.0000
  H   H2261     1.0  0.73489  0.65953  0.77129  1.0000
  C   C1887     1.0  0.66076  0.62877  0.48164  1.0000
  S   S513      1.0  0.58390  0.50873  0.94290  1.0000
  H   H2262     1.0  0.50497  0.40128  0.92158  1.0000
  Fe  Fe259     1.0  0.51263  0.41110  0.87058  1.0000
  C   C1888     1.0  0.68599  0.62089  0.87966  1.0000
  S   S514      1.0  0.53720  0.41981  0.88250  1.0000
  S   S515      1.0  0.50833  0.37502  0.81196  1.0000
  H   H2263     1.0  0.72629  0.58098  0.66557  1.0000
  Fe  Fe260     1.0  0.54266  0.35142  0.65538  1.0000
  S   S516      1.0  0.52041  0.36303  0.65321  1.0000
  Fe  Fe261     1.0  0.56764  0.38701  0.65395  1.0000
  S   S517      1.0  0.54728  0.40108  0.65063  1.0000
  S   S518      1.0  0.59613  0.39961  0.65130  1.0000
  Fe  Fe262     1.0  0.52996  0.37841  0.67839  1.0000
  S   S519      1.0  0.51105  0.38657  0.70378  1.0000
  Fe  Fe263     1.0  0.53919  0.38475  0.62589  1.0000
  S   S520      1.0  0.53428  0.39692  0.59142  1.0000
  S   S521      1.0  0.55078  0.36492  0.68318  1.0000
  S   S522      1.0  0.56106  0.37254  0.62657  1.0000
  H   H2264     1.0  0.49058  0.38097  0.92273  1.0000
  H   H2265     1.0  0.66639  0.61742  0.48323  1.0000
  C   C1889     1.0  0.51729  0.38782  0.57916  1.0000
  C   C1890     1.0  0.50343  0.37400  0.59205  1.0000
  H   H2266     1.0  0.52874  0.36792  0.93572  1.0000
  C   C1891     1.0  0.48929  0.66234  0.87620  1.0000
  C   C1892     1.0  0.50487  0.38729  0.54513  1.0000
  C   C1893     1.0  0.51789  0.39450  0.55572  1.0000
  H   H2267     1.0  0.50264  0.36892  0.61020  1.0000
  H   H2268     1.0  0.54908  0.52557  0.94109  1.0000
  H   H2269     1.0  0.50546  0.39254  0.52707  1.0000
  H   H2270     1.0  0.52854  0.40523  0.54562  1.0000
  C   C1894     1.0  0.50884  0.37847  0.78196  1.0000
  C   C1895     1.0  0.51806  0.36963  0.76844  1.0000
  C   C1896     1.0  0.51922  0.37232  0.74438  1.0000
  C   C1897     1.0  0.51083  0.38361  0.73371  1.0000
  C   C1898     1.0  0.50161  0.39246  0.74722  1.0000
  C   C1899     1.0  0.50074  0.39004  0.77123  1.0000
  H   H2271     1.0  0.52431  0.36059  0.77664  1.0000
  H   H2272     1.0  0.52626  0.36534  0.73419  1.0000
  N   N125      1.0  0.52398  0.51615  0.93443  1.0000
  H   H2273     1.0  0.66793  0.53692  0.85938  1.0000
  C   C1900     1.0  0.54114  0.45555  0.93383  1.0000
  C   C1901     1.0  0.52536  0.44908  0.92835  1.0000
  C   C1902     1.0  0.52409  0.43845  0.91229  1.0000
  C   C1903     1.0  0.53854  0.43386  0.90191  1.0000
  C   C1904     1.0  0.55430  0.44016  0.90757  1.0000
  C   C1905     1.0  0.55565  0.45109  0.92335  1.0000
  H   H2274     1.0  0.51407  0.45243  0.93646  1.0000
  H   H2275     1.0  0.51192  0.43381  0.90803  1.0000
  H   H2276     1.0  0.56555  0.43665  0.89964  1.0000
  H   H2277     1.0  0.56786  0.45598  0.92750  1.0000
  C   C1906     1.0  0.62519  0.44454  0.67928  1.0000
  C   C1907     1.0  0.63400  0.43502  0.66665  1.0000
  C   C1908     1.0  0.62489  0.42150  0.65806  1.0000
  C   C1909     1.0  0.60687  0.41730  0.66185  1.0000
  C   C1910     1.0  0.59809  0.42711  0.67401  1.0000
  C   C1911     1.0  0.60720  0.44061  0.68267  1.0000
  H   H2278     1.0  0.64781  0.43784  0.66385  1.0000
  H   H2279     1.0  0.63184  0.41404  0.64864  1.0000
  H   H2280     1.0  0.58425  0.42407  0.67713  1.0000
  H   H2281     1.0  0.60019  0.44782  0.69246  1.0000
  H   H2282     1.0  0.72010  0.55067  0.52743  1.0000
  C   C1912     1.0  0.52069  0.53325  0.93623  1.0000
  H   H2283     1.0  0.49148  0.42341  0.66462  1.0000
  H   H2284     1.0  0.66228  0.63445  0.49699  1.0000
  C   C1913     1.0  0.72624  0.52637  0.76954  1.0000
  C   C1914     1.0  0.48764  0.34995  0.95233  1.0000
  H   H2285     1.0  0.56049  0.33769  0.56961  1.0000
  C   C1915     1.0  0.72062  0.65186  0.50188  1.0000
  H   H2286     1.0  0.52575  0.54297  0.91937  1.0000
  N   N126      1.0  0.70861  0.56221  0.69457  1.0000
  C   C1916     1.0  0.66817  0.55217  0.90136  1.0000
  C   C1917     1.0  0.67411  0.53809  0.91039  1.0000
  C   C1918     1.0  0.66242  0.52283  0.92472  1.0000
  C   C1919     1.0  0.64475  0.52153  0.93011  1.0000
  C   C1920     1.0  0.63888  0.53577  0.92149  1.0000
  C   C1921     1.0  0.65056  0.55102  0.90718  1.0000
  H   H2287     1.0  0.68768  0.53896  0.90641  1.0000
  H   H2288     1.0  0.66703  0.51193  0.93163  1.0000
  H   H2289     1.0  0.62532  0.53494  0.92563  1.0000
  H   H2290     1.0  0.64586  0.56189  0.90043  1.0000
  C   C1922     1.0  0.72119  0.53762  0.78315  1.0000
  C   C1923     1.0  0.70538  0.54133  0.78287  1.0000
  C   C1924     1.0  0.69463  0.53350  0.76964  1.0000
  C   C1925     1.0  0.69958  0.52205  0.75630  1.0000
  C   C1926     1.0  0.71558  0.51871  0.75608  1.0000
  C   C1927     1.0  0.51283  0.48562  0.89467  1.0000
  H   H2291     1.0  0.68229  0.53619  0.76997  1.0000
  H   H2292     1.0  0.71957  0.50988  0.74603  1.0000
  H   H2293     1.0  0.70378  0.52200  0.82938  1.0000
  H   H2294     1.0  0.68142  0.64710  0.53594  1.0000
  H   H2295     1.0  0.67585  0.62524  0.89014  1.0000
  C   C1928     1.0  0.69331  0.53485  0.60420  1.0000
  C   C1929     1.0  0.69563  0.55105  0.58923  1.0000
  C   C1930     1.0  0.69296  0.55203  0.56661  1.0000
  C   C1931     1.0  0.68781  0.53678  0.55890  1.0000
  C   C1932     1.0  0.68570  0.52059  0.57377  1.0000
  C   C1933     1.0  0.68859  0.51963  0.59628  1.0000
  H   H2296     1.0  0.69939  0.56290  0.59518  1.0000
  H   H2297     1.0  0.69455  0.56458  0.55535  1.0000
  H   H2298     1.0  0.68183  0.50875  0.56785  1.0000
  H   H2299     1.0  0.68726  0.50715  0.60745  1.0000
  C   C1934     1.0  0.70351  0.64396  0.51336  1.0000
  H   H2300     1.0  0.52700  0.57888  0.96625  1.0000
  C   C1935     1.0  0.71605  0.57064  0.71177  1.0000
  S   S523      1.0  0.72163  0.46144  0.66799  1.0000
  H   H2301     1.0  0.70498  0.51880  0.85891  1.0000
  H   H2302     1.0  0.66837  0.49305  0.78922  1.0000
  H   H2303     1.0  0.49031  0.63223  0.90534  1.0000
  H   H2304     1.0  0.61411  0.43022  0.73622  1.0000
  H   H2305     1.0  0.50256  0.50178  0.96255  1.0000
  C   C1936     1.0  0.48890  0.41230  0.60179  1.0000
  N   N127      1.0  0.48783  0.40388  0.64448  1.0000
  H   H2306     1.0  0.68404  0.60682  0.88754  1.0000
  C   C1937     1.0  0.69867  0.61704  0.84260  1.0000
  C   C1938     1.0  0.69467  0.65304  0.52704  1.0000
  H   H2307     1.0  0.71367  0.60441  0.73881  1.0000
  H   H2308     1.0  0.72210  0.53150  0.51762  1.0000
  C   C1939     1.0  0.53882  0.35806  0.56276  1.0000
  C   C1940     1.0  0.72953  0.58712  0.74504  1.0000
  H   H2309     1.0  0.66568  0.59932  0.86282  1.0000
  H   H2310     1.0  0.65766  0.61835  0.86166  1.0000
  H   H2311     1.0  0.50607  0.65274  0.94465  1.0000
  H   H2312     1.0  0.52465  0.33999  0.53757  1.0000
  Fe  Fe264     1.0  0.49850  0.39091  0.83634  1.0000
  H   H2313     1.0  0.49362  0.39693  0.78146  1.0000
  H   H2314     1.0  0.68328  0.56597  0.70474  1.0000
  C   C1941     1.0  0.51671  0.50406  0.95749  1.0000
  H   H2315     1.0  0.71159  0.62433  0.84356  1.0000
  H   H2316     1.0  0.52682  0.36075  0.55876  1.0000
  H   H2317     1.0  0.60828  0.40727  0.71440  1.0000
  H   H2318     1.0  0.70738  0.56891  0.65860  1.0000
  H   H2319     1.0  0.52593  0.40399  0.94444  1.0000
  S   S524      1.0  0.50182  0.38268  0.87268  1.0000
  H   H2320     1.0  0.56568  0.63565  0.92667  1.0000
  H   H2321     1.0  0.54774  0.35845  0.54630  1.0000
  C   C1942     1.0  0.52229  0.65385  0.91178  1.0000
  H   H2322     1.0  0.68380  0.54783  0.69166  1.0000
  C   C1943     1.0  0.66818  0.61321  0.85360  1.0000
  S   S525      1.0  0.57150  0.54734  0.96483  1.0000
  C   C1944     1.0  0.51639  0.50854  0.91673  1.0000
  C   C1945     1.0  0.73525  0.53219  0.58506  1.0000
  C   C1946     1.0  0.54289  0.51882  0.92891  1.0000
  H   H2323     1.0  0.48996  0.51409  0.87919  1.0000
  H   H2324     1.0  0.52875  0.35410  0.60710  1.0000
  H   H2325     1.0  0.50680  0.53212  0.94248  1.0000
  C   C1947     1.0  0.71224  0.57507  0.67219  1.0000
  S   S526      1.0  0.69222  0.62320  0.51049  1.0000
  H   H2326     1.0  0.66719  0.61300  0.83548  1.0000
  H   H2327     1.0  0.51475  0.36824  0.91595  1.0000
  H   H2328     1.0  0.68654  0.54658  0.72078  1.0000
  H   H2329     1.0  0.50773  0.39163  0.63467  1.0000
  S   S527      1.0  0.71494  0.58450  0.50346  1.0000
  H   H2330     1.0  0.68741  0.50282  0.81333  1.0000
  H   H2331     1.0  0.52794  0.48669  0.91981  1.0000
  H   H2332     1.0  0.69876  0.61800  0.82393  1.0000
  H   H2333     1.0  0.64682  0.62353  0.48310  1.0000
  C   C1948     1.0  0.71771  0.59331  0.73430  1.0000
  H   H2334     1.0  0.70607  0.58585  0.67362  1.0000
  H   H2335     1.0  0.64526  0.51480  0.85693  1.0000
  H   H2336     1.0  0.69711  0.60313  0.85038  1.0000
  C   C1949     1.0  0.52089  0.37566  0.92751  1.0000
  H   H2337     1.0  0.68484  0.63736  0.80970  1.0000
  H   H2338     1.0  0.65928  0.50822  0.88504  1.0000
  H   H2339     1.0  0.52651  0.42321  0.48885  1.0000
  C   C1950     1.0  0.68759  0.64226  0.84359  1.0000
  H   H2340     1.0  0.63812  0.49395  0.79782  1.0000
  H   H2341     1.0  0.48774  0.35180  0.93404  1.0000
  C   C1951     1.0  0.49731  0.36308  0.96121  1.0000
  H   H2342     1.0  0.59475  0.47469  0.47061  1.0000
  Fe  Fe265     1.0  0.56508  0.48395  0.96447  1.0000
  H   H2343     1.0  0.54665  0.50636  0.93045  1.0000
  H   H2344     1.0  0.51068  0.34198  0.59840  1.0000
  H   H2345     1.0  0.49505  0.40120  0.73912  1.0000
  C   C1952     1.0  0.51980  0.49311  0.91126  1.0000
  Fe  Fe266     1.0  0.69945  0.60269  0.49179  1.0000
  C   C1953     1.0  0.53836  0.45075  0.48232  1.0000
  H   H2346     1.0  0.73106  0.41405  0.71618  1.0000
  C   C1954     1.0  0.68691  0.64702  0.81994  1.0000
  H   H2347     1.0  0.71234  0.53671  0.70549  1.0000
  H   H2348     1.0  0.48950  0.66110  0.89435  1.0000
  H   H2349     1.0  0.54883  0.52681  0.91103  1.0000
  H   H2350     1.0  0.52228  0.33099  0.61583  1.0000
  S   S528      1.0  0.73062  0.59779  0.86565  1.0000
  H   H2351     1.0  0.72983  0.55206  0.56162  1.0000
  S   S529      1.0  0.73490  0.54630  0.80051  1.0000
  C   C1955     1.0  0.55174  0.33927  0.58502  1.0000
  S   S530      1.0  0.72660  0.55655  0.86332  1.0000
  H   H2352     1.0  0.72758  0.64513  0.49121  1.0000
  H   H2353     1.0  0.70179  0.59042  0.71023  1.0000
  H   H2354     1.0  0.50164  0.52740  0.90800  1.0000
  C   C1956     1.0  0.71103  0.58523  0.71793  1.0000
  H   H2355     1.0  0.68535  0.54246  0.83429  1.0000
  H   H2356     1.0  0.49422  0.43198  0.63431  1.0000
  H   H2357     1.0  0.68935  0.54002  0.86285  1.0000
  H   H2358     1.0  0.69879  0.62772  0.88178  1.0000
  H   H2359     1.0  0.62673  0.50478  0.83182  1.0000
  H   H2360     1.0  0.72748  0.39202  0.71385  1.0000
  H   H2361     1.0  0.69710  0.50026  0.84768  1.0000
  H   H2362     1.0  0.73247  0.55340  0.72009  1.0000
  Fe  Fe267     1.0  0.73237  0.56527  0.82433  1.0000
  C   C1957     1.0  0.59213  0.64697  0.92614  1.0000
  N   N128      1.0  0.63451  0.48932  0.62530  1.0000
  C   C1958     1.0  0.62340  0.49001  0.64731  1.0000
  C   C1959     1.0  0.62534  0.47443  0.61697  1.0000
  C   C1960     1.0  0.65056  0.48565  0.63010  1.0000
  C   C1961     1.0  0.63885  0.50630  0.60850  1.0000
  C   C1962     1.0  0.63655  0.50786  0.58541  1.0000
  C   C1963     1.0  0.64626  0.52190  0.61484  1.0000
  C   C1964     1.0  0.64125  0.52411  0.56986  1.0000
  C   C1965     1.0  0.65073  0.53807  0.59923  1.0000
  C   C1966     1.0  0.64823  0.53917  0.57678  1.0000
  H   H2363     1.0  0.61214  0.49474  0.64404  1.0000
  H   H2364     1.0  0.61841  0.47700  0.65946  1.0000
  H   H2365     1.0  0.63036  0.49852  0.65710  1.0000
  H   H2366     1.0  0.63347  0.47218  0.60149  1.0000
  H   H2367     1.0  0.61318  0.47646  0.61277  1.0000
  H   H2368     1.0  0.62186  0.46197  0.63036  1.0000
  H   H2369     1.0  0.65748  0.49548  0.63833  1.0000
  H   H2370     1.0  0.64806  0.47274  0.64210  1.0000
  H   H2371     1.0  0.65948  0.48560  0.61385  1.0000
  H   H2372     1.0  0.63149  0.49674  0.57874  1.0000
  H   H2373     1.0  0.64915  0.52167  0.63172  1.0000
  H   H2374     1.0  0.64001  0.52504  0.55206  1.0000
  H   H2375     1.0  0.65679  0.54975  0.60426  1.0000
  H   H2376     1.0  0.65237  0.55164  0.56440  1.0000
  C   C1967     1.0  0.51352  0.66097  0.92812  1.0000
  H   H2377     1.0  0.59423  0.63470  0.93396  1.0000
  C   C1968     1.0  0.50215  0.49319  0.88310  1.0000
  C   C1969     1.0  0.59818  0.40831  0.72799  1.0000
  C   C1970     1.0  0.68976  0.55543  0.70327  1.0000
  H   H2378     1.0  0.53843  0.65913  0.87753  1.0000
  H   H2379     1.0  0.52709  0.53888  0.94896  1.0000
  C   C1971     1.0  0.51784  0.39182  0.95705  1.0000
  H   H2380     1.0  0.55634  0.57550  0.95350  1.0000
  N   N129      1.0  0.68515  0.62376  0.85483  1.0000
  H   H2381     1.0  0.70139  0.55013  0.79293  1.0000
  S   S531      1.0  0.51145  0.41902  0.83336  1.0000
  N   N130      1.0  0.55755  0.41236  0.78160  1.0000
  C   C1972     1.0  0.55136  0.39555  0.79904  1.0000
  C   C1973     1.0  0.56261  0.42625  0.79415  1.0000
  C   C1974     1.0  0.54314  0.41581  0.77141  1.0000
  C   C1975     1.0  0.57162  0.41136  0.76311  1.0000
  C   C1976     1.0  0.58841  0.42279  0.75775  1.0000
  C   C1977     1.0  0.56872  0.39853  0.74985  1.0000
  C   C1978     1.0  0.60143  0.42121  0.74040  1.0000
  C   C1979     1.0  0.58182  0.39711  0.73252  1.0000
  C   C1980     1.0  0.72846  0.54558  0.51527  1.0000
  H   H2382     1.0  0.56200  0.39199  0.80621  1.0000
  H   H2383     1.0  0.54129  0.39599  0.81388  1.0000
  H   H2384     1.0  0.54539  0.38463  0.79173  1.0000
  H   H2385     1.0  0.57302  0.42415  0.80301  1.0000
  H   H2386     1.0  0.55168  0.42652  0.80796  1.0000
  H   H2387     1.0  0.56685  0.43941  0.78227  1.0000
  H   H2388     1.0  0.53202  0.41598  0.78496  1.0000
  H   H2389     1.0  0.54716  0.42851  0.75853  1.0000
  H   H2390     1.0  0.53812  0.40570  0.76226  1.0000
  H   H2391     1.0  0.59185  0.43310  0.76659  1.0000
  H   H2392     1.0  0.55625  0.38949  0.75272  1.0000
  H   H2393     1.0  0.57927  0.38740  0.72234  1.0000
  N   N131      1.0  0.67926  0.51587  0.85339  1.0000
  C   C1981     1.0  0.67170  0.50579  0.87763  1.0000
  C   C1982     1.0  0.69700  0.51407  0.84702  1.0000
  C   C1983     1.0  0.68048  0.53457  0.85242  1.0000
  C   C1984     1.0  0.66820  0.50966  0.83803  1.0000
  C   C1985     1.0  0.67427  0.50330  0.81843  1.0000
  C   C1986     1.0  0.65074  0.51004  0.84241  1.0000
  C   C1987     1.0  0.66342  0.49764  0.80428  1.0000
  C   C1988     1.0  0.64002  0.50436  0.82811  1.0000
  C   C1989     1.0  0.64637  0.49820  0.80905  1.0000
  H   H2394     1.0  0.66933  0.49153  0.87874  1.0000
  H   H2395     1.0  0.68026  0.50924  0.88944  1.0000
  C   C1990     1.0  0.53783  0.43377  0.48026  1.0000
  H   H2396     1.0  0.72845  0.55233  0.49744  1.0000
  H   H2397     1.0  0.73457  0.59327  0.75792  1.0000
  H   H2398     1.0  0.52671  0.38598  0.96585  1.0000
  H   H2399     1.0  0.50030  0.42276  0.59942  1.0000
  N   N132      1.0  0.50818  0.37956  0.94530  1.0000
  C   C1991     1.0  0.71546  0.54741  0.68969  1.0000
  C   C1992     1.0  0.49043  0.36676  0.58147  1.0000
  C   C1993     1.0  0.72813  0.56464  0.72311  1.0000
  C   C1994     1.0  0.49727  0.38871  0.93349  1.0000
  C   C1995     1.0  0.50520  0.51580  0.90486  1.0000
  H   H2400     1.0  0.51140  0.40434  0.65584  1.0000
  C   C1996     1.0  0.54679  0.56520  0.96638  1.0000
  C   C1997     1.0  0.69091  0.65600  0.85537  1.0000
  C   C1998     1.0  0.60546  0.66221  0.92006  1.0000
  H   H2401     1.0  0.69207  0.65381  0.87316  1.0000
  S   S532      1.0  0.49061  0.58633  0.94381  1.0000
  H   H2402     1.0  0.73030  0.39744  0.74090  1.0000
  H   H2403     1.0  0.49447  0.62241  0.88133  1.0000
  N   N133      1.0  0.53521  0.34116  0.57968  1.0000
  C   C1999     1.0  0.57609  0.64750  0.92207  1.0000
  C   C2000     1.0  0.49106  0.37339  0.55799  1.0000
  H   H2404     1.0  0.51942  0.49115  0.95787  1.0000
  C   C2001     1.0  0.49829  0.50821  0.88825  1.0000
  H   H2405     1.0  0.72959  0.55156  0.68277  1.0000
  H   H2406     1.0  0.49689  0.48740  0.87009  1.0000
  H   H2407     1.0  0.72839  0.53534  0.60021  1.0000
  H   H2408     1.0  0.51453  0.41482  0.62619  1.0000
  H   H2409     1.0  0.69049  0.65242  0.47419  1.0000
  H   H2410     1.0  0.61796  0.66172  0.92316  1.0000
  H   H2411     1.0  0.52747  0.45333  0.49284  1.0000
  S   S533      1.0  0.48718  0.41524  0.88479  1.0000
  C   C2002     1.0  0.50612  0.40369  0.64010  1.0000
  C   C2003     1.0  0.73484  0.40180  0.72169  1.0000
  S   S534      1.0  0.49073  0.36575  0.48013  1.0000
  H   H2412     1.0  0.55847  0.35080  0.59068  1.0000
  H   H2413     1.0  0.48717  0.39145  0.94621  1.0000
  H   H2414     1.0  0.48928  0.41831  0.56526  1.0000
  C   C2004     1.0  0.55270  0.46443  0.47045  1.0000
  H   H2415     1.0  0.58180  0.48988  0.47063  1.0000
  C   C2005     1.0  0.48658  0.42103  0.64902  1.0000
  C   C2006     1.0  0.73548  0.66256  0.78798  1.0000
  H   H2416     1.0  0.50907  0.39604  0.96991  1.0000
  Fe  Fe268     1.0  0.59238  0.88136  0.32188  1.0000
  S   S535      1.0  0.56443  0.88088  0.32558  1.0000
  S   S536      1.0  0.61052  0.90887  0.30658  1.0000
  Fe  Fe269     1.0  0.58290  0.84200  0.34265  1.0000
  S   S537      1.0  0.55456  0.83898  0.34794  1.0000
  S   S538      1.0  0.59375  0.81893  0.35265  1.0000
  Fe  Fe270     1.0  0.56083  0.85622  0.31215  1.0000
  S   S539      1.0  0.54188  0.85349  0.28829  1.0000
  Fe  Fe271     1.0  0.56022  0.86371  0.36061  1.0000
  S   S540      1.0  0.54341  0.86533  0.39387  1.0000
  S   S541      1.0  0.58915  0.85794  0.30566  1.0000
  S   S542      1.0  0.58819  0.86546  0.35815  1.0000
  Fe  Fe272     1.0  0.60782  0.88068  0.98445  1.0000
  S   S543      1.0  0.58179  0.87893  0.00561  1.0000
  S   S544      1.0  0.63119  0.90340  0.98246  1.0000
  Fe  Fe273     1.0  0.57737  0.84982  0.01218  1.0000
  S   S545      1.0  0.56876  0.82971  0.04647  1.0000
  S   S546      1.0  0.60410  0.85160  0.99296  1.0000
  Fe  Fe274     1.0  0.70154  0.97765  0.29916  1.0000
  S   S547      1.0  0.72309  0.97702  0.27046  1.0000
  S   S548      1.0  0.68286  0.95136  0.31931  1.0000
  H   H2417     1.0  0.50555  0.94988  0.36956  1.0000
  H   H2418     1.0  0.56993  0.74850  0.40071  1.0000
  H   H2419     1.0  0.56066  0.72675  0.41711  1.0000
  C   C2007     1.0  0.57122  0.92471  0.40347  1.0000
  H   H2420     1.0  0.52868  0.87523  0.31452  1.0000
  C   C2008     1.0  0.55520  0.78263  0.03187  1.0000
  S   S549      1.0  0.71271  0.95596  0.06823  1.0000
  S   S550      1.0  0.68635  0.97876  0.07988  1.0000
  Fe  Fe275     1.0  0.71148  0.97668  0.08861  1.0000
  S   S551      1.0  0.71967  0.97130  0.12330  1.0000
  Fe  Fe276     1.0  0.68905  0.95995  0.05660  1.0000
  S   S552      1.0  0.66788  0.93559  0.05695  1.0000
  S   S553      1.0  0.70409  0.98074  0.02518  1.0000
  S   S554      1.0  0.50165  0.98713  0.46676  1.0000
  S   S555      1.0  0.58938  0.72840  0.44453  1.0000
  S   S556      1.0  0.56531  0.76636  0.45188  1.0000
  H   H2421     1.0  0.69588  0.94444  0.01527  1.0000
  H   H2422     1.0  0.66123  0.87825  0.03757  1.0000
  Fe  Fe277     1.0  0.50109  0.93031  0.44643  1.0000
  N   N134      1.0  0.48705  0.96501  0.36747  1.0000
  S   S557      1.0  0.51592  0.93032  0.41083  1.0000
  Fe  Fe278     1.0  0.49301  0.79924  0.15828  1.0000
  H   H2423     1.0  0.53212  0.71120  0.41838  1.0000
  H   H2424     1.0  0.62257  0.66557  0.45591  1.0000
  C   C2009     1.0  0.55418  0.84512  0.12258  1.0000
  H   H2425     1.0  0.59348  0.88635  0.39309  1.0000
  H   H2426     1.0  0.68870  0.74065  0.44819  1.0000
  S   S558      1.0  0.50114  0.81918  0.12378  1.0000
  S   S559      1.0  0.50658  0.78150  0.17587  1.0000
  H   H2427     1.0  0.57333  0.90911  0.36568  1.0000
  C   C2010     1.0  0.49628  0.97961  0.37614  1.0000
  Fe  Fe279     1.0  0.57263  0.87631  0.97292  1.0000
  H   H2428     1.0  0.70680  0.95735  0.22451  1.0000
  H   H2429     1.0  0.48911  0.88047  0.40762  1.0000
  H   H2430     1.0  0.57137  0.92049  0.98273  1.0000
  C   C2011     1.0  0.49205  0.86818  0.35549  1.0000
  H   H2431     1.0  0.57228  0.96308  0.41958  1.0000
  C   C2012     1.0  0.54644  0.76171  0.99978  1.0000
  H   H2432     1.0  0.50515  0.97308  0.33447  1.0000
  H   H2433     1.0  0.52620  0.88253  0.34097  1.0000
  C   C2013     1.0  0.53282  0.82809  0.16727  1.0000
  N   N135      1.0  0.59445  0.91368  0.38254  1.0000
  Fe  Fe280     1.0  0.49965  0.79188  0.20776  1.0000
  C   C2014     1.0  0.71808  0.98132  0.14750  1.0000
  C   C2015     1.0  0.72626  0.97643  0.16536  1.0000
  C   C2016     1.0  0.72498  0.98361  0.18519  1.0000
  H   H2434     1.0  0.50618  0.85245  0.30785  1.0000
  S   S560      1.0  0.56448  0.68991  0.42379  1.0000
  C   C2017     1.0  0.54952  0.82650  0.06728  1.0000
  C   C2018     1.0  0.54569  0.81342  0.08768  1.0000
  C   C2019     1.0  0.53077  0.81080  0.10500  1.0000
  C   C2020     1.0  0.51961  0.82135  0.10208  1.0000
  C   C2021     1.0  0.52337  0.83432  0.08158  1.0000
  C   C2022     1.0  0.53823  0.83686  0.06418  1.0000
  H   H2435     1.0  0.55439  0.80538  0.09022  1.0000
  H   H2436     1.0  0.52793  0.80070  0.12063  1.0000
  H   H2437     1.0  0.51478  0.84251  0.07917  1.0000
  H   H2438     1.0  0.54104  0.84696  0.04854  1.0000
  C   C2023     1.0  0.64009  0.91276  0.00391  1.0000
  C   C2024     1.0  0.63559  0.90441  0.02745  1.0000
  C   C2025     1.0  0.64402  0.91175  0.04337  1.0000
  C   C2026     1.0  0.65686  0.92767  0.03617  1.0000
  C   C2027     1.0  0.66081  0.93638  0.01277  1.0000
  C   C2028     1.0  0.65266  0.92886  0.99677  1.0000
  H   H2439     1.0  0.62599  0.89204  0.03331  1.0000
  H   H2440     1.0  0.64072  0.90491  0.06140  1.0000
  H   H2441     1.0  0.67024  0.94884  0.00691  1.0000
  H   H2442     1.0  0.63886  0.69480  0.45741  1.0000
  C   C2029     1.0  0.53582  0.88352  0.39805  1.0000
  C   C2030     1.0  0.52722  0.88359  0.42038  1.0000
  C   C2031     1.0  0.52093  0.89781  0.42448  1.0000
  C   C2032     1.0  0.52314  0.91203  0.40621  1.0000
  C   C2033     1.0  0.53159  0.91190  0.38380  1.0000
  C   C2034     1.0  0.53790  0.89767  0.37970  1.0000
  H   H2443     1.0  0.52549  0.87261  0.43462  1.0000
  H   H2444     1.0  0.51447  0.89781  0.44182  1.0000
  H   H2445     1.0  0.53335  0.92291  0.36960  1.0000
  H   H2446     1.0  0.54439  0.89769  0.36242  1.0000
  C   C2035     1.0  0.58629  0.80486  0.38066  1.0000
  C   C2036     1.0  0.59389  0.79125  0.38667  1.0000
  C   C2037     1.0  0.58783  0.77948  0.40853  1.0000
  C   C2038     1.0  0.57405  0.78120  0.42455  1.0000
  C   C2039     1.0  0.56660  0.79492  0.41860  1.0000
  C   C2040     1.0  0.57264  0.80667  0.39679  1.0000
  H   H2447     1.0  0.60447  0.78977  0.37432  1.0000
  H   H2448     1.0  0.59381  0.76910  0.41295  1.0000
  H   H2449     1.0  0.55598  0.79641  0.43089  1.0000
  H   H2450     1.0  0.56668  0.81708  0.39242  1.0000
  C   C2041     1.0  0.52602  0.81294  0.24520  1.0000
  C   C2042     1.0  0.53920  0.81202  0.25711  1.0000
  C   C2043     1.0  0.54414  0.82416  0.27050  1.0000
  C   C2044     1.0  0.53605  0.83755  0.27200  1.0000
  C   C2045     1.0  0.52292  0.83852  0.25999  1.0000
  C   C2046     1.0  0.51789  0.82630  0.24673  1.0000
  H   H2451     1.0  0.54562  0.80179  0.25602  1.0000
  H   H2452     1.0  0.55427  0.82322  0.27954  1.0000
  H   H2453     1.0  0.51658  0.84883  0.26092  1.0000
  H   H2454     1.0  0.50777  0.82724  0.23768  1.0000
  C   C2047     1.0  0.63018  0.92053  0.31161  1.0000
  C   C2048     1.0  0.63630  0.93856  0.30188  1.0000
  C   C2049     1.0  0.65215  0.94828  0.30448  1.0000
  C   C2050     1.0  0.66219  0.94007  0.31678  1.0000
  C   C2051     1.0  0.65587  0.92212  0.32698  1.0000
  C   C2052     1.0  0.64003  0.91238  0.32434  1.0000
  H   H2455     1.0  0.62878  0.94504  0.29206  1.0000
  H   H2456     1.0  0.65663  0.96211  0.29687  1.0000
  H   H2457     1.0  0.66348  0.91560  0.33658  1.0000
  H   H2458     1.0  0.63561  0.89852  0.33180  1.0000
  C   C2053     1.0  0.56541  0.93748  0.41296  1.0000
  H   H2459     1.0  0.53096  0.79455  0.01471  1.0000
  H   H2460     1.0  0.55106  0.82687  0.19863  1.0000
  C   C2054     1.0  0.53653  0.74475  0.41683  1.0000
  H   H2461     1.0  0.54109  0.84602  0.12596  1.0000
  H   H2462     1.0  0.70132  0.92491  0.04647  1.0000
  C   C2055     1.0  0.69218  0.91238  0.98489  1.0000
  H   H2463     1.0  0.52560  0.82234  0.15523  1.0000
  H   H2464     1.0  0.65624  0.93551  0.97867  1.0000
  C   C2056     1.0  0.52930  0.67547  0.43168  1.0000
  H   H2465     1.0  0.53028  0.72999  0.35977  1.0000
  H   H2466     1.0  0.56769  0.73080  0.38623  1.0000
  H   H2467     1.0  0.54153  0.80000  0.18345  1.0000
  C   C2057     1.0  0.68924  0.74965  0.45958  1.0000
  H   H2468     1.0  0.59227  0.92509  0.34836  1.0000
  C   C2058     1.0  0.53313  0.71937  0.40095  1.0000
  H   H2469     1.0  0.61722  0.90628  0.36870  1.0000
  N   N136      1.0  0.68099  0.94321  0.24339  1.0000
  C   C2059     1.0  0.67801  0.95935  0.24978  1.0000
  C   C2060     1.0  0.67350  0.92863  0.26416  1.0000
  C   C2061     1.0  0.69975  0.94514  0.23754  1.0000
  C   C2062     1.0  0.67364  0.94050  0.22314  1.0000
  C   C2063     1.0  0.68048  0.95254  0.20142  1.0000
  C   C2064     1.0  0.65951  0.92624  0.22429  1.0000
  C   C2065     1.0  0.67412  0.95016  0.18184  1.0000
  C   C2066     1.0  0.65311  0.92405  0.20463  1.0000
  C   C2067     1.0  0.66048  0.93591  0.18343  1.0000
  H   H2470     1.0  0.68299  0.96164  0.26534  1.0000
  H   H2471     1.0  0.68449  0.97116  0.23567  1.0000
  H   H2472     1.0  0.66408  0.95866  0.25373  1.0000
  H   H2473     1.0  0.67964  0.93082  0.27886  1.0000
  H   H2474     1.0  0.67527  0.91607  0.26047  1.0000
  H   H2475     1.0  0.65959  0.92716  0.27072  1.0000
  H   H2476     1.0  0.72389  0.93347  0.03575  1.0000
  H   H2477     1.0  0.72849  0.91204  0.99862  1.0000
  C   C2068     1.0  0.58289  0.92820  0.98709  1.0000
  C   C2069     1.0  0.54293  0.75104  0.98432  1.0000
  H   H2478     1.0  0.65308  0.91664  0.24017  1.0000
  C   C2070     1.0  0.71519  0.99556  0.18766  1.0000
  H   H2479     1.0  0.64233  0.91310  0.20589  1.0000
  H   H2480     1.0  0.65555  0.93414  0.16821  1.0000
  C   C2071     1.0  0.55882  0.83334  0.18070  1.0000
  C   C2072     1.0  0.56095  0.83573  0.13937  1.0000
  C   C2073     1.0  0.54561  0.74890  0.37515  1.0000
  C   C2074     1.0  0.57825  0.83521  0.13244  1.0000
  C   C2075     1.0  0.56412  0.85322  0.10026  1.0000
  C   C2076     1.0  0.58800  0.84322  0.10998  1.0000
  C   C2077     1.0  0.58090  0.85211  0.09388  1.0000
  H   H2481     1.0  0.56016  0.84758  0.17842  1.0000
  H   H2482     1.0  0.57173  0.83116  0.18017  1.0000
  H   H2483     1.0  0.53245  0.84190  0.16563  1.0000
  H   H2484     1.0  0.58426  0.82833  0.14426  1.0000
  H   H2485     1.0  0.55856  0.85992  0.08753  1.0000
  H   H2486     1.0  0.60106  0.84234  0.10489  1.0000
  H   H2487     1.0  0.58829  0.85790  0.07627  1.0000
  N   N137      1.0  0.55672  0.79187  0.00760  1.0000
  H   H2488     1.0  0.57882  0.93789  0.99631  1.0000
  N   N138      1.0  0.50432  0.86303  0.33857  1.0000
  C   C2078     1.0  0.70742  0.94330  0.00348  1.0000
  C   C2079     1.0  0.49694  0.85709  0.31960  1.0000
  C   C2080     1.0  0.64509  0.68428  0.45766  1.0000
  C   C2081     1.0  0.70488  0.75764  0.46383  1.0000
  H   H2489     1.0  0.54525  0.81064  0.99068  1.0000
  H   H2490     1.0  0.57605  0.81289  0.98260  1.0000
  H   H2491     1.0  0.71473  0.91049  0.04051  1.0000
  C   C2082     1.0  0.53775  0.74321  0.35760  1.0000
  C   C2083     1.0  0.54889  0.77199  0.33210  1.0000
  C   C2084     1.0  0.60010  0.94364  0.39208  1.0000
  C   C2085     1.0  0.67015  0.88756  0.02281  1.0000
  C   C2086     1.0  0.57444  0.80341  0.99911  1.0000
  H   H2492     1.0  0.67982  0.95947  0.16536  1.0000
  H   H2493     1.0  0.53466  0.73616  0.43422  1.0000
  H   H2494     1.0  0.55934  0.67362  0.38610  1.0000
  Fe  Fe281     1.0  0.72774  0.97764  0.03786  1.0000
  H   H2495     1.0  0.56250  0.80494  0.16571  1.0000
  C   C2087     1.0  0.59416  0.95632  0.40172  1.0000
  C   C2088     1.0  0.67822  0.90024  0.98175  1.0000
  H   H2496     1.0  0.68499  0.89919  0.04396  1.0000
  H   H2497     1.0  0.53860  0.71250  0.38816  1.0000
  H   H2498     1.0  0.52807  0.68044  0.44728  1.0000
  H   H2499     1.0  0.55190  0.93515  0.42087  1.0000
  C   C2089     1.0  0.50646  0.97732  0.39267  1.0000
  H   H2500     1.0  0.70542  0.94580  0.25297  1.0000
  H   H2501     1.0  0.57816  0.81143  0.01155  1.0000
  H   H2502     1.0  0.56406  0.77407  0.03267  1.0000
  Fe  Fe282     1.0  0.56718  0.70436  0.45294  1.0000
  H   H2503     1.0  0.54486  0.75748  0.41741  1.0000
  H   H2504     1.0  0.70269  0.93403  0.23054  1.0000
  C   C2090     1.0  0.54553  0.67812  0.41748  1.0000
  H   H2505     1.0  0.52389  0.74684  0.41484  1.0000
  C   C2091     1.0  0.71259  0.92345  0.03430  1.0000
  S   S561      1.0  0.56565  0.84702  0.98151  1.0000
  S   S562      1.0  0.71916  0.99537  0.31542  1.0000
  C   C2092     1.0  0.70866  0.99358  0.14971  1.0000
  H   H2506     1.0  0.61360  0.94697  0.38401  1.0000
  H   H2507     1.0  0.55850  0.79198  0.04302  1.0000
  N   N139      1.0  0.55069  0.82642  0.16292  1.0000
  C   C2093     1.0  0.61341  0.91717  0.37543  1.0000
  C   C2094     1.0  0.68398  0.89975  0.02622  1.0000
  H   H2508     1.0  0.51522  0.88953  0.31931  1.0000
  H   H2509     1.0  0.49383  0.86781  0.30821  1.0000
  N   N140      1.0  0.54408  0.73731  0.39788  1.0000
  H   H2510     1.0  0.61916  0.92890  0.36094  1.0000
  H   H2511     1.0  0.52554  0.82112  0.18516  1.0000
  H   H2512     1.0  0.51982  0.71937  0.39954  1.0000
  H   H2513     1.0  0.56165  0.77180  0.38242  1.0000
  H   H2514     1.0  0.57380  0.89114  0.40225  1.0000
  H   H2515     1.0  0.55012  0.78085  0.31571  1.0000
  H   H2516     1.0  0.60301  0.96867  0.40100  1.0000
  H   H2517     1.0  0.59100  0.89735  0.41642  1.0000
  H   H2518     1.0  0.50860  0.96487  0.39929  1.0000
  H   H2519     1.0  0.56438  0.79135  0.34544  1.0000
  H   H2520     1.0  0.61952  0.91879  0.39027  1.0000
  C   C2095     1.0  0.58754  0.91253  0.36160  1.0000
  C   C2096     1.0  0.53939  0.75469  0.33645  1.0000
  H   H2521     1.0  0.59144  0.90243  0.35319  1.0000
  C   C2097     1.0  0.55526  0.76657  0.37002  1.0000
  H   H2522     1.0  0.53324  0.75016  0.32331  1.0000
  H   H2523     1.0  0.72661  0.92907  0.97630  1.0000
  H   H2524     1.0  0.51865  0.84363  0.33752  1.0000
  C   C2098     1.0  0.51924  0.87825  0.32789  1.0000
  H   H2525     1.0  0.54434  0.80204  0.15267  1.0000
  H   H2526     1.0  0.48748  0.94340  0.39414  1.0000
  C   C2099     1.0  0.51422  0.99126  0.40139  1.0000
  C   C2100     1.0  0.57687  0.95323  0.41217  1.0000
  H   H2527     1.0  0.65614  0.87880  0.99822  1.0000
  C   C2101     1.0  0.56133  0.73583  0.40055  1.0000
  H   H2528     1.0  0.54675  0.81200  0.01967  1.0000
  C   C2102     1.0  0.54978  0.80759  0.16626  1.0000
  C   C2103     1.0  0.58791  0.89649  0.39931  1.0000
  H   H2529     1.0  0.56177  0.91282  0.40432  1.0000
  C   C2104     1.0  0.58876  0.92730  0.39291  1.0000
  H   H2530     1.0  0.71845  0.95374  0.00455  1.0000
  H   H2531     1.0  0.70563  0.94630  0.98549  1.0000
  C   C2105     1.0  0.49630  0.87182  0.37629  1.0000
  C   C2106     1.0  0.66726  0.88782  0.00066  1.0000
  C   C2107     1.0  0.55313  0.78007  0.99180  1.0000
  H   H2532     1.0  0.69078  0.96398  0.19944  1.0000
  C   C2108     1.0  0.55687  0.77790  0.34884  1.0000
  S   S563      1.0  0.52078  0.79749  0.22802  1.0000
  N   N141      1.0  0.71019  0.92579  0.01014  1.0000
  H   H2533     1.0  0.58680  0.91881  0.99964  1.0000
  H   H2534     1.0  0.50820  0.87040  0.38051  1.0000
  C   C2109     1.0  0.51047  0.84860  0.35025  1.0000
  C   C2110     1.0  0.69555  0.91249  0.00724  1.0000
  H   H2535     1.0  0.61607  0.93407  0.98621  1.0000
  H   H2536     1.0  0.53780  0.73707  0.99071  1.0000
  C   C2111     1.0  0.72640  0.92530  0.99504  1.0000
  H   H2537     1.0  0.54184  0.77476  0.04022  1.0000
  H   H2538     1.0  0.54375  0.75527  0.01786  1.0000
  H   H2539     1.0  0.58399  0.79576  0.99609  1.0000
  C   C2112     1.0  0.49104  0.96935  0.34169  1.0000
  Fe  Fe283     1.0  0.57073  0.74024  0.46386  1.0000
  C   C2113     1.0  0.54441  0.80274  0.00817  1.0000
  C   C2114     1.0  0.54684  0.67147  0.39732  1.0000
  H   H2540     1.0  0.71653  0.75481  0.45575  1.0000
  H   H2541     1.0  0.50203  0.66479  0.43645  1.0000
  C   C2115     1.0  0.66219  0.68721  0.45909  1.0000
  C   C2116     1.0  0.67025  0.67368  0.45965  1.0000
  C   C2117     1.0  0.49151  0.94838  0.37498  1.0000
  H   H2542     1.0  0.51869  0.85264  0.36220  1.0000
  H   H2543     1.0  0.68344  0.67689  0.46114  1.0000
  H   H2544     1.0  0.61017  0.95413  0.98485  1.0000
  C   C2118     1.0  0.51456  0.66654  0.42552  1.0000
  H   H2545     1.0  0.49954  0.83745  0.36038  1.0000
  H   H2546     1.0  0.73359  0.96696  0.16391  1.0000
  H   H2547     1.0  0.48739  0.99187  0.97224  1.0000
  H   H2548     1.0  0.52155  0.98910  0.41447  1.0000
  H   H2549     1.0  0.66919  0.70005  0.46002  1.0000
  H   H2550     1.0  0.66208  0.74689  0.46678  1.0000
  H   H2551     1.0  0.73144  0.97979  0.19864  1.0000
  C   C2119     1.0  0.63594  0.66778  0.45681  1.0000
  S   S564      1.0  0.48791  0.81098  0.18905  1.0000
  C   C2120     1.0  0.61241  0.94433  0.97461  1.0000
  H   H2552     1.0  0.48592  0.98023  0.33445  1.0000
  C   C2121     1.0  0.62812  0.69714  0.57164  1.0000
  H   H2553     1.0  0.63814  0.78799  0.78219  1.0000
  S   S565      1.0  0.59925  0.83096  0.94009  1.0000
  H   H2554     1.0  0.56057  0.80082  0.96028  1.0000
  Fe  Fe284     1.0  0.49037  0.70737  0.65742  1.0000
  H   H2555     1.0  0.61421  0.68937  0.54728  1.0000
  Fe  Fe285     1.0  0.55632  0.70794  0.50335  1.0000
  S   S566      1.0  0.57366  0.69355  0.48630  1.0000
  S   S567      1.0  0.53781  0.69254  0.53743  1.0000
  C   C2122     1.0  0.56168  0.99460  0.82100  1.0000
  C   C2123     1.0  0.71935  0.75377  0.66760  1.0000
  H   H2556     1.0  0.55383  0.83035  0.82395  1.0000
  S   S568      1.0  0.57745  0.73229  0.49842  1.0000
  Fe  Fe286     1.0  0.56466  0.77059  0.85444  1.0000
  S   S569      1.0  0.57086  0.74706  0.87360  1.0000
  S   S570      1.0  0.56311  0.79541  0.86775  1.0000
  Fe  Fe287     1.0  0.55324  0.75129  0.81684  1.0000
  S   S571      1.0  0.55851  0.72666  0.83392  1.0000
  S   S572      1.0  0.54506  0.75478  0.78204  1.0000
  Fe  Fe288     1.0  0.54629  0.73174  0.86750  1.0000
  S   S573      1.0  0.52708  0.71242  0.89785  1.0000
  Fe  Fe289     1.0  0.58289  0.74391  0.83833  1.0000
  S   S574      1.0  0.60518  0.73156  0.83115  1.0000
  S   S575      1.0  0.53920  0.75528  0.85035  1.0000
  S   S576      1.0  0.57846  0.76855  0.81917  1.0000
  Fe  Fe290     1.0  0.69285  0.73395  0.55560  1.0000
  S   S577      1.0  0.69875  0.70946  0.57265  1.0000
  S   S578      1.0  0.66632  0.73812  0.55442  1.0000
  Fe  Fe291     1.0  0.71627  0.72696  0.58910  1.0000
  H   H2557     1.0  0.57195  0.68768  0.53677  1.0000
  S   S579      1.0  0.70858  0.75075  0.57454  1.0000
  H   H2558     1.0  0.67363  0.77497  0.70520  1.0000
  S   S580      1.0  0.70816  0.73058  0.77810  1.0000
  Fe  Fe292     1.0  0.70849  0.75368  0.79422  1.0000
  S   S581      1.0  0.68620  0.76413  0.80869  1.0000
  H   H2559     1.0  0.57034  0.67257  0.58804  1.0000
  C   C2124     1.0  0.60349  0.97278  0.86699  1.0000
  H   H2560     1.0  0.61137  0.98441  0.87018  1.0000
  S   S582      1.0  0.51192  0.72122  0.62566  1.0000
  H   H2561     1.0  0.51389  0.83500  0.87711  1.0000
  C   C2125     1.0  0.55336  0.98401  0.86925  1.0000
  C   C2126     1.0  0.70285  0.66972  0.52948  1.0000
  Fe  Fe293     1.0  0.51040  0.90215  0.85897  1.0000
  S   S583      1.0  0.52473  0.91352  0.82203  1.0000
  S   S584      1.0  0.52128  0.88168  0.87764  1.0000
  C   C2127     1.0  0.63913  0.73763  0.53341  1.0000
  C   C2128     1.0  0.71782  0.74570  0.64880  1.0000
  Fe  Fe294     1.0  0.49886  0.90909  0.81315  1.0000
  C   C2129     1.0  0.59946  0.70642  0.59272  1.0000
  Fe  Fe295     1.0  0.52159  0.93911  0.82890  1.0000
  S   S585      1.0  0.54299  0.96401  0.81432  1.0000
  C   C2130     1.0  0.68938  0.66440  0.80881  1.0000
  S   S586      1.0  0.50915  0.92818  0.86657  1.0000
  C   C2131     1.0  0.62866  0.70459  0.59073  1.0000
  C   C2132     1.0  0.67480  0.76449  0.48517  1.0000
  Fe  Fe296     1.0  0.49417  0.95756  0.47369  1.0000
  H   H2562     1.0  0.69505  0.69105  0.81202  1.0000
  H   H2563     1.0  0.61180  0.92940  0.93834  1.0000
  H   H2564     1.0  0.57615  0.71997  0.57218  1.0000
  C   C2133     1.0  0.57881  0.69421  0.87244  1.0000
  C   C2134     1.0  0.49888  0.68067  0.83745  1.0000
  H   H2565     1.0  0.66796  0.75156  0.71190  1.0000
  H   H2566     1.0  0.55649  0.68837  0.91365  1.0000
  H   H2567     1.0  0.51164  0.97728  0.51035  1.0000
  C   C2135     1.0  0.55034  0.97819  0.83176  1.0000
  H   H2568     1.0  0.53686  0.96072  0.86451  1.0000
  H   H2569     1.0  0.56842  0.71327  0.54858  1.0000
  C   C2136     1.0  0.57945  0.71423  0.55707  1.0000
  C   C2137     1.0  0.72010  0.72896  0.64996  1.0000
  H   H2570     1.0  0.56951  0.83513  0.92090  1.0000
  Fe  Fe297     1.0  0.73042  0.72763  0.79445  1.0000
  C   C2138     1.0  0.58044  0.97422  0.92083  1.0000
  H   H2571     1.0  0.51058  0.76530  0.56867  1.0000
  H   H2572     1.0  0.50993  0.80893  0.85886  1.0000
  N   N142      1.0  0.49044  0.76053  0.59943  1.0000
  C   C2139     1.0  0.59793  0.71112  0.89065  1.0000
  C   C2140     1.0  0.67957  0.74717  0.75050  1.0000
  C   C2141     1.0  0.49124  0.98128  0.87359  1.0000
  S   S587      1.0  0.73098  0.69863  0.52050  1.0000
  C   C2142     1.0  0.70093  0.77989  0.52356  1.0000
  C   C2143     1.0  0.51483  0.67892  0.92341  1.0000
  C   C2144     1.0  0.52485  0.68984  0.90235  1.0000
  C   C2145     1.0  0.53313  0.68262  0.88565  1.0000
  H   H2573     1.0  0.56773  0.68300  0.87404  1.0000
  H   H2574     1.0  0.61186  0.97312  0.94987  1.0000
  H   H2575     1.0  0.50829  0.68443  0.93633  1.0000
  H   H2576     1.0  0.54051  0.69090  0.86914  1.0000
  C   C2146     1.0  0.53010  0.73982  0.77207  1.0000
  C   C2147     1.0  0.53038  0.74253  0.74819  1.0000
  C   C2148     1.0  0.51843  0.73134  0.73961  1.0000
  C   C2149     1.0  0.50574  0.71745  0.75492  1.0000
  C   C2150     1.0  0.50539  0.71483  0.77880  1.0000
  C   C2151     1.0  0.51753  0.72584  0.78732  1.0000
  H   H2577     1.0  0.54004  0.75330  0.73621  1.0000
  H   H2578     1.0  0.51906  0.73348  0.72118  1.0000
  C   C2152     1.0  0.54591  0.75825  0.96066  1.0000
  H   H2579     1.0  0.51699  0.72378  0.80572  1.0000
  C   C2153     1.0  0.62764  0.74087  0.82530  1.0000
  C   C2154     1.0  0.63466  0.75773  0.82755  1.0000
  C   C2155     1.0  0.65261  0.76455  0.82258  1.0000
  C   C2156     1.0  0.66372  0.75461  0.81535  1.0000
  C   C2157     1.0  0.65668  0.73762  0.81348  1.0000
  C   C2158     1.0  0.63873  0.73082  0.81841  1.0000
  H   H2580     1.0  0.62628  0.76557  0.83297  1.0000
  H   H2581     1.0  0.65793  0.77767  0.82422  1.0000
  H   H2582     1.0  0.66503  0.72970  0.80835  1.0000
  H   H2583     1.0  0.63341  0.71771  0.81678  1.0000
  C   C2159     1.0  0.53006  0.70100  0.56126  1.0000
  C   C2160     1.0  0.51844  0.68952  0.58089  1.0000
  C   C2161     1.0  0.51253  0.69551  0.60063  1.0000
  C   C2162     1.0  0.51839  0.71304  0.60103  1.0000
  C   C2163     1.0  0.52996  0.72455  0.58138  1.0000
  C   C2164     1.0  0.53565  0.71861  0.56150  1.0000
  H   H2584     1.0  0.51402  0.67588  0.58084  1.0000
  H   H2585     1.0  0.50364  0.68652  0.61564  1.0000
  H   H2586     1.0  0.53456  0.73814  0.58152  1.0000
  H   H2587     1.0  0.54446  0.72763  0.54644  1.0000
  C   C2165     1.0  0.63305  0.72161  0.50387  1.0000
  C   C2166     1.0  0.64782  0.71575  0.50505  1.0000
  C   C2167     1.0  0.65831  0.72093  0.52008  1.0000
  C   C2168     1.0  0.65397  0.73184  0.53444  1.0000
  H   H2588     1.0  0.66263  0.76627  0.49301  1.0000
  H   H2589     1.0  0.58872  0.71031  0.60140  1.0000
  H   H2590     1.0  0.65122  0.70717  0.49422  1.0000
  H   H2591     1.0  0.66965  0.71634  0.52072  1.0000
  C   C2169     1.0  0.54645  0.89015  0.93829  1.0000
  C   C2170     1.0  0.54806  0.87635  0.92773  1.0000
  C   C2171     1.0  0.54000  0.87372  0.90942  1.0000
  C   C2172     1.0  0.53045  0.88494  0.90142  1.0000
  C   C2173     1.0  0.52889  0.89877  0.91194  1.0000
  C   C2174     1.0  0.53690  0.90137  0.93031  1.0000
  H   H2592     1.0  0.55540  0.86763  0.93377  1.0000
  H   H2593     1.0  0.54127  0.86298  0.90142  1.0000
  H   H2594     1.0  0.52137  0.90734  0.90611  1.0000
  H   H2595     1.0  0.53553  0.91200  0.93852  1.0000
  C   C2175     1.0  0.58859  0.82078  0.92069  1.0000
  C   C2176     1.0  0.59463  0.80779  0.91164  1.0000
  C   C2177     1.0  0.58681  0.79959  0.89588  1.0000
  C   C2178     1.0  0.57287  0.80439  0.88878  1.0000
  C   C2179     1.0  0.56667  0.81716  0.89818  1.0000
  C   C2180     1.0  0.57440  0.82526  0.91405  1.0000
  H   H2596     1.0  0.60557  0.80415  0.91666  1.0000
  H   H2597     1.0  0.59179  0.78983  0.88887  1.0000
  H   H2598     1.0  0.55578  0.82080  0.89322  1.0000
  H   H2599     1.0  0.49538  0.88442  0.74022  1.0000
  S   S588      1.0  0.71437  0.74027  0.52400  1.0000
  H   H2600     1.0  0.48737  0.75296  0.76710  1.0000
  H   H2601     1.0  0.61765  0.73751  0.51707  1.0000
  C   C2181     1.0  0.55233  0.77618  0.95234  1.0000
  C   C2182     1.0  0.61434  0.70915  0.60133  1.0000
  H   H2602     1.0  0.52768  0.80674  0.83833  1.0000
  H   H2603     1.0  0.57622  0.98349  0.90940  1.0000
  H   H2604     1.0  0.61292  0.76466  0.78221  1.0000
  C   C2183     1.0  0.69026  0.77819  0.74001  1.0000
  Fe  Fe298     1.0  0.72120  0.71662  0.54192  1.0000
  H   H2605     1.0  0.56929  0.93129  0.94617  1.0000
  C   C2184     1.0  0.51885  0.84345  0.78994  1.0000
  H   H2606     1.0  0.55026  0.97975  0.88795  1.0000
  H   H2607     1.0  0.49953  0.92987  0.67835  1.0000
  S   S589      1.0  0.72509  0.75628  0.71079  1.0000
  C   C2185     1.0  0.62769  0.75142  0.76198  1.0000
  H   H2608     1.0  0.55599  0.85022  0.83400  1.0000
  H   H2609     1.0  0.71449  0.78056  0.51615  1.0000
  H   H2610     1.0  0.62382  0.95037  0.95999  1.0000
  H   H2611     1.0  0.64037  0.70716  0.59698  1.0000
  S   S590      1.0  0.51210  0.94024  0.47468  1.0000
  H   H2612     1.0  0.67944  0.74695  0.76907  1.0000
  H   H2613     1.0  0.49553  0.75427  0.63334  1.0000
  N   N143      1.0  0.58314  0.69558  0.89505  1.0000
  S   S591      1.0  0.49800  0.89861  0.78030  1.0000
  C   C2186     1.0  0.62559  0.76477  0.77303  1.0000
  C   C2187     1.0  0.59184  0.94143  0.87652  1.0000
  C   C2188     1.0  0.59498  0.97979  0.92922  1.0000
  H   H2614     1.0  0.63946  0.69396  0.56319  1.0000
  H   H2615     1.0  0.50616  0.78452  0.57564  1.0000
  C   C2189     1.0  0.50819  0.86080  0.81483  1.0000
  H   H2616     1.0  0.60946  0.95535  0.89373  1.0000
  C   C2190     1.0  0.57330  0.66326  0.91200  1.0000
  H   H2617     1.0  0.50601  0.69302  0.82582  1.0000
  H   H2618     1.0  0.58982  0.69265  0.85995  1.0000
  H   H2619     1.0  0.53226  0.82594  0.80386  1.0000
  N   N144      1.0  0.59698  0.93689  0.96630  1.0000
  H   H2620     1.0  0.60479  0.91334  0.96517  1.0000
  C   C2191     1.0  0.63983  0.77791  0.77298  1.0000
  C   C2192     1.0  0.58406  0.68938  0.54300  1.0000
  H   H2621     1.0  0.68993  0.76333  0.70499  1.0000
  H   H2622     1.0  0.61487  0.71506  0.61611  1.0000
  H   H2623     1.0  0.64501  0.74043  0.74265  1.0000
  H   H2624     1.0  0.49132  0.66901  0.81024  1.0000
  C   C2193     1.0  0.57680  0.94473  0.94180  1.0000
  S   S592      1.0  0.55642  0.89388  0.96122  1.0000
  S   S593      1.0  0.62065  0.71494  0.48409  1.0000
  H   H2625     1.0  0.52043  0.83985  0.77332  1.0000
  C   C2194     1.0  0.60236  0.95640  0.88023  1.0000
  H   H2626     1.0  0.60913  0.71026  0.87781  1.0000
  H   H2627     1.0  0.70300  0.77717  0.73111  1.0000
  C   C2195     1.0  0.51444  0.99154  0.83960  1.0000
  C   C2196     1.0  0.67467  0.78610  0.51791  1.0000
  C   C2197     1.0  0.54584  0.97314  0.85598  1.0000
  S   S594      1.0  0.59879  0.87948  0.95114  1.0000
  C   C2198     1.0  0.60102  0.92355  0.95383  1.0000
  C   C2199     1.0  0.62880  0.73268  0.51806  1.0000
  H   H2628     1.0  0.67005  0.73527  0.74979  1.0000
  C   C2200     1.0  0.67688  0.76332  0.71425  1.0000
  N   N145      1.0  0.53128  0.83180  0.84767  1.0000
  C   C2201     1.0  0.55015  0.83590  0.83915  1.0000
  C   C2202     1.0  0.52790  0.83775  0.86963  1.0000
  C   C2203     1.0  0.52417  0.81260  0.85327  1.0000
  C   C2204     1.0  0.52375  0.84010  0.82947  1.0000
  C   C2205     1.0  0.51482  0.85301  0.83258  1.0000
  C   C2206     1.0  0.52555  0.83556  0.80756  1.0000
  N   N146      1.0  0.67612  0.76340  0.73906  1.0000
  C   C2207     1.0  0.58652  0.67909  0.90574  1.0000
  H   H2629     1.0  0.68930  0.66778  0.79057  1.0000
  H   H2630     1.0  0.50447  0.68905  0.86782  1.0000
  H   H2631     1.0  0.56012  0.95243  0.92039  1.0000
  C   C2208     1.0  0.57139  0.95672  0.92705  1.0000
  H   H2632     1.0  0.55461  0.78177  0.93392  1.0000
  H   H2633     1.0  0.53333  0.83110  0.88318  1.0000
  C   C2209     1.0  0.70560  0.76918  0.47862  1.0000
  H   H2634     1.0  0.73310  0.68877  0.77728  1.0000
  H   H2635     1.0  0.52924  0.80604  0.86744  1.0000
  H   H2636     1.0  0.56496  0.69108  0.59708  1.0000
  Fe  Fe299     1.0  0.48925  0.92020  0.49935  1.0000
  H   H2637     1.0  0.53376  0.85198  0.86697  1.0000
  H   H2638     1.0  0.68871  0.79090  0.73136  1.0000
  H   H2639     1.0  0.57548  0.70609  0.86426  1.0000
  N   N147      1.0  0.58288  0.69701  0.56376  1.0000
  C   C2210     1.0  0.72502  0.72835  0.68921  1.0000
  H   H2640     1.0  0.55637  0.83030  0.85259  1.0000
  H   H2641     1.0  0.57126  0.69990  0.92767  1.0000
  C   C2211     1.0  0.59858  0.69916  0.57299  1.0000
  H   H2642     1.0  0.50712  0.77573  0.61679  1.0000
  C   C2212     1.0  0.72001  0.67759  0.51815  1.0000
  H   H2643     1.0  0.66738  0.79123  0.50564  1.0000
  H   H2644     1.0  0.70209  0.81259  0.50263  1.0000
  H   H2645     1.0  0.49094  0.79411  0.60297  1.0000
  C   C2213     1.0  0.59154  0.94992  0.95077  1.0000
  H   H2646     1.0  0.51269  0.93998  0.70858  1.0000
  Fe  Fe300     1.0  0.59444  0.71847  0.47952  1.0000
  H   H2647     1.0  0.61657  0.74104  0.76255  1.0000
  H   H2648     1.0  0.52105  0.98960  0.82334  1.0000
  C   C2214     1.0  0.49064  0.66707  0.82875  1.0000
  C   C2215     1.0  0.65629  0.77767  0.76211  1.0000
  H   H2649     1.0  0.51351  0.75718  0.60987  1.0000
  S   S595      1.0  0.71958  0.71853  0.62622  1.0000
  H   H2650     1.0  0.69592  0.67647  0.54017  1.0000
  H   H2651     1.0  0.58635  0.67623  0.54680  1.0000
  S   S596      1.0  0.72898  0.74936  0.81318  1.0000
  H   H2652     1.0  0.58991  0.91660  0.94794  1.0000
  C   C2216     1.0  0.49743  0.99615  0.88166  1.0000
  H   H2653     1.0  0.63559  0.74597  0.54457  1.0000
  N   N148      1.0  0.57037  0.92710  0.85524  1.0000
  C   C2217     1.0  0.57119  0.91028  0.86910  1.0000
  C   C2218     1.0  0.55259  0.92856  0.86172  1.0000
  C   C2219     1.0  0.57417  0.92634  0.83040  1.0000
  C   C2220     1.0  0.58224  0.94251  0.85905  1.0000
  C   C2221     1.0  0.58378  0.95940  0.84586  1.0000
  H   H2654     1.0  0.54317  0.74996  0.94871  1.0000
  C   C2222     1.0  0.60054  0.96789  0.94397  1.0000
  H   H2655     1.0  0.66676  0.78787  0.76359  1.0000
  C   C2223     1.0  0.64405  0.75117  0.75076  1.0000
  H   H2656     1.0  0.56701  0.90927  0.88806  1.0000
  H   H2657     1.0  0.56238  0.89896  0.86539  1.0000
  H   H2658     1.0  0.58432  0.90841  0.86523  1.0000
  H   H2659     1.0  0.54951  0.93042  0.87974  1.0000
  H   H2660     1.0  0.54308  0.91672  0.86067  1.0000
  H   H2661     1.0  0.55038  0.93969  0.85003  1.0000
  H   H2662     1.0  0.58781  0.92648  0.82429  1.0000
  H   H2663     1.0  0.56592  0.91438  0.82734  1.0000
  H   H2664     1.0  0.57159  0.93739  0.81890  1.0000
  H   H2665     1.0  0.57660  0.96132  0.83265  1.0000
  H   H2666     1.0  0.59131  0.92921  0.88769  1.0000
  H   H2667     1.0  0.49905  0.76122  0.72612  1.0000
  C   C2224     1.0  0.59425  0.97426  0.84982  1.0000
  H   H2668     1.0  0.60191  0.71312  0.90692  1.0000
  C   C2225     1.0  0.61341  0.69455  0.56267  1.0000
  C   C2226     1.0  0.69256  0.67752  0.82086  1.0000
  C   C2227     1.0  0.56851  0.69883  0.91047  1.0000
  C   C2228     1.0  0.72364  0.72035  0.67032  1.0000
  N   N149      1.0  0.69168  0.78512  0.50559  1.0000
  C   C2229     1.0  0.70127  0.80279  0.49172  1.0000
  C   C2230     1.0  0.72297  0.74518  0.68793  1.0000
  H   H2669     1.0  0.67553  0.90070  0.96468  1.0000
  Fe  Fe301     1.0  0.73067  0.75538  0.54396  1.0000
  H   H2670     1.0  0.71493  0.75245  0.63341  1.0000
  H   H2671     1.0  0.66685  0.77305  0.52850  1.0000
  H   H2672     1.0  0.69465  0.76633  0.53355  1.0000
  H   H2673     1.0  0.59075  0.72366  0.54462  1.0000
  H   H2674     1.0  0.56543  0.71104  0.90286  1.0000
  H   H2675     1.0  0.69110  0.77848  0.75825  1.0000
  C   C2231     1.0  0.65890  0.76426  0.75054  1.0000
  H   H2676     1.0  0.59477  0.72327  0.88293  1.0000
  C   C2232     1.0  0.69054  0.77277  0.49007  1.0000
  C   C2233     1.0  0.50000  0.77077  0.57586  1.0000
  C   C2234     1.0  0.49972  0.97899  0.85262  1.0000
  H   H2677     1.0  0.50508  0.86231  0.77991  1.0000
  C   C2235     1.0  0.48951  0.93039  0.73517  1.0000
  H   H2678     1.0  0.69235  0.74599  0.74213  1.0000
  C   C2236     1.0  0.49809  0.67837  0.86113  1.0000
  S   S597      1.0  0.49706  0.93586  0.81676  1.0000
  C   C2237     1.0  0.50215  0.76206  0.61551  1.0000
  H   H2679     1.0  0.70137  0.78841  0.53620  1.0000
  Fe  Fe302     1.0  0.59250  0.85019  0.96176  1.0000
  H   H2680     1.0  0.69502  0.80704  0.47754  1.0000
  H   H2681     1.0  0.69647  0.68375  0.85299  1.0000
  C   C2238     1.0  0.69333  0.67334  0.84404  1.0000
  H   H2682     1.0  0.71470  0.80331  0.48354  1.0000
  H   H2683     1.0  0.51278  0.85746  0.84849  1.0000
  C   C2239     1.0  0.51857  0.99065  0.50224  1.0000
  H   H2684     1.0  0.71774  0.76679  0.66637  1.0000
  H   H2685     1.0  0.71809  0.77516  0.48116  1.0000
  Fe  Fe303     1.0  0.72840  0.74939  0.74828  1.0000
  S   S598      1.0  0.72784  0.77256  0.76412  1.0000
  H   H2686     1.0  0.49555  0.93452  0.74863  1.0000
  C   C2240     1.0  0.56799  0.68542  0.58180  1.0000
  H   H2687     1.0  0.55608  0.68301  0.57503  1.0000
  H   H2688     1.0  0.72546  0.70741  0.67143  1.0000
  C   C2241     1.0  0.51020  0.85606  0.79358  1.0000
  H   H2689     1.0  0.72784  0.72156  0.70464  1.0000
  H   H2690     1.0  0.59442  0.69795  0.52820  1.0000
  H   H2691     1.0  0.61370  0.68934  0.90549  1.0000
  C   C2242     1.0  0.60280  0.67808  0.90993  1.0000
  H   H2692     1.0  0.50150  0.87069  0.81750  1.0000
  H   H2693     1.0  0.67590  0.79491  0.53014  1.0000
  H   H2694     1.0  0.59497  0.98705  0.83975  1.0000
  C   C2243     1.0  0.48754  0.75232  0.72332  1.0000
  C   C2244     1.0  0.49915  0.93330  0.71265  1.0000
  H   H2695     1.0  0.49554  0.70428  0.79081  1.0000
  S   S599      1.0  0.73381  0.70384  0.81824  1.0000
  H   H2696     1.0  0.49111  0.78079  0.74746  1.0000
  C   C2245     1.0  0.73449  0.67917  0.79131  1.0000
  H   H2697     1.0  0.56063  0.66286  0.90908  1.0000
  H   H2698     1.0  0.49134  0.77084  0.56357  1.0000
  S   S600      1.0  0.48980  0.89990  0.53035  1.0000
  H   H2699     1.0  0.49072  0.73970  0.72294  1.0000
  C   C2246     1.0  0.49151  0.92735  0.69553  1.0000
  H   H2700     1.0  0.48939  0.90628  0.66434  1.0000
  C   C2247     1.0  0.53187  0.66466  0.89039  1.0000
  H   H2701     1.0  0.60192  0.99348  0.92426  1.0000
  H   H2702     1.0  0.53045  0.99452  0.53084  1.0000
  C   C2248     1.0  0.55580  0.78697  0.96762  1.0000
  C   C2249     1.0  0.72879  0.66857  0.50428  1.0000
  H   H2703     1.0  0.49486  0.96742  0.84647  1.0000
  S   S601      1.0  0.48893  0.68479  0.68662  1.0000
  H   H2704     1.0  0.49667  0.73745  0.59089  1.0000
  S   S602      1.0  0.48941  0.70357  0.74557  1.0000
  S   S603      1.0  0.54820  0.71677  0.47038  1.0000
  C   C2250     1.0  0.73526  0.68327  0.81279  1.0000
  S   S604      1.0  0.48574  0.72539  0.68124  1.0000
  H   H2705     1.0  0.48574  0.75768  0.70583  1.0000
  C   C2251     1.0  0.67427  0.75319  0.47005  1.0000
  H   H2706     1.0  0.70008  0.92196  0.96974  1.0000
  C   C2252     1.0  0.75434  0.05842  0.27545  1.0000
  S   S605      1.0  0.84840  0.01559  0.38900  1.0000
  H   H2707     1.0  0.89951  0.32293  0.43903  1.0000
  S   S606      1.0  0.86458  0.04724  0.34212  1.0000
  H   H2708     1.0  0.80149  0.01558  0.00964  1.0000
  Fe  Fe304     1.0  0.87149  0.03889  0.37625  1.0000
  S   S607      1.0  0.87584  0.05719  0.40078  1.0000
  Fe  Fe305     1.0  0.84251  0.02303  0.35391  1.0000
  S   S608      1.0  0.81473  0.02343  0.35379  1.0000
  S   S609      1.0  0.88885  0.02331  0.36252  1.0000
  S   S610      1.0  0.98236  0.13812  0.42452  1.0000
  C   C2253     1.0  0.78074  0.07686  0.25025  1.0000
  H   H2709     1.0  0.78312  0.20936  0.45118  1.0000
  H   H2710     1.0  0.74822  0.04711  0.29042  1.0000
  Fe  Fe306     1.0  0.95840  0.11613  0.43095  1.0000
  S   S611      1.0  0.94893  0.10542  0.40151  1.0000
  H   H2711     1.0  0.93983  0.01460  0.31868  1.0000
  C   C2254     1.0  0.78594  0.26288  0.18332  1.0000
  C   C2255     1.0  0.73668  0.06437  0.34433  1.0000
  H   H2712     1.0  0.73900  0.12160  0.04149  1.0000
  S   S612      1.0  0.96953  0.09740  0.45108  1.0000
  Fe  Fe307     1.0  0.83658  0.26607  0.46792  1.0000
  C   C2256     1.0  0.93927  0.00058  0.31982  1.0000
  C   C2257     1.0  0.78095  0.26852  0.14453  1.0000
  H   H2713     1.0  0.91710  0.30589  0.45262  1.0000
  C   C2258     1.0  0.79053  0.27389  0.16066  1.0000
  H   H2714     1.0  0.77660  0.07394  0.23439  1.0000
  S   S613      1.0  0.94545  0.12342  0.46266  1.0000
  S   S614      1.0  0.85127  0.25028  0.44950  1.0000
  S   S615      1.0  0.83586  0.29381  0.45408  1.0000
  S   S616      1.0  0.81923  0.20727  0.44323  1.0000
  H   H2715     1.0  0.81001  0.30096  0.32061  1.0000
  S   S617      1.0  0.75309  0.16786  0.41131  1.0000
  C   C2259     1.0  0.93052  0.01391  0.00710  1.0000
  Fe  Fe308     1.0  0.97040  0.14391  0.45840  1.0000
  H   H2716     1.0  0.76941  0.23927  0.20656  1.0000
  H   H2717     1.0  0.80467  0.29524  0.18762  1.0000
  S   S618      1.0  0.75812  0.14757  0.35090  1.0000
  H   H2718     1.0  0.82881  0.00093  0.06975  1.0000
  C   C2260     1.0  0.82247  0.30988  0.31233  1.0000
  H   H2719     1.0  0.91784  0.05260  0.32105  1.0000
  S   S619      1.0  0.76824  0.30662  0.20575  1.0000
  C   C2261     1.0  0.75566  0.29342  0.19081  1.0000
  C   C2262     1.0  0.75382  0.29981  0.16844  1.0000
  S   S620      1.0  0.73563  0.01937  0.26180  1.0000
  C   C2263     1.0  0.80187  0.01563  0.33497  1.0000
  H   H2720     1.0  0.73836  0.10316  0.06418  1.0000
  C   C2264     1.0  0.77975  0.06630  0.29077  1.0000
  H   H2721     1.0  0.76007  0.31324  0.15975  1.0000
  H   H2722     1.0  0.87030  0.28917  0.46147  1.0000
  Fe  Fe309     1.0  0.74452  0.15321  0.38382  1.0000
  H   H2723     1.0  0.79501  0.08028  0.24636  1.0000
  C   C2265     1.0  0.79078  0.05763  0.30105  1.0000
  H   H2724     1.0  0.74913  0.14747  0.46105  1.0000
  H   H2725     1.0  0.77900  0.09582  0.32538  1.0000
  H   H2726     1.0  0.77989  0.14877  0.45469  1.0000
  C   C2266     1.0  0.81361  0.29365  0.17235  1.0000
  H   H2727     1.0  0.77231  0.03457  0.27838  1.0000
  H   H2728     1.0  0.85568  0.30731  0.35475  1.0000
  C   C2267     1.0  0.85211  0.30774  0.43082  1.0000
  C   C2268     1.0  0.74708  0.27599  0.20195  1.0000
  S   S621      1.0  0.85767  0.00645  0.33831  1.0000
  Fe  Fe310     1.0  0.97618  0.01508  0.04604  1.0000
  C   C2269     1.0  0.87792  0.31306  0.40082  1.0000
  C   C2270     1.0  0.86452  0.30149  0.41833  1.0000
  C   C2271     1.0  0.85053  0.32682  0.31529  1.0000
  C   C2272     1.0  0.78051  0.00378  0.30552  1.0000
  H   H2729     1.0  0.86386  0.28776  0.42223  1.0000
  C   C2273     1.0  0.80092  0.19779  0.43286  1.0000
  C   C2274     1.0  0.80257  0.18640  0.41784  1.0000
  C   C2275     1.0  0.78835  0.17780  0.41013  1.0000
  C   C2276     1.0  0.77208  0.18020  0.41768  1.0000
  C   C2277     1.0  0.77046  0.19174  0.43249  1.0000
  C   C2278     1.0  0.78474  0.20059  0.43984  1.0000
  H   H2730     1.0  0.81496  0.18411  0.41221  1.0000
  H   H2731     1.0  0.78990  0.16895  0.39888  1.0000
  H   H2732     1.0  0.75799  0.19370  0.43856  1.0000
  C   C2279     1.0  0.94100  0.00872  0.02152  1.0000
  S   S622      1.0  0.76787  0.99643  0.28620  1.0000
  C   C2280     1.0  0.74367  0.28888  0.15740  1.0000
  C   C2281     1.0  0.82664  0.31635  0.28840  1.0000
  Fe  Fe311     1.0  0.73755  0.12190  0.36016  1.0000
  C   C2282     1.0  0.88376  0.28953  0.46227  1.0000
  C   C2283     1.0  0.77281  0.24740  0.18915  1.0000
  C   C2284     1.0  0.84264  0.32773  0.27766  1.0000
  C   C2285     1.0  0.89632  0.07030  0.40097  1.0000
  C   C2286     1.0  0.89766  0.08056  0.41752  1.0000
  C   C2287     1.0  0.91370  0.09106  0.41832  1.0000
  C   C2288     1.0  0.92854  0.09164  0.40228  1.0000
  C   C2289     1.0  0.92716  0.08146  0.38567  1.0000
  C   C2290     1.0  0.91119  0.07074  0.38512  1.0000
  H   H2733     1.0  0.88624  0.08042  0.42978  1.0000
  H   H2734     1.0  0.91450  0.09905  0.43093  1.0000
  H   H2735     1.0  0.93851  0.08193  0.37301  1.0000
  H   H2736     1.0  0.91038  0.06303  0.37218  1.0000
  C   C2291     1.0  0.79768  0.00290  0.30195  1.0000
  C   C2292     1.0  0.97812  0.06992  0.00630  1.0000
  H   H2737     1.0  0.96526  0.06140  0.01197  1.0000
  H   H2738     1.0  0.77377  0.00301  0.08845  1.0000
  C   C2293     1.0  0.77764  0.04633  0.26383  1.0000
  S   S623      1.0  0.97167  0.17235  0.46002  1.0000
  C   C2294     1.0  0.91975  0.03949  0.29288  1.0000
  C   C2295     1.0  0.73977  0.22232  0.98430  1.0000
  C   C2296     1.0  0.94875  0.04015  0.27389  1.0000
  C   C2297     1.0  0.95544  0.05026  0.28839  1.0000
  C   C2298     1.0  0.94424  0.05465  0.30547  1.0000
  C   C2299     1.0  0.92640  0.04902  0.30799  1.0000
  C   C2300     1.0  0.79358  0.07681  0.32761  1.0000
  Fe  Fe312     1.0  0.82749  0.22780  0.46425  1.0000
  H   H2739     1.0  0.94937  0.06252  0.31667  1.0000
  C   C2301     1.0  0.76775  0.25309  0.15062  1.0000
  H   H2740     1.0  0.79213  0.26600  0.19699  1.0000
  C   C2302     1.0  0.78469  0.01648  0.33861  1.0000
  H   H2741     1.0  0.98125  0.06677  0.04144  1.0000
  C   C2303     1.0  0.86690  0.31649  0.34183  1.0000
  H   H2742     1.0  0.80599  0.05610  0.32668  1.0000
  H   H2743     1.0  0.78344  0.27632  0.12714  1.0000
  H   H2744     1.0  0.74910  0.05541  0.26038  1.0000
  C   C2304     1.0  0.73698  0.26502  0.19087  1.0000
  H   H2745     1.0  0.92586  0.02764  0.26418  1.0000
  C   C2305     1.0  0.79757  0.06290  0.31918  1.0000
  Fe  Fe313     1.0  0.88026  0.02982  0.32951  1.0000
  H   H2746     1.0  0.85936  0.03437  0.97318  1.0000
  H   H2747     1.0  0.81960  0.28308  0.17807  1.0000
  C   C2306     1.0  0.91060  0.04366  0.45333  1.0000
  H   H2748     1.0  0.76746  0.08748  0.29333  1.0000
  H   H2749     1.0  0.76992  0.00251  0.02081  1.0000
  S   S624      1.0  0.89754  0.03309  0.29469  1.0000
  H   H2750     1.0  0.97773  0.10096  0.36406  1.0000
  C   C2307     1.0  0.76378  0.24250  0.17283  1.0000
  H   H2751     1.0  0.78891  0.30713  0.16153  1.0000
  C   C2308     1.0  0.83423  0.31495  0.32562  1.0000
  H   H2752     1.0  0.94052  0.99879  0.30172  1.0000
  S   S625      1.0  0.74560  0.17862  0.29962  1.0000
  H   H2753     1.0  0.79079  0.30388  0.13261  1.0000
  H   H2754     1.0  0.95732  0.03689  0.26051  1.0000
  H   H2755     1.0  0.82257  0.27756  0.13782  1.0000
  H   H2756     1.0  0.73907  0.22970  0.01787  1.0000
  H   H2757     1.0  0.92779  0.07560  0.45362  1.0000
  H   H2758     1.0  0.82886  0.30097  0.12863  1.0000
  H   H2759     1.0  0.93338  0.02736  0.99797  1.0000
  C   C2309     1.0  0.79617  0.00300  0.00634  1.0000
  H   H2760     1.0  0.94267  0.06368  0.44486  1.0000
  H   H2761     1.0  0.87695  0.32002  0.35163  1.0000
  H   H2762     1.0  0.77674  0.08870  0.25324  1.0000
  H   H2763     1.0  0.83042  0.30955  0.34413  1.0000
  S   S626      1.0  0.95873  0.02437  0.02457  1.0000
  S   S627      1.0  0.97774  0.05804  0.28489  1.0000
  C   C2310     1.0  0.85292  0.32556  0.42521  1.0000
  H   H2764     1.0  0.77954  0.02175  0.35279  1.0000
  C   C2311     1.0  0.77408  0.01063  0.32397  1.0000
  H   H2765     1.0  0.82412  0.30596  0.16651  1.0000
  S   S628      1.0  0.82962  0.00408  0.98766  1.0000
  Fe  Fe314     1.0  0.73917  0.15807  0.33338  1.0000
  C   C2312     1.0  0.78246  0.08526  0.31839  1.0000
  H   H2766     1.0  0.79949  0.99735  0.09094  1.0000
  H   H2767     1.0  0.74968  0.06965  0.27945  1.0000
  H   H2768     1.0  0.77220  0.04305  0.24899  1.0000
  C   C2313     1.0  0.76141  0.24506  0.99317  1.0000
  C   C2314     1.0  0.91615  0.00179  0.00462  1.0000
  C   C2315     1.0  0.79782  0.30527  0.14658  1.0000
  C   C2316     1.0  0.77574  0.08023  0.30013  1.0000
  H   H2769     1.0  0.79173  0.04828  0.25833  1.0000
  H   H2770     1.0  0.74220  0.12826  0.07726  1.0000
  Fe  Fe315     1.0  0.86527  0.00081  0.37225  1.0000
  H   H2771     1.0  0.80823  0.31758  0.14007  1.0000
  H   H2772     1.0  0.73752  0.19009  0.00578  1.0000
  H   H2773     1.0  0.81741  0.31272  0.27811  1.0000
  C   C2317     1.0  0.81766  0.28923  0.13363  1.0000
  N   N150      1.0  0.80465  0.29016  0.15362  1.0000
  H   H2774     1.0  0.76681  0.99779  0.06330  1.0000
  H   H2775     1.0  0.79443  0.04675  0.29541  1.0000
  H   H2776     1.0  0.74832  0.27089  0.21927  1.0000
  H   H2777     1.0  0.74440  0.20345  0.25967  1.0000
  C   C2318     1.0  0.89159  0.32077  0.45691  1.0000
  H   H2778     1.0  0.81247  0.28859  0.11789  1.0000
  H   H2779     1.0  0.90550  0.05448  0.44583  1.0000
  H   H2780     1.0  0.87855  0.32114  0.45460  1.0000
  H   H2781     1.0  0.89085  0.29029  0.44436  1.0000
  H   H2782     1.0  0.91901  0.04073  0.43867  1.0000
  N   N151      1.0  0.82564  0.06626  0.39231  1.0000
  C   C2319     1.0  0.82488  0.04858  0.40539  1.0000
  C   C2320     1.0  0.83575  0.06900  0.36837  1.0000
  C   C2321     1.0  0.83510  0.07902  0.40365  1.0000
  C   C2322     1.0  0.80820  0.06806  0.39131  1.0000
  C   C2323     1.0  0.79620  0.05493  0.38536  1.0000
  C   C2324     1.0  0.80298  0.08326  0.39461  1.0000
  C   C2325     1.0  0.77986  0.05661  0.38366  1.0000
  C   C2326     1.0  0.78665  0.08489  0.39263  1.0000
  C   C2327     1.0  0.77510  0.07158  0.38726  1.0000
  H   H2783     1.0  0.82079  0.03824  0.39606  1.0000
  H   H2784     1.0  0.83771  0.04749  0.40812  1.0000
  H   H2785     1.0  0.81597  0.04523  0.42275  1.0000
  H   H2786     1.0  0.83018  0.05891  0.35942  1.0000
  H   H2787     1.0  0.84920  0.06849  0.36827  1.0000
  H   H2788     1.0  0.83631  0.08193  0.35766  1.0000
  H   H2789     1.0  0.82766  0.07827  0.42135  1.0000
  H   H2790     1.0  0.84771  0.07661  0.40555  1.0000
  H   H2791     1.0  0.83835  0.09261  0.39320  1.0000
  H   H2792     1.0  0.79941  0.04336  0.38152  1.0000
  H   H2793     1.0  0.81132  0.09417  0.39854  1.0000
  H   H2794     1.0  0.77098  0.04642  0.37895  1.0000
  H   H2795     1.0  0.78294  0.09663  0.39503  1.0000
  H   H2796     1.0  0.76255  0.07304  0.38544  1.0000
  H   H2797     1.0  0.95088  0.07251  0.98677  1.0000
  H   H2798     1.0  0.88758  0.30814  0.39140  1.0000
  H   H2799     1.0  0.75340  0.23067  0.17756  1.0000
  H   H2800     1.0  0.96203  0.04752  0.98227  1.0000
  C   C2328     1.0  0.73665  0.19089  0.25907  1.0000
  H   H2801     1.0  0.76029  0.24946  0.13823  1.0000
  H   H2802     1.0  0.74342  0.07092  0.00112  1.0000
  N   N152      1.0  0.77329  0.06192  0.27049  1.0000
  H   H2803     1.0  0.95076  0.99836  0.32603  1.0000
  H   H2804     1.0  0.92372  0.00794  0.35674  1.0000
  H   H2805     1.0  0.82152  0.00819  0.31332  1.0000
  C   C2329     1.0  0.93095  0.03500  0.27592  1.0000
  H   H2806     1.0  0.79906  0.08104  0.34138  1.0000
  H   H2807     1.0  0.97727  0.03156  0.16898  1.0000
  H   H2808     1.0  0.74410  0.06032  0.35641  1.0000
  H   H2809     1.0  0.87179  0.30921  0.32923  1.0000
  H   H2810     1.0  0.90883  0.00684  0.32388  1.0000
  Fe  Fe316     1.0  0.74012  0.99655  0.28500  1.0000
  H   H2811     1.0  0.74146  0.14711  0.10441  1.0000
  S   S629      1.0  0.98265  0.01353  0.26750  1.0000
  H   H2812     1.0  0.90811  0.00592  0.99357  1.0000
  S   S630      1.0  0.98237  0.02097  0.12594  1.0000
  H   H2813     1.0  0.80284  0.99772  0.28766  1.0000
  C   C2330     1.0  0.74588  0.23206  0.00004  1.0000
  S   S631      1.0  0.87673  0.00345  0.97297  1.0000
  H   H2814     1.0  0.76091  0.01141  0.32698  1.0000
  C   C2331     1.0  0.80831  0.00879  0.31653  1.0000
  H   H2815     1.0  0.76594  0.25220  0.00549  1.0000
  S   S632      1.0  0.74275  0.09529  0.35880  1.0000
  H   H2816     1.0  0.97426  0.20800  0.46217  1.0000
  H   H2817     1.0  0.74234  0.29401  0.14015  1.0000
  C   C2332     1.0  0.93345  0.06491  0.46007  1.0000
  H   H2818     1.0  0.98336  0.12163  0.37072  1.0000
  H   H2819     1.0  0.89935  0.03219  0.46050  1.0000
  C   C2333     1.0  0.77417  0.15439  0.46817  1.0000
  C   C2334     1.0  0.77132  0.24865  0.97066  1.0000
  C   C2335     1.0  0.98547  0.07757  0.98245  1.0000
  H   H2820     1.0  0.73638  0.19009  0.97632  1.0000
  H   H2821     1.0  0.88346  0.27682  0.47320  1.0000
  S   S633      1.0  0.94329  0.08379  0.51288  1.0000
  H   H2822     1.0  0.93247  0.04804  0.53839  1.0000
  H   H2823     1.0  0.75724  0.26045  0.56429  1.0000
  C   C2336     1.0  0.97259  0.04236  0.52419  1.0000
  H   H2824     1.0  0.80569  0.16516  0.51234  1.0000
  H   H2825     1.0  0.81475  0.31656  0.80686  1.0000
  C   C2337     1.0  0.98479  0.08329  0.94073  1.0000
  C   C2338     1.0  0.97070  0.05522  0.96554  1.0000
  C   C2339     1.0  0.87805  0.31943  0.93518  1.0000
  C   C2340     1.0  0.86254  0.03230  0.93021  1.0000
  C   C2341     1.0  0.95377  0.03274  0.63940  1.0000
  C   C2342     1.0  0.78900  0.19989  0.50442  1.0000
  H   H2826     1.0  0.88193  0.04271  0.96037  1.0000
  H   H2827     1.0  0.94059  0.06949  0.47283  1.0000
  Fe  Fe317     1.0  0.88227  0.99639  0.93849  1.0000
  S   S634      1.0  0.90086  0.01370  0.90585  1.0000
  Fe  Fe318     1.0  0.82279  0.23759  0.51183  1.0000
  S   S635      1.0  0.83675  0.21967  0.49668  1.0000
  S   S636      1.0  0.80543  0.22829  0.54812  1.0000
  Fe  Fe319     1.0  0.97043  0.99934  0.54721  1.0000
  H   H2828     1.0  0.76730  0.17791  0.54132  1.0000
  N   N153      1.0  0.97128  0.03845  0.59866  1.0000
  C   C2343     1.0  0.89492  0.99805  0.85175  1.0000
  S   S637      1.0  0.84592  0.26053  0.50073  1.0000
  Fe  Fe320     1.0  0.86693  0.26683  0.85019  1.0000
  S   S638      1.0  0.86529  0.29290  0.83244  1.0000
  S   S639      1.0  0.88936  0.25505  0.84265  1.0000
  Fe  Fe321     1.0  0.83119  0.25831  0.88144  1.0000
  S   S640      1.0  0.82680  0.28403  0.86594  1.0000
  S   S641      1.0  0.81491  0.23860  0.91407  1.0000
  Fe  Fe322     1.0  0.83839  0.27924  0.83150  1.0000
  S   S642      1.0  0.83164  0.28989  0.79754  1.0000
  Fe  Fe323     1.0  0.85389  0.29592  0.86787  1.0000
  C   C2344     1.0  0.76093  0.25740  0.58117  1.0000
  S   S643      1.0  0.84088  0.25265  0.84682  1.0000
  S   S644      1.0  0.85757  0.27072  0.88579  1.0000
  H   H2829     1.0  0.74538  0.22065  0.70971  1.0000
  H   H2830     1.0  0.94789  0.06693  0.87354  1.0000
  Fe  Fe324     1.0  0.96453  0.26889  0.54498  1.0000
  S   S645      1.0  0.93847  0.27363  0.54153  1.0000
  S   S646      1.0  0.96401  0.24497  0.57091  1.0000
  H   H2831     1.0  0.90679  0.27502  0.91261  1.0000
  S   S647      1.0  0.96497  0.29622  0.78607  1.0000
  C   C2345     1.0  0.92735  0.20083  0.50129  1.0000
  H   H2832     1.0  0.81292  0.18573  0.51944  1.0000
  H   H2833     1.0  0.87951  0.30928  0.94843  1.0000
  Fe  Fe325     1.0  0.78534  0.27750  0.65045  1.0000
  S   S648      1.0  0.76293  0.28914  0.65111  1.0000
  S   S649      1.0  0.80216  0.28141  0.61449  1.0000
  Fe  Fe326     1.0  0.77866  0.26855  0.70340  1.0000
  S   S650      1.0  0.75574  0.27955  0.70728  1.0000
  S   S651      1.0  0.78475  0.25419  0.73587  1.0000
  C   C2346     1.0  0.92427  0.30819  0.91305  1.0000
  Fe  Fe327     1.0  0.77224  0.30190  0.67847  1.0000
  H   H2834     1.0  0.93914  0.15835  0.52480  1.0000
  S   S652      1.0  0.77029  0.25322  0.67739  1.0000
  S   S653      1.0  0.79567  0.29177  0.67616  1.0000
  H   H2835     1.0  0.87969  0.25754  0.69770  1.0000
  H   H2836     1.0  0.95694  0.22516  0.52465  1.0000
  C   C2347     1.0  0.87132  0.31500  0.91638  1.0000
  C   C2348     1.0  0.93851  0.05907  0.88892  1.0000
  H   H2837     1.0  0.85095  0.24289  0.80025  1.0000
  H   H2838     1.0  0.86745  0.30151  0.91542  1.0000
  H   H2839     1.0  0.86904  0.24010  0.81145  1.0000
  C   C2349     1.0  0.79537  0.22293  0.91667  1.0000
  C   C2350     1.0  0.78873  0.20970  0.93707  1.0000
  C   C2351     1.0  0.77264  0.19770  0.94056  1.0000
  C   C2352     1.0  0.76293  0.19906  0.92378  1.0000
  C   C2353     1.0  0.76961  0.21223  0.90336  1.0000
  C   C2354     1.0  0.78581  0.22403  0.89970  1.0000
  H   H2840     1.0  0.92391  0.25127  0.47421  1.0000
  S   S654      1.0  0.95341  0.02820  0.79843  1.0000
  H   H2841     1.0  0.76212  0.21343  0.89037  1.0000
  H   H2842     1.0  0.79071  0.23422  0.88404  1.0000
  C   C2355     1.0  0.81797  0.27968  0.78129  1.0000
  C   C2356     1.0  0.80938  0.26194  0.78786  1.0000
  C   C2357     1.0  0.79917  0.25437  0.77387  1.0000
  C   C2358     1.0  0.79730  0.26444  0.75331  1.0000
  C   C2359     1.0  0.80576  0.28220  0.74688  1.0000
  C   C2360     1.0  0.81607  0.28974  0.76077  1.0000
  H   H2843     1.0  0.81068  0.25403  0.80361  1.0000
  H   H2844     1.0  0.79271  0.24061  0.77899  1.0000
  H   H2845     1.0  0.80450  0.29010  0.73110  1.0000
  H   H2846     1.0  0.82270  0.30345  0.75545  1.0000
  C   C2361     1.0  0.91024  0.26657  0.82647  1.0000
  C   C2362     1.0  0.91417  0.28417  0.81541  1.0000
  C   C2363     1.0  0.93101  0.29296  0.80308  1.0000
  C   C2364     1.0  0.94403  0.28424  0.80140  1.0000
  C   C2365     1.0  0.94005  0.26658  0.81216  1.0000
  C   C2366     1.0  0.92320  0.25780  0.82468  1.0000
  H   H2847     1.0  0.90431  0.29106  0.81634  1.0000
  H   H2848     1.0  0.93402  0.30662  0.79470  1.0000
  H   H2849     1.0  0.94998  0.25975  0.81099  1.0000
  H   H2850     1.0  0.92025  0.24416  0.83312  1.0000
  C   C2367     1.0  0.80503  0.24299  0.56676  1.0000
  C   C2368     1.0  0.81332  0.26073  0.55867  1.0000
  C   C2369     1.0  0.81247  0.27220  0.57366  1.0000
  C   C2370     1.0  0.80335  0.26611  0.59689  1.0000
  C   C2371     1.0  0.79513  0.24833  0.60510  1.0000
  C   C2372     1.0  0.79592  0.23685  0.59004  1.0000
  H   H2851     1.0  0.82029  0.26566  0.54079  1.0000
  H   H2852     1.0  0.81880  0.28592  0.56714  1.0000
  H   H2853     1.0  0.78826  0.24341  0.62302  1.0000
  H   H2854     1.0  0.78955  0.22313  0.59648  1.0000
  C   C2373     1.0  0.92450  0.26547  0.52425  1.0000
  C   C2374     1.0  0.93060  0.26134  0.50327  1.0000
  C   C2375     1.0  0.91906  0.25467  0.49025  1.0000
  C   C2376     1.0  0.90131  0.25238  0.49777  1.0000
  C   C2377     1.0  0.89524  0.25705  0.51837  1.0000
  C   C2378     1.0  0.90678  0.26352  0.53153  1.0000
  H   H2855     1.0  0.94424  0.26337  0.49702  1.0000
  H   H2856     1.0  0.74604  0.24549  0.74305  1.0000
  H   H2857     1.0  0.88163  0.25541  0.52437  1.0000
  H   H2858     1.0  0.90193  0.26687  0.54760  1.0000
  C   C2379     1.0  0.92780  0.04302  0.88815  1.0000
  C   C2380     1.0  0.91529  0.03291  0.90786  1.0000
  C   C2381     1.0  0.91387  0.03873  0.92846  1.0000
  H   H2859     1.0  0.92905  0.03859  0.87213  1.0000
  Fe  Fe328     1.0  0.95815  0.10568  0.48232  1.0000
  H   H2860     1.0  0.90264  0.26590  0.76128  1.0000
  C   C2382     1.0  0.74300  0.21462  0.76756  1.0000
  Fe  Fe329     1.0  0.97211  0.10103  0.88321  1.0000
  S   S655      1.0  0.74177  0.18583  0.92827  1.0000
  H   H2861     1.0  0.93964  0.02739  0.67490  1.0000
  H   H2862     1.0  0.89165  0.25566  0.73180  1.0000
  C   C2383     1.0  0.85545  0.25998  0.71512  1.0000
  H   H2863     1.0  0.92987  0.00888  0.84332  1.0000
  H   H2864     1.0  0.86334  0.22923  0.78923  1.0000
  C   C2384     1.0  0.92424  0.05492  0.92909  1.0000
  C   C2385     1.0  0.93646  0.06522  0.90929  1.0000
  S   S656      1.0  0.94807  0.08611  0.91045  1.0000
  H   H2865     1.0  0.86252  0.27461  0.79043  1.0000
  H   H2866     1.0  0.97887  0.08479  0.49712  1.0000
  H   H2867     1.0  0.84397  0.26058  0.77170  1.0000
  H   H2868     1.0  0.90129  0.29736  0.51484  1.0000
  H   H2869     1.0  0.91265  0.22597  0.55031  1.0000
  H   H2870     1.0  0.90858  0.31107  0.85032  1.0000
  H   H2871     1.0  0.85187  0.02208  0.94280  1.0000
  C   C2386     1.0  0.90309  0.07372  0.88612  1.0000
  H   H2872     1.0  0.91138  0.22203  0.52258  1.0000
  C   C2387     1.0  0.98107  0.20270  0.51703  1.0000
  H   H2873     1.0  0.96374  0.05223  0.95182  1.0000
  H   H2874     1.0  0.91663  0.31460  0.47807  1.0000
  C   C2388     1.0  0.95462  0.06794  0.51739  1.0000
  C   C2389     1.0  0.87200  0.25811  0.71406  1.0000
  H   H2875     1.0  0.88103  0.27272  0.80112  1.0000
  C   C2390     1.0  0.84554  0.26081  0.73603  1.0000
  C   C2391     1.0  0.95500  0.03835  0.53400  1.0000
  C   C2392     1.0  0.94606  0.05118  0.53079  1.0000
  H   H2876     1.0  0.88344  0.28456  0.77196  1.0000
  H   H2877     1.0  0.89405  0.24239  0.76801  1.0000
  H   H2878     1.0  0.94821  0.02538  0.54387  1.0000
  C   C2393     1.0  0.98291  0.03691  0.65776  1.0000
  H   H2879     1.0  0.98224  0.05013  0.96325  1.0000
  H   H2880     1.0  0.78796  0.18152  0.54727  1.0000
  C   C2394     1.0  0.94516  0.03597  0.47876  1.0000
  C   C2395     1.0  0.77739  0.17143  0.49789  1.0000
  H   H2881     1.0  0.79680  0.20767  0.51422  1.0000
  H   H2882     1.0  0.88621  0.04851  0.89473  1.0000
  C   C2396     1.0  0.75305  0.25381  0.62253  1.0000
  Fe  Fe330     1.0  0.98448  0.26215  0.58340  1.0000
  C   C2397     1.0  0.89974  0.28059  0.90040  1.0000
  C   C2398     1.0  0.92734  0.03385  0.47988  1.0000
  H   H2883     1.0  0.77787  0.16065  0.54243  1.0000
  H   H2884     1.0  0.84090  0.30023  0.52435  1.0000
  H   H2885     1.0  0.93443  0.31905  0.93960  1.0000
  S   S657      1.0  0.98365  0.28655  0.55923  1.0000
  H   H2886     1.0  0.93189  0.21683  0.57118  1.0000
  Fe  Fe331     1.0  0.74840  0.26574  0.67961  1.0000
  C   C2399     1.0  0.86958  0.32803  0.89898  1.0000
  H   H2887     1.0  0.97517  0.19535  0.83983  1.0000
  N   N154      1.0  0.91073  0.29625  0.88281  1.0000
  H   H2888     1.0  0.85881  0.03358  0.91323  1.0000
  C   C2400     1.0  0.92810  0.18845  0.48787  1.0000
  H   H2889     1.0  0.87918  0.08214  0.94276  1.0000
  H   H2890     1.0  0.79550  0.32839  0.70560  1.0000
  H   H2891     1.0  0.89763  0.25355  0.79041  1.0000
  H   H2892     1.0  0.92679  0.29586  0.91926  1.0000
  H   H2893     1.0  0.79793  0.16396  0.47636  1.0000
  C   C2401     1.0  0.90072  0.30045  0.86533  1.0000
  C   C2402     1.0  0.88011  0.06289  0.92160  1.0000
  C   C2403     1.0  0.74955  0.27867  0.59702  1.0000
  H   H2894     1.0  0.91969  0.09928  0.88179  1.0000
  H   H2895     1.0  0.83267  0.26233  0.73681  1.0000
  C   C2404     1.0  0.96398  0.05569  0.81787  1.0000
  H   H2896     1.0  0.77363  0.24190  0.93751  1.0000
  H   H2897     1.0  0.85027  0.26083  0.69971  1.0000
  C   C2405     1.0  0.90839  0.05159  0.49046  1.0000
  H   H2898     1.0  0.91093  0.29128  0.48032  1.0000
  H   H2899     1.0  0.91020  0.07146  0.87044  1.0000
  C   C2406     1.0  0.86927  0.04565  0.96112  1.0000
  C   C2407     1.0  0.78442  0.16322  0.48087  1.0000
  H   H2900     1.0  0.95179  0.07781  0.95656  1.0000
  H   H2901     1.0  0.97050  0.06526  0.59316  1.0000
  H   H2902     1.0  0.78352  0.25847  0.96547  1.0000
  C   C2408     1.0  0.92893  0.32144  0.92463  1.0000
  C   C2409     1.0  0.84969  0.05480  0.93925  1.0000
  H   H2903     1.0  0.85311  0.29349  0.55858  1.0000
  S   S658      1.0  0.81220  0.24431  0.48036  1.0000
  H   H2904     1.0  0.83853  0.04453  0.95097  1.0000
  N   N155      1.0  0.87550  0.25668  0.77700  1.0000
  C   C2410     1.0  0.89322  0.25454  0.77385  1.0000
  C   C2411     1.0  0.87560  0.27283  0.78546  1.0000
  C   C2412     1.0  0.86421  0.24159  0.79520  1.0000
  C   C2413     1.0  0.86891  0.25776  0.75557  1.0000
  C   C2414     1.0  0.85213  0.25974  0.75595  1.0000
  C   C2415     1.0  0.87873  0.25702  0.73391  1.0000
  H   H2905     1.0  0.88920  0.30433  0.87315  1.0000
  H   H2906     1.0  0.80876  0.32299  0.63147  1.0000
  H   H2907     1.0  0.96496  0.02393  0.48687  1.0000
  H   H2908     1.0  0.90457  0.03093  0.94381  1.0000
  H   H2909     1.0  0.81312  0.18512  0.48997  1.0000
  H   H2910     1.0  0.91846  0.00300  0.81205  1.0000
  H   H2911     1.0  0.73617  0.16172  0.49000  1.0000
  H   H2912     1.0  0.85056  0.06670  0.94628  1.0000
  C   C2416     1.0  0.91622  0.31073  0.89415  1.0000
  C   C2417     1.0  0.75966  0.17062  0.50082  1.0000
  H   H2913     1.0  0.75033  0.20330  0.72806  1.0000
  H   H2914     1.0  0.90256  0.01443  0.49217  1.0000
  H   H2915     1.0  0.84667  0.05775  0.92189  1.0000
  H   H2916     1.0  0.76174  0.22558  0.72523  1.0000
  H   H2917     1.0  0.94339  0.23236  0.50717  1.0000
  C   C2418     1.0  0.97890  0.21099  0.49568  1.0000
  H   H2918     1.0  0.88867  0.28372  0.91083  1.0000
  C   C2419     1.0  0.93547  0.17009  0.51854  1.0000
  C   C2420     1.0  0.85424  0.29999  0.52197  1.0000
  H   H2919     1.0  0.75263  0.23972  0.62564  1.0000
  C   C2421     1.0  0.93071  0.19821  0.52385  1.0000
  C   C2422     1.0  0.87810  0.29544  0.53817  1.0000
  C   C2423     1.0  0.96394  0.05273  0.58956  1.0000
  H   H2920     1.0  0.96327  0.02213  0.57579  1.0000
  C   C2424     1.0  0.80563  0.17910  0.50812  1.0000
  C   C2425     1.0  0.75024  0.22632  0.96155  1.0000
  H   H2921     1.0  0.97213  0.25528  0.67215  1.0000
  C   C2426     1.0  0.89964  0.09228  0.91284  1.0000
  C   C2427     1.0  0.93214  0.17311  0.49649  1.0000
  H   H2922     1.0  0.79509  0.20503  0.48562  1.0000
  C   C2428     1.0  0.91626  0.01701  0.49042  1.0000
  H   H2923     1.0  0.79601  0.20885  0.95035  1.0000
  S   S659      1.0  0.98473  0.26484  0.51740  1.0000
  S   S660      1.0  0.98203  0.12638  0.48053  1.0000
  N   N156      1.0  0.93029  0.21176  0.53743  1.0000
  N   N157      1.0  0.78787  0.18109  0.51147  1.0000
  H   H2924     1.0  0.93388  0.28778  0.88309  1.0000
  H   H2925     1.0  0.92244  0.28084  0.86233  1.0000
  H   H2926     1.0  0.84621  0.32608  0.79824  1.0000
  H   H2927     1.0  0.92288  0.19447  0.57135  1.0000
  C   C2429     1.0  0.97005  0.03680  0.62388  1.0000
  C   C2430     1.0  0.96891  0.04577  0.80225  1.0000
  C   C2431     1.0  0.96148  0.02192  0.59460  1.0000
  C   C2432     1.0  0.98468  0.26433  0.66548  1.0000
  H   H2928     1.0  0.75546  0.22433  0.76579  1.0000
  H   H2929     1.0  0.94575  0.20439  0.56105  1.0000
  H   H2930     1.0  0.95002  0.05004  0.59725  1.0000
  C   C2433     1.0  0.88918  0.06056  0.90040  1.0000
  H   H2931     1.0  0.97721  0.16167  0.50689  1.0000
  H   H2932     1.0  0.97208  0.07755  0.83304  1.0000
  C   C2434     1.0  0.97214  0.07186  0.50740  1.0000
  H   H2933     1.0  0.88336  0.29229  0.55320  1.0000
  H   H2934     1.0  0.96528  0.05480  0.57041  1.0000
  H   H2935     1.0  0.90398  0.10451  0.91774  1.0000
  H   H2936     1.0  0.97688  0.08044  0.92797  1.0000
  S   S661      1.0  0.86180  0.32318  0.87445  1.0000
  H   H2937     1.0  0.87408  0.02717  0.92887  1.0000
  H   H2938     1.0  0.74252  0.28209  0.61236  1.0000
  N   N158      1.0  0.86570  0.04908  0.93762  1.0000
  H   H2939     1.0  0.95460  0.04834  0.47161  1.0000
  H   H2940     1.0  0.92261  0.05958  0.94491  1.0000
  H   H2941     1.0  0.74455  0.28335  0.58174  1.0000
  H   H2942     1.0  0.80218  0.32429  0.82830  1.0000
  C   C2435     1.0  0.90845  0.08943  0.89246  1.0000
  H   H2943     1.0  0.76309  0.28647  0.59422  1.0000
  H   H2944     1.0  0.89450  0.26984  0.89220  1.0000
  C   C2436     1.0  0.74957  0.16183  0.48792  1.0000
  H   H2945     1.0  0.90323  0.06283  0.48462  1.0000
  C   C2437     1.0  0.95220  0.03079  0.66332  1.0000
  C   C2438     1.0  0.92606  0.29182  0.87090  1.0000
  N   N159      1.0  0.74819  0.25970  0.60052  1.0000
  H   H2946     1.0  0.77624  0.20263  0.50739  1.0000
  S   S662      1.0  0.88734  0.24316  0.48120  1.0000
  C   C2439     1.0  0.88557  0.07931  0.92713  1.0000
  H   H2947     1.0  0.76761  0.18772  0.95641  1.0000
  H   H2948     1.0  0.94745  0.01912  0.60164  1.0000
  C   C2440     1.0  0.86108  0.29614  0.54123  1.0000
  H   H2949     1.0  0.96554  0.03090  0.69108  1.0000
  S   S663      1.0  0.97539  0.11445  0.84603  1.0000
  C   C2441     1.0  0.93494  0.18246  0.53204  1.0000
  H   H2950     1.0  0.92077  0.99712  0.87235  1.0000
  H   H2951     1.0  0.93832  0.17953  0.54855  1.0000
  H   H2952     1.0  0.95084  0.05231  0.82764  1.0000
  C   C2442     1.0  0.91355  0.21616  0.53957  1.0000
  Fe  Fe332     1.0  0.96239  0.00849  0.78057  1.0000
  H   H2953     1.0  0.92444  0.21265  0.49361  1.0000
  C   C2443     1.0  0.97599  0.20148  0.47856  1.0000
  H   H2954     1.0  0.90271  0.20438  0.54762  1.0000
  C   C2444     1.0  0.88832  0.29840  0.51585  1.0000
  C   C2445     1.0  0.94011  0.00567  0.49776  1.0000
  Fe  Fe333     1.0  0.85926  0.24333  0.48323  1.0000
  C   C2446     1.0  0.95136  0.02199  0.48751  1.0000
  H   H2955     1.0  0.90026  0.01194  0.84226  1.0000
  H   H2956     1.0  0.94373  0.23852  0.53430  1.0000
  H   H2957     1.0  0.84621  0.31882  0.82792  1.0000
  C   C2447     1.0  0.94414  0.22765  0.52534  1.0000
  H   H2958     1.0  0.98213  0.17828  0.53724  1.0000
  C   C2448     1.0  0.86433  0.30295  0.49959  1.0000
  N   N160      1.0  0.89168  0.30413  0.47195  1.0000
  C   C2449     1.0  0.93277  0.20652  0.56129  1.0000
  H   H2959     1.0  0.93324  0.16377  0.48576  1.0000
  C   C2450     1.0  0.77986  0.17496  0.53666  1.0000
  C   C2451     1.0  0.98041  0.18485  0.52086  1.0000
  C   C2452     1.0  0.74888  0.21678  0.72653  1.0000
  H   H2960     1.0  0.74560  0.20159  0.77070  1.0000
  S   S664      1.0  0.94946  0.99815  0.75411  1.0000
  H   H2961     1.0  0.75357  0.17718  0.51266  1.0000
  S   S665      1.0  0.98444  0.02690  0.52841  1.0000
  H   H2962     1.0  0.74685  0.21908  0.94885  1.0000
  H   H2963     1.0  0.97952  0.22471  0.49222  1.0000
  C   C2453     1.0  0.88166  0.30211  0.49580  1.0000
  C   C2454     1.0  0.97537  0.18363  0.48237  1.0000
  H   H2964     1.0  0.77393  0.26612  0.57920  1.0000
  H   H2965     1.0  0.94210  0.03083  0.63315  1.0000
  C   C2455     1.0  0.97598  0.07002  0.82090  1.0000
  H   H2966     1.0  0.93454  0.30313  0.85722  1.0000
  H   H2967     1.0  0.89719  0.04022  0.49859  1.0000
  H   H2968     1.0  0.76625  0.26116  0.62246  1.0000
  H   H2969     1.0  0.76264  0.24398  0.58414  1.0000
  C   C2456     1.0  0.91397  0.32764  0.88684  1.0000
  H   H2970     1.0  0.74425  0.25566  0.63771  1.0000
  S   S666      1.0  0.98069  0.25762  0.62307  1.0000
  C   C2457     1.0  0.81444  0.32071  0.82356  1.0000
  C   C2458     1.0  0.98111  0.05914  0.51094  1.0000
  N   N161      1.0  0.97543  0.07415  0.96481  1.0000
  C   C2459     1.0  0.96675  0.03286  0.67247  1.0000
  H   H2971     1.0  0.91519  0.05477  0.50428  1.0000
  C   C2460     1.0  0.75681  0.15369  0.47169  1.0000
  H   H2972     1.0  0.92588  0.19089  0.47049  1.0000
  C   C2461     1.0  0.97764  0.17537  0.50366  1.0000
  H   H2973     1.0  0.85819  0.30526  0.48528  1.0000
  Fe  Fe334     1.0  0.98504  0.24161  0.54402  1.0000
  H   H2974     1.0  0.81397  0.30886  0.83655  1.0000
  H   H2975     1.0  0.89599  0.28903  0.85809  1.0000
  C   C2462     1.0  0.76571  0.23933  0.95488  1.0000
  H   H2976     1.0  0.73648  0.23188  0.58008  1.0000
  H   H2977     1.0  0.96564  0.01066  0.60289  1.0000
  C   C2463     1.0  0.92261  0.00318  0.49921  1.0000
  H   H2978     1.0  0.86941  0.05682  0.96951  1.0000
  H   H2979     1.0  0.89134  0.99806  0.87044  1.0000
  S   S667      1.0  0.98487  0.21394  0.53942  1.0000
  H   H2980     1.0  0.82890  0.32615  0.85860  1.0000
  N   N162      1.0  0.92019  0.04830  0.47101  1.0000
  C   C2464     1.0  0.98465  0.03886  0.63380  1.0000
  H   H2981     1.0  0.96244  0.09397  0.96986  1.0000
  C   C2465     1.0  0.90988  0.30401  0.47081  1.0000
  C   C2466     1.0  0.95948  0.07986  0.96979  1.0000
  N   N163      1.0  0.73599  0.21786  0.74653  1.0000
  Fe  Fe335     1.0  0.86460  0.60233  0.32297  1.0000
  S   S668      1.0  0.86437  0.57396  0.32889  1.0000
  S   S669      1.0  0.89091  0.62036  0.30293  1.0000
  Fe  Fe336     1.0  0.82629  0.59289  0.34725  1.0000
  S   S670      1.0  0.82370  0.56406  0.35484  1.0000
  S   S671      1.0  0.80387  0.60456  0.35669  1.0000
  Fe  Fe337     1.0  0.84918  0.57136  0.36466  1.0000
  S   S672      1.0  0.85401  0.55784  0.39842  1.0000
  Fe  Fe338     1.0  0.83905  0.56911  0.31812  1.0000
  S   S673      1.0  0.83591  0.55100  0.29290  1.0000
  S   S674      1.0  0.85068  0.59993  0.35969  1.0000
  S   S675      1.0  0.84030  0.59768  0.30971  1.0000
  Fe  Fe339     1.0  0.83274  0.59031  0.01026  1.0000
  S   S676      1.0  0.83269  0.61754  0.99411  1.0000
  S   S677      1.0  0.81030  0.57704  0.04110  1.0000
  C   C2467     1.0  0.85593  0.42213  0.26864  1.0000
  S   S678      1.0  0.86108  0.59756  0.00838  1.0000
  S   S679      1.0  0.87352  0.64962  0.00136  1.0000
  C   C2468     1.0  0.84481  0.38694  0.04450  1.0000
  H   H2982     1.0  0.97141  0.45201  0.97653  1.0000
  H   H2983     1.0  0.84566  0.33292  0.25904  1.0000
  C   C2469     1.0  0.82816  0.39619  0.08320  1.0000
  Fe  Fe340     1.0  0.89959  0.38744  0.00893  1.0000
  S   S680      1.0  0.89259  0.39168  0.04543  1.0000
  S   S681      1.0  0.91800  0.37370  0.99262  1.0000
  Fe  Fe341     1.0  0.92222  0.52022  0.44347  1.0000
  S   S682      1.0  0.94309  0.50651  0.44337  1.0000
  S   S683      1.0  0.92252  0.53640  0.40850  1.0000
  H   H2984     1.0  0.79609  0.59549  0.00792  1.0000
  H   H2985     1.0  0.77380  0.57247  0.03260  1.0000
  S   S684      1.0  0.92578  0.45904  0.44862  1.0000
  H   H2986     1.0  0.82744  0.39042  0.21831  1.0000
  Fe  Fe342     1.0  0.89248  0.40878  0.36180  1.0000
  S   S685      1.0  0.90751  0.42118  0.32526  1.0000
  S   S686      1.0  0.88141  0.42567  0.38344  1.0000
  Fe  Fe343     1.0  0.89764  0.37322  0.35938  1.0000
  S   S687      1.0  0.91358  0.38314  0.32303  1.0000
  S   S688      1.0  0.89575  0.34474  0.37296  1.0000
  Fe  Fe344     1.0  0.92618  0.40646  0.33510  1.0000
  S   S689      1.0  0.95490  0.41773  0.32241  1.0000
  Fe  Fe345     1.0  0.89358  0.39690  0.31591  1.0000
  S   S690      1.0  0.88815  0.39813  0.27967  1.0000
  S   S691      1.0  0.91206  0.39531  0.37214  1.0000
  S   S692      1.0  0.87666  0.38561  0.35176  1.0000
  Fe  Fe346     1.0  0.80244  0.37239  0.17410  1.0000
  S   S693      1.0  0.82964  0.37298  0.17634  1.0000
  S   S694      1.0  0.79736  0.39774  0.15773  1.0000
  H   H2987     1.0  0.76188  0.54573  0.37733  1.0000
  C   C2470     1.0  0.90329  0.64041  0.30653  1.0000
  Fe  Fe347     1.0  0.81748  0.35526  0.21168  1.0000
  S   S695      1.0  0.82374  0.35743  0.24693  1.0000
  Fe  Fe348     1.0  0.82491  0.34872  0.16232  1.0000
  C   C2471     1.0  0.94178  0.37435  0.27032  1.0000
  S   S696      1.0  0.79039  0.35586  0.20996  1.0000
  S   S697      1.0  0.79866  0.34943  0.15725  1.0000
  C   C2472     1.0  0.74443  0.45473  0.14253  1.0000
  S   S698      1.0  0.77188  0.48662  0.16392  1.0000
  Fe  Fe349     1.0  0.77520  0.51241  0.21279  1.0000
  S   S699      1.0  0.79663  0.50220  0.19694  1.0000
  S   S700      1.0  0.77516  0.52570  0.24336  1.0000
  Fe  Fe350     1.0  0.79043  0.51205  0.16275  1.0000
  S   S701      1.0  0.81325  0.52541  0.13254  1.0000
  Fe  Fe351     1.0  0.77620  0.47781  0.19942  1.0000
  S   S702      1.0  0.77689  0.45075  0.21691  1.0000
  S   S703      1.0  0.77011  0.52382  0.17843  1.0000
  H   H2988     1.0  0.78107  0.55307  0.99398  1.0000
  C   C2473     1.0  0.79081  0.41204  0.17436  1.0000
  C   C2474     1.0  0.78424  0.40663  0.19835  1.0000
  C   C2475     1.0  0.77971  0.41855  0.21114  1.0000
  C   C2476     1.0  0.78161  0.43591  0.20004  1.0000
  C   C2477     1.0  0.78775  0.44120  0.17598  1.0000
  C   C2478     1.0  0.79233  0.42930  0.16322  1.0000
  H   H2989     1.0  0.78265  0.39327  0.20704  1.0000
  H   H2990     1.0  0.77481  0.41431  0.22972  1.0000
  H   H2991     1.0  0.78931  0.45455  0.16726  1.0000
  H   H2992     1.0  0.79729  0.43355  0.14464  1.0000
  C   C2479     1.0  0.87022  0.38637  0.27102  1.0000
  C   C2480     1.0  0.87132  0.38669  0.24730  1.0000
  C   C2481     1.0  0.85721  0.37810  0.23952  1.0000
  C   C2482     1.0  0.84181  0.36908  0.25543  1.0000
  C   C2483     1.0  0.84072  0.36880  0.27913  1.0000
  C   C2484     1.0  0.85483  0.37734  0.28692  1.0000
  H   H2993     1.0  0.88311  0.39376  0.23481  1.0000
  H   H2994     1.0  0.85829  0.37838  0.22126  1.0000
  H   H2995     1.0  0.82888  0.36181  0.29159  1.0000
  H   H2996     1.0  0.85368  0.37718  0.30514  1.0000
  C   C2485     1.0  0.91323  0.45014  0.43051  1.0000
  C   C2486     1.0  0.91995  0.44052  0.41570  1.0000
  C   C2487     1.0  0.91033  0.43306  0.40118  1.0000
  C   C2488     1.0  0.89374  0.43480  0.40168  1.0000
  C   C2489     1.0  0.88702  0.44452  0.41642  1.0000
  C   C2490     1.0  0.89681  0.45236  0.43061  1.0000
  H   H2997     1.0  0.93269  0.43885  0.41535  1.0000
  H   H2998     1.0  0.91580  0.42594  0.38963  1.0000
  H   H2999     1.0  0.87414  0.44577  0.41697  1.0000
  H   H3000     1.0  0.89149  0.45965  0.44209  1.0000
  C   C2491     1.0  0.87784  0.37695  0.06969  1.0000
  C   C2492     1.0  0.87240  0.35913  0.07055  1.0000
  C   C2493     1.0  0.86117  0.34780  0.09067  1.0000
  C   C2494     1.0  0.85501  0.35425  0.10981  1.0000
  C   C2495     1.0  0.86020  0.37210  0.10877  1.0000
  C   C2496     1.0  0.87170  0.38336  0.08886  1.0000
  H   H3001     1.0  0.87717  0.35406  0.05595  1.0000
  H   H3002     1.0  0.93144  0.48201  0.40044  1.0000
  H   H3003     1.0  0.85560  0.37719  0.12342  1.0000
  H   H3004     1.0  0.87588  0.39712  0.08830  1.0000
  H   H3005     1.0  0.83307  0.44526  0.20340  1.0000
  C   C2497     1.0  0.82959  0.59253  0.09961  1.0000
  H   H3006     1.0  0.93432  0.41171  0.28781  1.0000
  N   N164      1.0  0.77728  0.57858  0.99534  1.0000
  Fe  Fe352     1.0  0.92212  0.48270  0.46181  1.0000
  C   C2498     1.0  0.96695  0.41550  0.99470  1.0000
  H   H3007     1.0  0.75749  0.47759  0.30289  1.0000
  H   H3008     1.0  0.95376  0.40844  0.00278  1.0000
  C   C2499     1.0  0.97175  0.47928  0.97445  1.0000
  C   C2500     1.0  0.96630  0.43344  0.33501  1.0000
  H   H3009     1.0  0.93008  0.47409  0.33911  1.0000
  C   C2501     1.0  0.97206  0.49503  0.32713  1.0000
  H   H3010     1.0  0.95890  0.54676  0.42240  1.0000
  C   C2502     1.0  0.81136  0.56238  0.06607  1.0000
  C   C2503     1.0  0.82670  0.55850  0.06896  1.0000
  C   C2504     1.0  0.82705  0.54709  0.08939  1.0000
  C   C2505     1.0  0.81211  0.53943  0.10703  1.0000
  C   C2506     1.0  0.79677  0.54332  0.10410  1.0000
  C   C2507     1.0  0.79643  0.55478  0.08373  1.0000
  H   H3011     1.0  0.83829  0.56429  0.05553  1.0000
  H   H3012     1.0  0.83897  0.54418  0.09158  1.0000
  H   H3013     1.0  0.78520  0.53756  0.11760  1.0000
  H   H3014     1.0  0.78453  0.55779  0.08170  1.0000
  C   C2508     1.0  0.96734  0.45390  0.36020  1.0000
  H   H3015     1.0  0.85915  0.44515  0.00503  1.0000
  C   C2509     1.0  0.90360  0.64838  0.01703  1.0000
  H   H3016     1.0  0.92632  0.64771  0.03018  1.0000
  H   H3017     1.0  0.90186  0.63548  0.01365  1.0000
  C   C2510     1.0  0.87352  0.55266  0.40044  1.0000
  C   C2511     1.0  0.87660  0.54770  0.42253  1.0000
  C   C2512     1.0  0.89147  0.54249  0.42515  1.0000
  C   C2513     1.0  0.90364  0.54266  0.40560  1.0000
  C   C2514     1.0  0.90084  0.54812  0.38341  1.0000
  C   C2515     1.0  0.88573  0.55295  0.38082  1.0000
  H   H3018     1.0  0.86736  0.54784  0.43768  1.0000
  H   H3019     1.0  0.89367  0.53860  0.44228  1.0000
  H   H3020     1.0  0.91028  0.54845  0.36819  1.0000
  H   H3021     1.0  0.88348  0.55675  0.36370  1.0000
  C   C2516     1.0  0.78875  0.59740  0.38376  1.0000
  C   C2517     1.0  0.77582  0.60597  0.38835  1.0000
  C   C2518     1.0  0.76341  0.60046  0.40951  1.0000
  C   C2519     1.0  0.76385  0.58629  0.42631  1.0000
  C   C2520     1.0  0.77681  0.57776  0.42175  1.0000
  C   C2521     1.0  0.78917  0.58323  0.40058  1.0000
  H   H3022     1.0  0.77547  0.61699  0.37547  1.0000
  H   H3023     1.0  0.75379  0.38091  0.17129  1.0000
  H   H3024     1.0  0.77734  0.56687  0.43466  1.0000
  H   H3025     1.0  0.79904  0.57653  0.39726  1.0000
  C   C2522     1.0  0.81931  0.54598  0.27780  1.0000
  C   C2523     1.0  0.82248  0.53881  0.25827  1.0000
  C   C2524     1.0  0.80936  0.53335  0.24679  1.0000
  C   C2525     1.0  0.79273  0.53454  0.25512  1.0000
  C   C2526     1.0  0.78961  0.54188  0.27449  1.0000
  C   C2527     1.0  0.80282  0.54768  0.28567  1.0000
  H   H3026     1.0  0.83518  0.53742  0.25203  1.0000
  H   H3027     1.0  0.81207  0.52790  0.23180  1.0000
  H   H3028     1.0  0.77682  0.54292  0.28107  1.0000
  H   H3029     1.0  0.80014  0.55309  0.30071  1.0000
  C   C2528     1.0  0.86382  0.48390  0.42303  1.0000
  H   H3030     1.0  0.96068  0.45981  0.37244  1.0000
  C   C2529     1.0  0.73850  0.44836  0.18405  1.0000
  N   N165      1.0  0.89979  0.60870  0.38007  1.0000
  C   C2530     1.0  0.91039  0.59730  0.38823  1.0000
  C   C2531     1.0  0.88361  0.60441  0.39811  1.0000
  C   C2532     1.0  0.89513  0.60444  0.35867  1.0000
  C   C2533     1.0  0.90967  0.62719  0.37503  1.0000
  C   C2534     1.0  0.90405  0.63965  0.38630  1.0000
  C   C2535     1.0  0.92548  0.63325  0.35824  1.0000
  H   H3031     1.0  0.74177  0.45056  0.12658  1.0000
  Fe  Fe353     1.0  0.86143  0.62452  0.99029  1.0000
  N   N166      1.0  0.85403  0.41786  0.02111  1.0000
  H   H3032     1.0  0.91503  0.60085  0.40347  1.0000
  H   H3033     1.0  0.90302  0.58335  0.39351  1.0000
  H   H3034     1.0  0.92177  0.59811  0.37455  1.0000
  H   H3035     1.0  0.87646  0.59044  0.40141  1.0000
  H   H3036     1.0  0.87468  0.61201  0.39261  1.0000
  H   H3037     1.0  0.88610  0.60679  0.41500  1.0000
  H   H3038     1.0  0.88698  0.59086  0.36187  1.0000
  H   H3039     1.0  0.88787  0.61336  0.35152  1.0000
  H   H3040     1.0  0.90646  0.60573  0.34464  1.0000
  H   H3041     1.0  0.89207  0.63643  0.39896  1.0000
  H   H3042     1.0  0.93034  0.62470  0.34848  1.0000
  C   C2536     1.0  0.86656  0.42634  0.24653  1.0000
  S   S704      1.0  0.90105  0.49596  0.45987  1.0000
  H   H3043     1.0  0.83001  0.41354  0.28872  1.0000
  H   H3044     1.0  0.87984  0.42862  0.00007  1.0000
  H   H3045     1.0  0.89119  0.63875  0.25061  1.0000
  H   H3046     1.0  0.85032  0.35152  0.33923  1.0000
  H   H3047     1.0  0.82109  0.59114  0.08790  1.0000
  N   N167      1.0  0.92437  0.49533  0.37087  1.0000
  H   H3048     1.0  0.75851  0.45801  0.14129  1.0000
  H   H3049     1.0  0.83659  0.36079  0.06564  1.0000
  C   C2537     1.0  0.93511  0.65061  0.35322  1.0000
  Fe  Fe354     1.0  0.86337  0.59181  0.97274  1.0000
  H   H3050     1.0  0.95755  0.45607  0.46512  1.0000
  S   S705      1.0  0.75493  0.48722  0.21771  1.0000
  C   C2538     1.0  0.97993  0.47043  0.01075  1.0000
  H   H3051     1.0  0.85792  0.59396  0.14470  1.0000
  H   H3052     1.0  0.86345  0.47395  0.45811  1.0000
  C   C2539     1.0  0.97049  0.54582  0.41135  1.0000
  H   H3053     1.0  0.95723  0.47430  0.31543  1.0000
  H   H3054     1.0  0.96857  0.43923  0.46590  1.0000
  H   H3055     1.0  0.86367  0.34525  0.35803  1.0000
  H   H3056     1.0  0.82973  0.57223  0.15417  1.0000
  H   H3057     1.0  0.86170  0.64462  0.05498  1.0000
  C   C2540     1.0  0.76124  0.58550  0.34867  1.0000
  H   H3058     1.0  0.97356  0.41911  0.02698  1.0000
  H   H3059     1.0  0.86785  0.63823  0.08133  1.0000
  C   C2541     1.0  0.92641  0.49343  0.39515  1.0000
  H   H3060     1.0  0.96063  0.40123  0.28588  1.0000
  H   H3061     1.0  0.92770  0.41924  0.26202  1.0000
  N   N168      1.0  0.77974  0.47523  0.27990  1.0000
  C   C2542     1.0  0.77241  0.45649  0.28089  1.0000
  C   C2543     1.0  0.76519  0.48311  0.28482  1.0000
  C   C2544     1.0  0.78974  0.48341  0.25587  1.0000
  C   C2545     1.0  0.79096  0.47837  0.29628  1.0000
  C   C2546     1.0  0.79869  0.49564  0.29746  1.0000
  C   C2547     1.0  0.79490  0.46469  0.31099  1.0000
  C   C2548     1.0  0.80975  0.49910  0.31219  1.0000
  C   C2549     1.0  0.80593  0.46829  0.32579  1.0000
  C   C2550     1.0  0.81337  0.48545  0.32634  1.0000
  H   H3062     1.0  0.84349  0.51922  0.44260  1.0000
  H   H3063     1.0  0.85840  0.44071  0.03534  1.0000
  C   C2551     1.0  0.74964  0.39281  0.16941  1.0000
  C   C2552     1.0  0.75709  0.40615  0.14967  1.0000
  H   H3064     1.0  0.75653  0.48106  0.27269  1.0000
  H   H3065     1.0  0.76949  0.49747  0.28264  1.0000
  H   H3066     1.0  0.80146  0.47877  0.25183  1.0000
  H   H3067     1.0  0.78208  0.48038  0.24294  1.0000
  H   H3068     1.0  0.79385  0.49784  0.25268  1.0000
  H   H3069     1.0  0.79638  0.50669  0.28680  1.0000
  H   H3070     1.0  0.78970  0.45114  0.31130  1.0000
  H   H3071     1.0  0.81565  0.51251  0.31242  1.0000
  H   H3072     1.0  0.80884  0.45771  0.33683  1.0000
  H   H3073     1.0  0.82201  0.48824  0.33766  1.0000
  H   H3074     1.0  0.81724  0.41210  0.25523  1.0000
  H   H3075     1.0  0.96062  0.54919  0.38059  1.0000
  H   H3076     1.0  0.81873  0.43195  0.19039  1.0000
  C   C2553     1.0  0.84617  0.42048  0.18726  1.0000
  C   C2554     1.0  0.82122  0.40102  0.21368  1.0000
  H   H3077     1.0  0.86683  0.35086  0.40336  1.0000
  H   H3078     1.0  0.76704  0.40449  0.13640  1.0000
  C   C2555     1.0  0.82394  0.58094  0.12135  1.0000
  C   C2556     1.0  0.96417  0.44872  0.45420  1.0000
  H   H3079     1.0  0.95282  0.37469  0.27779  1.0000
  H   H3080     1.0  0.76963  0.59670  0.33574  1.0000
  H   H3081     1.0  0.80983  0.39904  0.22790  1.0000
  C   C2557     1.0  0.98528  0.45970  0.35267  1.0000
  C   C2558     1.0  0.84510  0.40473  0.04290  1.0000
  H   H3082     1.0  0.85508  0.43378  0.18162  1.0000
  H   H3083     1.0  0.91407  0.49167  0.40768  1.0000
  H   H3084     1.0  0.96424  0.42936  0.22961  1.0000
  C   C2559     1.0  0.85956  0.42517  0.22713  1.0000
  C   C2560     1.0  0.74063  0.55719  0.38354  1.0000
  C   C2561     1.0  0.76611  0.57218  0.01905  1.0000
  H   H3085     1.0  0.82190  0.36900  0.09989  1.0000
  C   C2562     1.0  0.83106  0.41600  0.25217  1.0000
  H   H3086     1.0  0.97205  0.42108  0.26583  1.0000
  C   C2563     1.0  0.85264  0.50881  0.41437  1.0000
  H   H3087     1.0  0.92570  0.63986  0.28208  1.0000
  H   H3088     1.0  0.88611  0.33926  0.30347  1.0000
  C   C2564     1.0  0.92023  0.51210  0.36358  1.0000
  H   H3089     1.0  0.94403  0.43657  0.35709  1.0000
  C   C2565     1.0  0.85242  0.43571  0.02180  1.0000
  H   H3090     1.0  0.90088  0.36954  0.24568  1.0000
  C   C2566     1.0  0.95626  0.50695  0.35536  1.0000
  H   H3091     1.0  0.84331  0.33046  0.43479  1.0000
  C   C2567     1.0  0.97178  0.50667  0.34158  1.0000
  C   C2568     1.0  0.78846  0.56678  0.99166  1.0000
  H   H3092     1.0  0.96287  0.46670  0.41213  1.0000
  H   H3093     1.0  0.98376  0.51521  0.34245  1.0000
  H   H3094     1.0  0.87320  0.62089  0.04041  1.0000
  C   C2569     1.0  0.93907  0.41786  0.26905  1.0000
  H   H3095     1.0  0.75371  0.55096  0.98871  1.0000
  H   H3096     1.0  0.84599  0.63871  0.08205  1.0000
  S   S706      1.0  0.91322  0.41334  0.98458  1.0000
  H   H3097     1.0  0.85006  0.40083  0.99739  1.0000
  H   H3098     1.0  0.87497  0.40620  0.01359  1.0000
  H   H3099     1.0  0.89662  0.33206  0.46425  1.0000
  H   H3100     1.0  0.95669  0.51623  0.36626  1.0000
  H   H3101     1.0  0.85729  0.33399  0.09141  1.0000
  H   H3102     1.0  0.87682  0.35716  0.30762  1.0000
  H   H3103     1.0  0.95416  0.44123  0.44683  1.0000
  H   H3104     1.0  0.90816  0.51271  0.37491  1.0000
  S   S707      1.0  0.83493  0.58189  0.97635  1.0000
  C   C2570     1.0  0.89196  0.65802  0.01217  1.0000
  C   C2571     1.0  0.91759  0.65543  0.02631  1.0000
  H   H3105     1.0  0.86304  0.49637  0.38862  1.0000
  H   H3106     1.0  0.85370  0.41063  0.18888  1.0000
  H   H3107     1.0  0.90632  0.48230  0.35332  1.0000
  C   C2572     1.0  0.78852  0.59599  0.99433  1.0000
  C   C2573     1.0  0.75511  0.56312  0.97675  1.0000
  C   C2574     1.0  0.84151  0.41973  0.22943  1.0000
  C   C2575     1.0  0.85001  0.59366  0.13208  1.0000
  C   C2576     1.0  0.84694  0.41280  0.00152  1.0000
  H   H3108     1.0  0.88340  0.64510  0.33119  1.0000
  C   C2577     1.0  0.85459  0.34030  0.34753  1.0000
  C   C2578     1.0  0.86011  0.49634  0.40693  1.0000
  H   H3109     1.0  0.86960  0.47419  0.41718  1.0000
  H   H3110     1.0  0.83968  0.41863  0.17273  1.0000
  H   H3111     1.0  0.75199  0.44932  0.18548  1.0000
  H   H3112     1.0  0.79697  0.56662  0.00412  1.0000
  N   N169      1.0  0.83358  0.41837  0.20933  1.0000
  H   H3113     1.0  0.86857  0.42833  0.21061  1.0000
  H   H3114     1.0  0.85156  0.38276  0.03029  1.0000
  H   H3115     1.0  0.89767  0.48096  0.38315  1.0000
  H   H3116     1.0  0.97303  0.40090  0.25797  1.0000
  H   H3117     1.0  0.79684  0.57100  0.97388  1.0000
  H   H3118     1.0  0.87837  0.42185  0.03085  1.0000
  N   N170      1.0  0.94902  0.40747  0.25711  1.0000
  H   H3119     1.0  0.85239  0.42304  0.98517  1.0000
  C   C2579     1.0  0.93119  0.35782  0.27186  1.0000
  C   C2580     1.0  0.96435  0.40758  0.26705  1.0000
  C   C2581     1.0  0.86623  0.33713  0.40747  1.0000
  C   C2582     1.0  0.93797  0.38973  0.25954  1.0000
  H   H3120     1.0  0.97764  0.50337  0.00173  1.0000
  C   C2583     1.0  0.97143  0.54716  0.38773  1.0000
  H   H3121     1.0  0.78264  0.44997  0.27593  1.0000
  H   H3122     1.0  0.82191  0.39970  0.09848  1.0000
  C   C2584     1.0  0.92033  0.64715  0.29355  1.0000
  H   H3123     1.0  0.94703  0.43124  0.26781  1.0000
  H   H3124     1.0  0.76439  0.44950  0.29840  1.0000
  C   C2585     1.0  0.84893  0.50898  0.43791  1.0000
  C   C2586     1.0  0.86012  0.48390  0.44667  1.0000
  H   H3125     1.0  0.91871  0.51415  0.34535  1.0000
  H   H3126     1.0  0.83622  0.42219  0.06364  1.0000
  C   C2587     1.0  0.89649  0.65002  0.32119  1.0000
  C   C2588     1.0  0.97821  0.42156  0.00838  1.0000
  H   H3127     1.0  0.90851  0.34324  0.26388  1.0000
  C   C2589     1.0  0.87883  0.33089  0.39536  1.0000
  H   H3128     1.0  0.81168  0.57125  0.12557  1.0000
  C   C2590     1.0  0.92291  0.38743  0.25069  1.0000
  H   H3129     1.0  0.81356  0.43034  0.22095  1.0000
  C   C2591     1.0  0.82434  0.43205  0.20591  1.0000
  C   C2592     1.0  0.76722  0.57095  0.35487  1.0000
  H   H3130     1.0  0.81606  0.39903  0.19819  1.0000
  H   H3131     1.0  0.78008  0.57091  0.34665  1.0000
  C   C2593     1.0  0.75695  0.55684  0.37226  1.0000
  H   H3132     1.0  0.86151  0.42248  0.28365  1.0000
  C   C2594     1.0  0.83652  0.40902  0.06298  1.0000
  C   C2595     1.0  0.90948  0.48106  0.37067  1.0000
  H   H3133     1.0  0.83877  0.43609  0.02501  1.0000
  H   H3134     1.0  0.93038  0.52342  0.36468  1.0000
  H   H3135     1.0  0.94453  0.41846  0.22394  1.0000
  N   N171      1.0  0.85263  0.61699  0.07019  1.0000
  C   C2596     1.0  0.84033  0.61556  0.05483  1.0000
  C   C2597     1.0  0.85721  0.63538  0.07234  1.0000
  C   C2598     1.0  0.86825  0.61294  0.05850  1.0000
  C   C2599     1.0  0.84581  0.60508  0.09342  1.0000
  C   C2600     1.0  0.95684  0.48364  0.32631  1.0000
  C   C2601     1.0  0.85582  0.60530  0.11037  1.0000
  C   C2602     1.0  0.94126  0.48360  0.34026  1.0000
  C   C2603     1.0  0.75240  0.42185  0.14744  1.0000
  H   H3136     1.0  0.98419  0.49447  0.31703  1.0000
  H   H3137     1.0  0.82821  0.61842  0.06256  1.0000
  H   H3138     1.0  0.84568  0.62493  0.03769  1.0000
  H   H3139     1.0  0.83719  0.60236  0.05112  1.0000
  S   S708      1.0  0.88058  0.38030  0.98734  1.0000
  C   C2604     1.0  0.83821  0.41701  0.27145  1.0000
  H   H3140     1.0  0.91197  0.46810  0.37574  1.0000
  H   H3141     1.0  0.86556  0.59896  0.05767  1.0000
  H   H3142     1.0  0.91898  0.39848  0.24264  1.0000
  H   H3143     1.0  0.87892  0.61566  0.06749  1.0000
  C   C2605     1.0  0.87256  0.41874  0.01621  1.0000
  H   H3144     1.0  0.86837  0.61430  0.10681  1.0000
  Fe  Fe355     1.0  0.75169  0.49753  0.18212  1.0000
  H   H3145     1.0  0.83275  0.41043  0.00536  1.0000
  H   H3146     1.0  0.75707  0.58035  0.02222  1.0000
  C   C2606     1.0  0.95786  0.44078  0.35145  1.0000
  H   H3147     1.0  0.98288  0.48270  0.40790  1.0000
  H   H3148     1.0  0.97023  0.65568  0.99732  1.0000
  H   H3149     1.0  0.96748  0.47125  0.02075  1.0000
  C   C2607     1.0  0.76668  0.57874  0.97784  1.0000
  C   C2608     1.0  0.73991  0.42456  0.16510  1.0000
  C   C2609     1.0  0.95519  0.41630  0.23218  1.0000
  H   H3150     1.0  0.93529  0.50511  0.39772  1.0000
  C   C2610     1.0  0.83627  0.37423  0.06469  1.0000
  H   H3151     1.0  0.76400  0.45472  0.26834  1.0000
  H   H3152     1.0  0.78097  0.60556  0.99717  1.0000
  C   C2611     1.0  0.91378  0.65700  0.38106  1.0000
  C   C2612     1.0  0.83413  0.58145  0.13750  1.0000
  H   H3153     1.0  0.84991  0.51864  0.40179  1.0000
  H   H3154     1.0  0.75381  0.60744  0.41298  1.0000
  H   H3155     1.0  0.74129  0.59794  0.35499  1.0000
  C   C2613     1.0  0.73721  0.39495  0.18687  1.0000
  H   H3156     1.0  0.88778  0.34846  0.32797  1.0000
  C   C2614     1.0  0.82802  0.37884  0.08403  1.0000
  S   S709      1.0  0.74893  0.57899  0.45357  1.0000
  H   H3157     1.0  0.88035  0.42996  0.24460  1.0000
  N   N172      1.0  0.86263  0.33211  0.32985  1.0000
  C   C2615     1.0  0.94054  0.49521  0.35543  1.0000
  H   H3158     1.0  0.93436  0.34628  0.28015  1.0000
  C   C2616     1.0  0.91660  0.35607  0.26280  1.0000
  C   C2617     1.0  0.91240  0.37086  0.25239  1.0000
  H   H3159     1.0  0.94686  0.65514  0.33980  1.0000
  H   H3160     1.0  0.96200  0.40845  0.22234  1.0000
  H   H3161     1.0  0.79803  0.60119  0.97742  1.0000
  C   C2618     1.0  0.85256  0.49654  0.45484  1.0000
  H   H3162     1.0  0.74062  0.46717  0.14237  1.0000
  H   H3163     1.0  0.75842  0.55848  0.02220  1.0000
  C   C2619     1.0  0.87900  0.34480  0.31649  1.0000
  H   H3164     1.0  0.75902  0.43173  0.13194  1.0000
  S   S710      1.0  0.84116  0.33956  0.13488  1.0000
  H   H3165     1.0  0.91749  0.64970  0.21910  1.0000
  H   H3166     1.0  0.88293  0.65774  0.27588  1.0000
  H   H3167     1.0  0.73650  0.46163  0.18268  1.0000
  H   H3168     1.0  0.86635  0.34231  0.28131  1.0000
  N   N173      1.0  0.97870  0.46035  0.43571  1.0000
  C   C2620     1.0  0.97220  0.47317  0.42133  1.0000
  H   H3169     1.0  0.97846  0.45667  0.00945  1.0000
  H   H3170     1.0  0.97522  0.48318  0.46411  1.0000
  C   C2621     1.0  0.98425  0.43906  0.32780  1.0000
  H   H3171     1.0  0.96524  0.48051  0.43181  1.0000
  H   H3172     1.0  0.97523  0.44337  0.41187  1.0000
  C   C2622     1.0  0.97274  0.41864  0.97064  1.0000
  C   C2623     1.0  0.74500  0.58605  0.35987  1.0000
  C   C2624     1.0  0.91381  0.65821  0.22997  1.0000
  H   H3173     1.0  0.98260  0.54220  0.43932  1.0000
  S   S711      1.0  0.81516  0.33093  0.19787  1.0000
  C   C2625     1.0  0.89894  0.65205  0.24756  1.0000
  C   C2626     1.0  0.85445  0.33303  0.29078  1.0000
  Fe  Fe356     1.0  0.78897  0.33270  0.19337  1.0000
  H   H3174     1.0  0.84330  0.33105  0.36018  1.0000
  C   C2627     1.0  0.98431  0.54323  0.42085  1.0000
  C   C2628     1.0  0.98517  0.44948  0.42052  1.0000
  N   N174      1.0  0.98524  0.48277  0.98770  1.0000
  C   C2629     1.0  0.92928  0.66244  0.36462  1.0000
  C   C2630     1.0  0.96606  0.46246  0.97025  1.0000
  C   C2631     1.0  0.89428  0.66282  0.26179  1.0000
  C   C2632     1.0  0.82108  0.34177  0.64861  1.0000
  S   S712      1.0  0.86529  0.61916  0.95428  1.0000
  N   N175      1.0  0.75366  0.40441  0.71452  1.0000
  S   S713      1.0  0.95881  0.41207  0.95262  1.0000
  S   S714      1.0  0.82079  0.61697  0.93330  1.0000
  H   H3175     1.0  0.77647  0.60648  0.96008  1.0000
  H   H3176     1.0  0.89176  0.58690  0.87828  1.0000
  H   H3177     1.0  0.90624  0.50756  0.55914  1.0000
  H   H3178     1.0  0.88675  0.45919  0.66486  1.0000
  H   H3179     1.0  0.87582  0.48447  0.66124  1.0000
  H   H3180     1.0  0.93585  0.46853  0.93997  1.0000
  H   H3181     1.0  0.94621  0.48697  0.58000  1.0000
  S   S715      1.0  0.76717  0.57388  0.88479  1.0000
  H   H3182     1.0  0.82568  0.56944  0.81507  1.0000
  H   H3183     1.0  0.82689  0.49604  0.50643  1.0000
  H   H3184     1.0  0.88460  0.50245  0.63685  1.0000
  S   S716      1.0  0.75500  0.58747  0.82315  1.0000
  H   H3185     1.0  0.79485  0.55712  0.87426  1.0000
  Fe  Fe357     1.0  0.88977  0.53188  0.85712  1.0000
  S   S717      1.0  0.89831  0.54488  0.81930  1.0000
  S   S718      1.0  0.86957  0.54217  0.87689  1.0000
  Fe  Fe358     1.0  0.91196  0.50670  0.85139  1.0000
  S   S719      1.0  0.92176  0.51799  0.81305  1.0000
  S   S720      1.0  0.92406  0.48586  0.86534  1.0000
  Fe  Fe359     1.0  0.92473  0.54365  0.82359  1.0000
  S   S721      1.0  0.94857  0.56631  0.80869  1.0000
  Fe  Fe360     1.0  0.89432  0.51780  0.81282  1.0000
  S   S722      1.0  0.87566  0.50893  0.79045  1.0000
  S   S723      1.0  0.91635  0.53235  0.86187  1.0000
  S   S724      1.0  0.88437  0.50483  0.85070  1.0000
  H   H3186     1.0  0.87314  0.48150  0.63322  1.0000
  H   H3187     1.0  0.92095  0.48620  0.65357  1.0000
  Fe  Fe361     1.0  0.83644  0.60951  0.95992  1.0000
  C   C2633     1.0  0.76772  0.59405  0.96118  1.0000
  S   S725      1.0  0.88060  0.42385  0.94915  1.0000
  S   S726      1.0  0.91343  0.39328  0.94172  1.0000
  Fe  Fe362     1.0  0.90529  0.50238  0.49382  1.0000
  S   S727      1.0  0.92461  0.48691  0.49717  1.0000
  S   S728      1.0  0.88316  0.50249  0.52249  1.0000
  H   H3188     1.0  0.79595  0.54174  0.85622  1.0000
  H   H3189     1.0  0.91650  0.35344  0.89312  1.0000
  H   H3190     1.0  0.88476  0.36338  0.92081  1.0000
  Fe  Fe363     1.0  0.84102  0.44607  0.65258  1.0000
  S   S729      1.0  0.85140  0.43204  0.68007  1.0000
  S   S730      1.0  0.85631  0.44522  0.61752  1.0000
  Fe  Fe364     1.0  0.81287  0.45108  0.68904  1.0000
  S   S731      1.0  0.82157  0.43713  0.71888  1.0000
  S   S732      1.0  0.79132  0.46317  0.70058  1.0000
  Fe  Fe365     1.0  0.84814  0.45279  0.69952  1.0000
  S   S733      1.0  0.87172  0.46406  0.71288  1.0000
  Fe  Fe366     1.0  0.82415  0.41766  0.69688  1.0000
  S   S734      1.0  0.81879  0.38854  0.71171  1.0000
  S   S735      1.0  0.83946  0.46789  0.67079  1.0000
  S   S736      1.0  0.81362  0.43037  0.66841  1.0000
  C   C2634     1.0  0.77285  0.46400  0.68963  1.0000
  C   C2635     1.0  0.76086  0.47160  0.70070  1.0000
  H   H3191     1.0  0.98030  0.47931  0.90709  1.0000
  H   H3192     1.0  0.88951  0.49919  0.59870  1.0000
  C   C2636     1.0  0.75366  0.45591  0.66465  1.0000
  C   C2637     1.0  0.76931  0.45636  0.67133  1.0000
  H   H3193     1.0  0.76350  0.47753  0.71490  1.0000
  C   C2638     1.0  0.82857  0.36701  0.81108  1.0000
  C   C2639     1.0  0.97192  0.57066  0.86252  1.0000
  H   H3194     1.0  0.77850  0.45057  0.66260  1.0000
  C   C2640     1.0  0.86401  0.46175  0.59171  1.0000
  C   C2641     1.0  0.87598  0.45933  0.57356  1.0000
  C   C2642     1.0  0.88210  0.47179  0.55239  1.0000
  C   C2643     1.0  0.87616  0.48673  0.54908  1.0000
  C   C2644     1.0  0.86422  0.48919  0.56725  1.0000
  C   C2645     1.0  0.85823  0.47680  0.58856  1.0000
  H   H3195     1.0  0.88055  0.44774  0.57586  1.0000
  H   H3196     1.0  0.89132  0.46977  0.53859  1.0000
  H   H3197     1.0  0.85959  0.50075  0.56484  1.0000
  H   H3198     1.0  0.84895  0.47877  0.60235  1.0000
  C   C2646     1.0  0.87494  0.49603  0.76933  1.0000
  C   C2647     1.0  0.85948  0.49096  0.76230  1.0000
  C   C2648     1.0  0.85820  0.48100  0.74534  1.0000
  C   C2649     1.0  0.87245  0.47604  0.73504  1.0000
  C   C2650     1.0  0.88791  0.48097  0.74221  1.0000
  C   C2651     1.0  0.88916  0.49088  0.75926  1.0000
  H   H3199     1.0  0.84841  0.49490  0.76987  1.0000
  H   H3200     1.0  0.84624  0.47738  0.74002  1.0000
  H   H3201     1.0  0.89904  0.47730  0.73428  1.0000
  H   H3202     1.0  0.90122  0.49488  0.76417  1.0000
  C   C2652     1.0  0.91197  0.46916  0.88923  1.0000
  C   C2653     1.0  0.91922  0.45585  0.89748  1.0000
  C   C2654     1.0  0.90975  0.44205  0.91614  1.0000
  C   C2655     1.0  0.89292  0.44144  0.92648  1.0000
  C   C2656     1.0  0.88573  0.45485  0.91841  1.0000
  C   C2657     1.0  0.89524  0.46872  0.89977  1.0000
  H   H3203     1.0  0.93214  0.45609  0.88929  1.0000
  H   H3204     1.0  0.91539  0.43177  0.92233  1.0000
  H   H3205     1.0  0.87277  0.45450  0.92655  1.0000
  H   H3206     1.0  0.88960  0.47899  0.89352  1.0000
  C   C2658     1.0  0.78560  0.34634  0.68449  1.0000
  C   C2659     1.0  0.78589  0.36394  0.67725  1.0000
  C   C2660     1.0  0.79609  0.37699  0.68531  1.0000
  C   C2661     1.0  0.80613  0.37255  0.70070  1.0000
  C   C2662     1.0  0.80591  0.35497  0.70787  1.0000
  C   C2663     1.0  0.79570  0.34190  0.69981  1.0000
  H   H3207     1.0  0.77799  0.36743  0.66557  1.0000
  H   H3208     1.0  0.79590  0.39041  0.68003  1.0000
  H   H3209     1.0  0.81358  0.35137  0.71982  1.0000
  H   H3210     1.0  0.77825  0.39944  0.74069  1.0000
  H   H3211     1.0  0.91001  0.57646  0.83862  1.0000
  C   C2664     1.0  0.96029  0.56490  0.84926  1.0000
  C   C2665     1.0  0.96376  0.57210  0.82545  1.0000
  H   H3212     1.0  0.96689  0.55234  0.48058  1.0000
  H   H3213     1.0  0.94844  0.55520  0.85766  1.0000
  H   H3214     1.0  0.90590  0.45867  0.64592  1.0000
  H   H3215     1.0  0.93003  0.47824  0.62035  1.0000
  C   C2666     1.0  0.82990  0.54966  0.84163  1.0000
  H   H3216     1.0  0.87314  0.35567  0.88744  1.0000
  H   H3217     1.0  0.85404  0.52168  0.82771  1.0000
  H   H3218     1.0  0.75260  0.39836  0.68109  1.0000
  H   H3219     1.0  0.83006  0.33816  0.77596  1.0000
  N   N176      1.0  0.74602  0.54832  0.51937  1.0000
  C   C2667     1.0  0.92614  0.33768  0.91741  1.0000
  H   H3220     1.0  0.75085  0.44976  0.65071  1.0000
  H   H3221     1.0  0.93453  0.50162  0.54926  1.0000
  C   C2668     1.0  0.87886  0.56750  0.93736  1.0000
  C   C2669     1.0  0.88971  0.55767  0.92918  1.0000
  C   C2670     1.0  0.88696  0.54971  0.91072  1.0000
  C   C2671     1.0  0.87332  0.55156  0.90039  1.0000
  C   C2672     1.0  0.86250  0.56140  0.90859  1.0000
  C   C2673     1.0  0.86530  0.56941  0.92694  1.0000
  H   H3222     1.0  0.90028  0.55623  0.93715  1.0000
  H   H3223     1.0  0.89531  0.54205  0.90464  1.0000
  H   H3224     1.0  0.85206  0.56309  0.90060  1.0000
  H   H3225     1.0  0.85702  0.57716  0.93293  1.0000
  C   C2674     1.0  0.80642  0.60471  0.91936  1.0000
  C   C2675     1.0  0.79806  0.61355  0.90457  1.0000
  C   C2676     1.0  0.78619  0.60444  0.89365  1.0000
  C   C2677     1.0  0.78238  0.58627  0.89752  1.0000
  C   C2678     1.0  0.79089  0.57743  0.91210  1.0000
  C   C2679     1.0  0.80291  0.58656  0.92279  1.0000
  H   H3226     1.0  0.80072  0.62758  0.90160  1.0000
  H   H3227     1.0  0.77989  0.61149  0.88242  1.0000
  H   H3228     1.0  0.78803  0.56339  0.91537  1.0000
  H   H3229     1.0  0.80944  0.57958  0.93368  1.0000
  C   C2680     1.0  0.82875  0.33814  0.84623  1.0000
  C   C2681     1.0  0.88101  0.34990  0.91970  1.0000
  C   C2682     1.0  0.94456  0.59708  0.87409  1.0000
  H   H3230     1.0  0.88655  0.45710  0.63561  1.0000
  H   H3231     1.0  0.77619  0.42362  0.71635  1.0000
  H   H3232     1.0  0.75902  0.60533  0.93176  1.0000
  H   H3233     1.0  0.84930  0.48361  0.51380  1.0000
  N   N177      1.0  0.89025  0.45697  0.82599  1.0000
  C   C2683     1.0  0.90083  0.47518  0.81712  1.0000
  C   C2684     1.0  0.90120  0.44665  0.83583  1.0000
  C   C2685     1.0  0.88534  0.45002  0.80619  1.0000
  C   C2686     1.0  0.87467  0.45661  0.84303  1.0000
  C   C2687     1.0  0.86270  0.46551  0.83610  1.0000
  C   C2688     1.0  0.87105  0.44788  0.86680  1.0000
  C   C2689     1.0  0.84811  0.46575  0.85191  1.0000
  C   C2690     1.0  0.85633  0.44809  0.88243  1.0000
  C   C2691     1.0  0.84493  0.45706  0.87505  1.0000
  H   H3234     1.0  0.90450  0.48083  0.83162  1.0000
  H   H3235     1.0  0.91289  0.47615  0.80450  1.0000
  H   H3236     1.0  0.89399  0.48372  0.80816  1.0000
  H   H3237     1.0  0.89412  0.43269  0.84276  1.0000
  H   H3238     1.0  0.90617  0.45191  0.84998  1.0000
  H   H3239     1.0  0.91274  0.44710  0.82257  1.0000
  H   H3240     1.0  0.87659  0.43664  0.81229  1.0000
  H   H3241     1.0  0.87870  0.45825  0.79622  1.0000
  H   H3242     1.0  0.89674  0.44951  0.79345  1.0000
  H   H3243     1.0  0.86471  0.47271  0.81843  1.0000
  H   H3244     1.0  0.87950  0.44103  0.87394  1.0000
  H   H3245     1.0  0.83939  0.47295  0.84617  1.0000
  H   H3246     1.0  0.85394  0.44146  0.90051  1.0000
  H   H3247     1.0  0.83369  0.45740  0.88732  1.0000
  N   N178      1.0  0.83655  0.39129  0.62592  1.0000
  C   C2692     1.0  0.85089  0.39847  0.60508  1.0000
  C   C2693     1.0  0.82317  0.40071  0.62373  1.0000
  C   C2694     1.0  0.84342  0.39506  0.64626  1.0000
  C   C2695     1.0  0.82916  0.37249  0.62776  1.0000
  C   C2696     1.0  0.82823  0.35939  0.64752  1.0000
  C   C2697     1.0  0.82240  0.36680  0.60944  1.0000
  H   H3248     1.0  0.74163  0.51081  0.60518  1.0000
  C   C2698     1.0  0.73810  0.65401  0.82749  1.0000
  H   H3249     1.0  0.94008  0.60648  0.82950  1.0000
  H   H3250     1.0  0.86090  0.39123  0.60565  1.0000
  H   H3251     1.0  0.84660  0.39788  0.58869  1.0000
  H   H3252     1.0  0.85716  0.41247  0.60368  1.0000
  H   H3253     1.0  0.82801  0.41480  0.62338  1.0000
  H   H3254     1.0  0.81185  0.39514  0.63856  1.0000
  H   H3255     1.0  0.81855  0.40009  0.60756  1.0000
  H   H3256     1.0  0.84909  0.40926  0.64416  1.0000
  H   H3257     1.0  0.83316  0.39094  0.66244  1.0000
  H   H3258     1.0  0.85373  0.38855  0.64884  1.0000
  H   H3259     1.0  0.83261  0.36238  0.66259  1.0000
  H   H3260     1.0  0.82247  0.37598  0.59400  1.0000
  H   H3261     1.0  0.77295  0.41135  0.68274  1.0000
  N   N179      1.0  0.82040  0.55477  0.86152  1.0000
  C   C2699     1.0  0.82940  0.57264  0.86238  1.0000
  C   C2700     1.0  0.80274  0.55456  0.85880  1.0000
  C   C2701     1.0  0.81885  0.54309  0.88430  1.0000
  H   H3262     1.0  0.84286  0.57340  0.86386  1.0000
  H   H3263     1.0  0.82989  0.58245  0.84662  1.0000
  H   H3264     1.0  0.82289  0.57687  0.87746  1.0000
  H   H3265     1.0  0.80248  0.56478  0.84394  1.0000
  H   H3266     1.0  0.83164  0.54328  0.88815  1.0000
  H   H3267     1.0  0.81153  0.54717  0.89887  1.0000
  H   H3268     1.0  0.81205  0.52942  0.88487  1.0000
  C   C2702     1.0  0.75314  0.56717  0.51792  1.0000
  N   N180      1.0  0.89865  0.48285  0.63854  1.0000
  C   C2703     1.0  0.90926  0.49088  0.65336  1.0000
  C   C2704     1.0  0.88236  0.48810  0.64247  1.0000
  C   C2705     1.0  0.89432  0.46364  0.64654  1.0000
  C   C2706     1.0  0.90823  0.48809  0.61396  1.0000
  C   C2707     1.0  0.92447  0.48473  0.60756  1.0000
  C   C2708     1.0  0.90185  0.49639  0.59576  1.0000
  C   C2709     1.0  0.93381  0.48960  0.58450  1.0000
  C   C2710     1.0  0.91134  0.50124  0.57277  1.0000
  C   C2711     1.0  0.92727  0.49787  0.56714  1.0000
  H   H3269     1.0  0.91338  0.50533  0.64731  1.0000
  H   H3270     1.0  0.90206  0.48772  0.67185  1.0000
  C   C2712     1.0  0.83146  0.55877  0.81855  1.0000
  C   C2713     1.0  0.82950  0.34999  0.78175  1.0000
  H   H3271     1.0  0.82842  0.36897  0.82840  1.0000
  C   C2714     1.0  0.75046  0.37226  0.71836  1.0000
  C   C2715     1.0  0.75679  0.54356  0.50020  1.0000
  H   H3272     1.0  0.82689  0.50793  0.47856  1.0000
  C   C2716     1.0  0.95130  0.48834  0.95280  1.0000
  H   H3273     1.0  0.90794  0.33091  0.87272  1.0000
  H   H3274     1.0  0.96878  0.56536  0.88104  1.0000
  C   C2717     1.0  0.74274  0.51838  0.58790  1.0000
  H   H3275     1.0  0.82770  0.39355  0.79917  1.0000
  C   C2718     1.0  0.75149  0.51420  0.56851  1.0000
  H   H3276     1.0  0.86621  0.48312  0.49137  1.0000
  H   H3277     1.0  0.83816  0.52854  0.86117  1.0000
  H   H3278     1.0  0.92943  0.57573  0.84766  1.0000
  C   C2719     1.0  0.87443  0.34548  0.90078  1.0000
  C   C2720     1.0  0.90032  0.59761  0.86388  1.0000
  C   C2721     1.0  0.85927  0.51382  0.48258  1.0000
  H   H3279     1.0  0.75757  0.43134  0.71688  1.0000
  H   H3280     1.0  0.75741  0.55187  0.48299  1.0000
  S   S737      1.0  0.92503  0.52800  0.47703  1.0000
  C   C2722     1.0  0.83825  0.53604  0.84439  1.0000
  H   H3281     1.0  0.95309  0.51189  0.87375  1.0000
  H   H3282     1.0  0.74115  0.37159  0.70772  1.0000
  C   C2723     1.0  0.75280  0.52384  0.54619  1.0000
  C   C2724     1.0  0.74156  0.46332  0.67595  1.0000
  N   N181      1.0  0.91795  0.59539  0.85837  1.0000
  H   H3283     1.0  0.85593  0.53772  0.78812  1.0000
  C   C2725     1.0  0.81455  0.33666  0.63034  1.0000
  H   H3284     1.0  0.89411  0.59720  0.84891  1.0000
  C   C2726     1.0  0.75832  0.38824  0.72348  1.0000
  C   C2727     1.0  0.84064  0.55442  0.79950  1.0000
  H   H3285     1.0  0.84164  0.56154  0.78202  1.0000
  H   H3286     1.0  0.80997  0.34507  0.59673  1.0000
  C   C2728     1.0  0.82841  0.37998  0.77158  1.0000
  H   H3287     1.0  0.98217  0.59041  0.79654  1.0000
  C   C2729     1.0  0.84750  0.53190  0.82523  1.0000
  C   C2730     1.0  0.94585  0.47157  0.94935  1.0000
  C   C2731     1.0  0.94442  0.59785  0.91416  1.0000
  C   C2732     1.0  0.84867  0.54102  0.80285  1.0000
  C   C2733     1.0  0.92688  0.59659  0.87759  1.0000
  H   H3288     1.0  0.95109  0.59826  0.92813  1.0000
  N   N182      1.0  0.82941  0.33533  0.82235  1.0000
  C   C2734     1.0  0.97893  0.55206  0.48534  1.0000
  H   H3289     1.0  0.74377  0.56794  0.74810  1.0000
  S   S738      1.0  0.89208  0.34179  0.96050  1.0000
  C   C2735     1.0  0.97934  0.58474  0.81495  1.0000
  H   H3290     1.0  0.92009  0.59685  0.93559  1.0000
  C   C2736     1.0  0.92773  0.60892  0.83721  1.0000
  C   C2737     1.0  0.82917  0.35083  0.80523  1.0000
  C   C2738     1.0  0.76706  0.35691  0.73957  1.0000
  H   H3291     1.0  0.82018  0.33199  0.66399  1.0000
  C   C2739     1.0  0.95319  0.59786  0.89208  1.0000
  C   C2740     1.0  0.77517  0.37237  0.74470  1.0000
  H   H3292     1.0  0.93060  0.62209  0.84109  1.0000
  C   C2741     1.0  0.91834  0.59660  0.90035  1.0000
  H   H3293     1.0  0.73974  0.64452  0.84143  1.0000
  C   C2742     1.0  0.98002  0.49206  0.89795  1.0000
  H   H3294     1.0  0.82810  0.39107  0.75865  1.0000
  H   H3295     1.0  0.81685  0.34167  0.85325  1.0000
  C   C2743     1.0  0.75882  0.40889  0.68884  1.0000
  C   C2744     1.0  0.92703  0.59716  0.91829  1.0000
  C   C2745     1.0  0.85236  0.48274  0.49529  1.0000
  H   H3296     1.0  0.95426  0.48296  0.89369  1.0000
  C   C2746     1.0  0.82818  0.38132  0.79441  1.0000
  H   H3297     1.0  0.90936  0.56746  0.86839  1.0000
  H   H3298     1.0  0.90037  0.61027  0.86878  1.0000
  H   H3299     1.0  0.92057  0.60928  0.82314  1.0000
  C   C2747     1.0  0.91663  0.57803  0.85302  1.0000
  H   H3300     1.0  0.75143  0.52991  0.49904  1.0000
  C   C2748     1.0  0.74525  0.53803  0.54270  1.0000
  C   C2749     1.0  0.74532  0.47136  0.69383  1.0000
  H   H3301     1.0  0.77024  0.54540  0.50217  1.0000
  H   H3302     1.0  0.95185  0.59665  0.85747  1.0000
  H   H3303     1.0  0.75468  0.57518  0.50018  1.0000
  H   H3304     1.0  0.90486  0.59595  0.90497  1.0000
  H   H3305     1.0  0.96673  0.59830  0.88890  1.0000
  C   C2750     1.0  0.77103  0.38788  0.73669  1.0000
  C   C2751     1.0  0.95329  0.45868  0.95796  1.0000
  H   H3306     1.0  0.87321  0.51510  0.47640  1.0000
  H   H3307     1.0  0.85695  0.34093  0.81330  1.0000
  C   C2752     1.0  0.74676  0.57799  0.94380  1.0000
  Fe  Fe367     1.0  0.94416  0.51204  0.47830  1.0000
  H   H3308     1.0  0.75719  0.50334  0.57087  1.0000
  C   C2753     1.0  0.76200  0.41964  0.72293  1.0000
  H   H3309     1.0  0.76593  0.56969  0.52230  1.0000
  C   C2754     1.0  0.82910  0.36437  0.76527  1.0000
  Fe  Fe368     1.0  0.93021  0.39926  0.96682  1.0000
  H   H3310     1.0  0.75966  0.51981  0.53198  1.0000
  S   S739      1.0  0.96993  0.51635  0.48818  1.0000
  Fe  Fe369     1.0  0.74820  0.57997  0.86236  1.0000
  C   C2755     1.0  0.75775  0.59359  0.94462  1.0000
  H   H3311     1.0  0.84471  0.46980  0.49422  1.0000
  H   H3312     1.0  0.75898  0.41704  0.74221  1.0000
  H   H3313     1.0  0.75520  0.42078  0.68141  1.0000
  H   H3314     1.0  0.94552  0.49835  0.94591  1.0000
  N   N183      1.0  0.84875  0.49722  0.47964  1.0000
  H   H3315     1.0  0.82200  0.48458  0.48434  1.0000
  H   H3316     1.0  0.74904  0.34493  0.72157  1.0000
  C   C2756     1.0  0.88297  0.33689  0.93697  1.0000
  H   H3317     1.0  0.78525  0.37247  0.75416  1.0000
  H   H3318     1.0  0.77074  0.34505  0.74513  1.0000
  H   H3319     1.0  0.85721  0.51466  0.50113  1.0000
  C   C2757     1.0  0.75480  0.35687  0.72631  1.0000
  C   C2758     1.0  0.73722  0.64986  0.80604  1.0000
  H   H3320     1.0  0.73611  0.47707  0.70270  1.0000
  C   C2759     1.0  0.81522  0.34915  0.61079  1.0000
  C   C2760     1.0  0.96529  0.49405  0.89058  1.0000
  H   H3321     1.0  0.84016  0.34834  0.84694  1.0000
  C   C2761     1.0  0.83035  0.49641  0.48753  1.0000
  C   C2762     1.0  0.96466  0.51039  0.87928  1.0000
  Fe  Fe370     1.0  0.89988  0.36864  0.96867  1.0000
  C   C2763     1.0  0.96409  0.49225  0.96512  1.0000
  H   H3322     1.0  0.82935  0.36348  0.74743  1.0000
  H   H3323     1.0  0.73845  0.52342  0.76956  1.0000
  S   S740      1.0  0.88279  0.57777  0.96005  1.0000
  S   S741      1.0  0.77200  0.33041  0.67452  1.0000
  H   H3324     1.0  0.94912  0.44560  0.95523  1.0000
  S   S742      1.0  0.73829  0.62910  0.80085  1.0000
  Fe  Fe371     1.0  0.89545  0.40530  0.96208  1.0000
  C   C2764     1.0  0.74539  0.56279  0.95989  1.0000
  H   H3325     1.0  0.92918  0.34775  0.92693  1.0000
  C   C2765     1.0  0.97884  0.52476  0.87497  1.0000
  C   C2766     1.0  0.91892  0.34085  0.89835  1.0000
  H   H3326     1.0  0.97747  0.53715  0.86654  1.0000
  C   C2767     1.0  0.98311  0.53620  0.49062  1.0000
  H   H3327     1.0  0.73959  0.57763  0.93032  1.0000
  Fe  Fe372     1.0  0.73600  0.60375  0.82657  1.0000
  H   H3328     1.0  0.74468  0.57247  0.52970  1.0000
  H   H3329     1.0  0.73691  0.55066  0.95903  1.0000
  C   C2768     1.0  0.73631  0.54179  0.56286  1.0000
  C   C2769     1.0  0.84537  0.33012  0.81504  1.0000
  H   H3330     1.0  0.96766  0.50547  0.96721  1.0000
  H   H3331     1.0  0.85634  0.52540  0.47290  1.0000
  S   S743      1.0  0.86929  0.97395  0.38152  1.0000
  C   C2770     1.0  0.97814  0.94495  0.05101  1.0000
  C   C2771     1.0  0.92259  0.97921  0.03109  1.0000
  Fe  Fe373     1.0  0.96098  0.89671  0.98831  1.0000
  H   H3332     1.0  0.90776  0.96521  0.46067  1.0000
  H   H3333     1.0  0.93654  0.67602  0.36010  1.0000
  H   H3334     1.0  0.95683  0.71612  0.23921  1.0000
  C   C2772     1.0  0.78738  0.97769  0.07409  1.0000
  C   C2773     1.0  0.88837  0.82535  0.42880  1.0000
  H   H3335     1.0  0.98361  0.89594  0.43063  1.0000
  N   N184      1.0  0.92311  0.98899  0.33551  1.0000
  S   S744      1.0  0.89362  0.96911  0.01496  1.0000
  H   H3336     1.0  0.94343  0.94149  0.31913  1.0000
  C   C2774     1.0  0.82738  0.96541  0.34573  1.0000
  H   H3337     1.0  0.90853  0.76324  0.99587  1.0000
  H   H3338     1.0  0.79341  0.94750  0.41134  1.0000
  H   H3339     1.0  0.95450  0.83030  0.01694  1.0000
  C   C2775     1.0  0.84494  0.95983  0.42296  1.0000
  H   H3340     1.0  0.88587  0.68253  0.01289  1.0000
  C   C2776     1.0  0.83611  0.94607  0.44219  1.0000
  C   C2777     1.0  0.85368  0.92798  0.42853  1.0000
  H   H3341     1.0  0.96677  0.69969  0.99917  1.0000
  Fe  Fe374     1.0  0.96133  0.71359  0.29451  1.0000
  S   S745      1.0  0.93556  0.69359  0.31227  1.0000
  S   S746      1.0  0.95915  0.73901  0.27489  1.0000
  Fe  Fe375     1.0  0.96134  0.74492  0.05147  1.0000
  S   S747      1.0  0.96626  0.73029  0.02356  1.0000
  S   S748      1.0  0.95049  0.76861  0.04730  1.0000
  Fe  Fe376     1.0  0.97126  0.72016  0.08768  1.0000
  S   S749      1.0  0.97704  0.70355  0.06229  1.0000
  H   H3342     1.0  0.79246  0.92088  0.43871  1.0000
  Fe  Fe377     1.0  0.95269  0.70581  0.05091  1.0000
  S   S750      1.0  0.93843  0.68041  0.04232  1.0000
  S   S751      1.0  0.94588  0.72052  0.07844  1.0000
  C   C2778     1.0  0.93350  0.94600  0.32882  1.0000
  H   H3343     1.0  0.86280  0.84141  0.42065  1.0000
  H   H3344     1.0  0.90645  0.89319  0.46160  1.0000
  H   H3345     1.0  0.94661  0.69597  0.25993  1.0000
  H   H3346     1.0  0.90112  0.67364  0.33381  1.0000
  H   H3347     1.0  0.98466  0.97021  0.10871  1.0000
  H   H3348     1.0  0.77181  0.95772  0.11628  1.0000
  H   H3349     1.0  0.82738  0.97766  0.33381  1.0000
  C   C2779     1.0  0.91773  0.94266  0.46215  1.0000
  H   H3350     1.0  0.91077  0.91402  0.42715  1.0000
  H   H3351     1.0  0.95311  0.97566  0.13831  1.0000
  Fe  Fe378     1.0  0.97934  0.86906  0.98014  1.0000
  Fe  Fe379     1.0  0.98098  0.87105  0.39126  1.0000
  H   H3352     1.0  0.88953  0.89616  0.01408  1.0000
  H   H3353     1.0  0.96391  0.67045  0.97605  1.0000
  C   C2780     1.0  0.90885  0.68203  0.02553  1.0000
  H   H3354     1.0  0.82061  0.98938  0.36753  1.0000
  H   H3355     1.0  0.91070  0.69500  0.02870  1.0000
  C   C2781     1.0  0.81404  0.94548  0.38434  1.0000
  H   H3356     1.0  0.93387  0.75358  0.00372  1.0000
  C   C2782     1.0  0.92354  0.67312  0.30936  1.0000
  C   C2783     1.0  0.93149  0.82784  0.97172  1.0000
  H   H3357     1.0  0.98371  0.79834  0.14210  1.0000
  C   C2784     1.0  0.90457  0.67972  0.25880  1.0000
  C   C2785     1.0  0.81980  0.97673  0.37917  1.0000
  S   S752      1.0  0.98130  0.90569  0.31160  1.0000
  H   H3358     1.0  0.94511  0.98717  0.04446  1.0000
  H   H3359     1.0  0.73774  0.93462  0.99778  1.0000
  C   C2786     1.0  0.96422  0.94963  0.04371  1.0000
  C   C2787     1.0  0.77129  0.97932  0.00859  1.0000
  C   C2788     1.0  0.78233  0.97061  0.99783  1.0000
  C   C2789     1.0  0.80019  0.97801  0.99137  1.0000
  H   H3360     1.0  0.78785  0.96092  0.37843  1.0000
  H   H3361     1.0  0.77705  0.95806  0.99440  1.0000
  C   C2790     1.0  0.95395  0.79510  0.97353  1.0000
  N   N185      1.0  0.89860  0.92140  0.99072  1.0000
  H   H3362     1.0  0.87199  0.93957  0.39605  1.0000
  H   H3363     1.0  0.79813  0.97337  0.34996  1.0000
  H   H3364     1.0  0.97060  0.98867  0.20218  1.0000
  C   C2791     1.0  0.90802  0.95749  0.35395  1.0000
  H   H3365     1.0  0.97465  0.67876  0.02960  1.0000
  H   H3366     1.0  0.96763  0.98588  0.16335  1.0000
  H   H3367     1.0  0.90915  0.66642  0.38940  1.0000
  H   H3368     1.0  0.88367  0.83650  0.39547  1.0000
  S   S753      1.0  0.94766  0.91240  0.00948  1.0000
  C   C2792     1.0  0.95289  0.80308  0.02985  1.0000
  C   C2793     1.0  0.91874  0.82623  0.42665  1.0000
  C   C2794     1.0  0.86219  0.94154  0.40910  1.0000
  H   H3369     1.0  0.83254  0.97744  0.38344  1.0000
  C   C2795     1.0  0.96171  0.79005  0.03145  1.0000
  H   H3370     1.0  0.93281  0.72821  0.24894  1.0000
  H   H3371     1.0  0.95875  0.93036  0.14978  1.0000
  S   S754      1.0  0.74891  0.96933  0.01618  1.0000
  H   H3372     1.0  0.93938  0.79980  0.03803  1.0000
  H   H3373     1.0  0.92330  0.70902  0.27128  1.0000
  H   H3374     1.0  0.93568  0.82749  0.98836  1.0000
  C   C2796     1.0  0.93981  0.91126  0.44496  1.0000
  S   S755      1.0  0.89048  0.88126  0.42083  1.0000
  C   C2797     1.0  0.92411  0.67515  0.22662  1.0000
  N   N186      1.0  0.87022  0.82081  0.44165  1.0000
  H   H3375     1.0  0.75475  0.96802  0.12219  1.0000
  C   C2798     1.0  0.90992  0.87579  0.42216  1.0000
  C   C2799     1.0  0.92291  0.83429  0.40317  1.0000
  C   C2800     1.0  0.92824  0.86314  0.44366  1.0000
  C   C2801     1.0  0.94166  0.86841  0.42378  1.0000
  C   C2802     1.0  0.93922  0.87745  0.40309  1.0000
  C   C2803     1.0  0.92338  0.88114  0.40231  1.0000
  H   H3376     1.0  0.89875  0.91356  0.02685  1.0000
  H   H3377     1.0  0.94949  0.88150  0.38764  1.0000
  H   H3378     1.0  0.92159  0.88817  0.38626  1.0000
  C   C2804     1.0  0.85795  0.95751  0.40631  1.0000
  H   H3379     1.0  0.89956  0.81587  0.45759  1.0000
  H   H3380     1.0  0.97648  0.93689  0.21797  1.0000
  C   C2805     1.0  0.89473  0.67488  0.01654  1.0000
  S   S756      1.0  0.85145  0.96399  0.99292  1.0000
  C   C2806     1.0  0.98251  0.72115  0.18713  1.0000
  H   H3381     1.0  0.91892  0.92016  0.34740  1.0000
  C   C2807     1.0  0.88211  0.92601  0.99697  1.0000
  H   H3382     1.0  0.97369  0.93326  0.17953  1.0000
  H   H3383     1.0  0.84604  0.80347  0.44190  1.0000
  H   H3384     1.0  0.81091  0.96279  0.03250  1.0000
  H   H3385     1.0  0.95455  0.69617  0.23000  1.0000
  H   H3386     1.0  0.90907  0.98981  0.30851  1.0000
  H   H3387     1.0  0.95407  0.77819  0.09055  1.0000
  C   C2808     1.0  0.91085  0.92527  0.43454  1.0000
  C   C2809     1.0  0.84051  0.93013  0.44506  1.0000
  Fe  Fe380     1.0  0.87942  0.97703  0.98777  1.0000
  H   H3388     1.0  0.77634  0.97996  0.11907  1.0000
  H   H3389     1.0  0.89370  0.95991  0.42845  1.0000
  H   H3390     1.0  0.96047  0.96085  0.04810  1.0000
  C   C2810     1.0  0.97379  0.94506  0.34168  1.0000
  C   C2811     1.0  0.95339  0.96199  0.13810  1.0000
  H   H3391     1.0  0.94354  0.66820  0.28511  1.0000
  C   C2812     1.0  0.97869  0.69967  0.98695  1.0000
  N   N187      1.0  0.96938  0.95818  0.14319  1.0000
  H   H3392     1.0  0.94588  0.97242  0.31299  1.0000
  C   C2813     1.0  0.79775  0.96148  0.36291  1.0000
  H   H3393     1.0  0.74332  0.96183  0.09027  1.0000
  H   H3394     1.0  0.91122  0.94383  0.00205  1.0000
  H   H3395     1.0  0.86455  0.79552  0.43381  1.0000
  C   C2814     1.0  0.96296  0.77428  0.10119  1.0000
  H   H3396     1.0  0.94392  0.94300  0.02587  1.0000
  C   C2815     1.0  0.96931  0.97478  0.17481  1.0000
  N   N188      1.0  0.93110  0.70423  0.23725  1.0000
  H   H3397     1.0  0.92121  0.71390  0.20820  1.0000
  H   H3398     1.0  0.93564  0.67927  0.21293  1.0000
  C   C2816     1.0  0.91235  0.86662  0.44279  1.0000
  H   H3399     1.0  0.75202  0.99184  0.09112  1.0000
  H   H3400     1.0  0.82588  0.94775  0.45493  1.0000
  S   S757      1.0  0.97653  0.86226  0.35884  1.0000
  S   S758      1.0  0.84272  0.87076  0.45501  1.0000
  H   H3401     1.0  0.95196  0.96035  0.12047  1.0000
  C   C2817     1.0  0.97568  0.72136  0.14889  1.0000
  H   H3402     1.0  0.84166  0.97214  0.42106  1.0000
  N   N189      1.0  0.98315  0.68286  0.99242  1.0000
  C   C2818     1.0  0.96139  0.82036  0.01776  1.0000
  H   H3403     1.0  0.75632  0.96689  0.06163  1.0000
  C   C2819     1.0  0.97401  0.92842  0.33830  1.0000
  C   C2820     1.0  0.80721  0.99427  0.99558  1.0000
  C   C2821     1.0  0.94798  0.70300  0.24176  1.0000
  C   C2822     1.0  0.97887  0.82480  0.00728  1.0000
  C   C2823     1.0  0.98247  0.93999  0.29679  1.0000
  C   C2824     1.0  0.82532  0.93489  0.37947  1.0000
  C   C2825     1.0  0.79128  0.96799  0.05723  1.0000
  H   H3404     1.0  0.96213  0.80759  0.09556  1.0000
  C   C2826     1.0  0.80132  0.92465  0.42187  1.0000
  C   C2827     1.0  0.98325  0.81427  0.34108  1.0000
  H   H3405     1.0  0.90051  0.68704  0.27110  1.0000
  H   H3406     1.0  0.83526  0.93829  0.36380  1.0000
  C   C2828     1.0  0.97277  0.94554  0.18358  1.0000
  C   C2829     1.0  0.80205  0.93991  0.40611  1.0000
  H   H3407     1.0  0.96124  0.79854  0.12512  1.0000
  H   H3408     1.0  0.96660  0.75540  0.17034  1.0000
  H   H3409     1.0  0.85035  0.83388  0.44968  1.0000
  C   C2830     1.0  0.82164  0.98197  0.05002  1.0000
  H   H3410     1.0  0.87092  0.91435  0.00212  1.0000
  H   H3411     1.0  0.85999  0.81216  0.41376  1.0000
  C   C2831     1.0  0.90861  0.99285  0.32591  1.0000
  C   C2832     1.0  0.95967  0.92495  0.02517  1.0000
  C   C2833     1.0  0.92426  0.71477  0.25265  1.0000
  H   H3412     1.0  0.96053  0.79372  0.34411  1.0000
  H   H3413     1.0  0.83335  0.91193  0.39161  1.0000
  H   H3414     1.0  0.93385  0.90537  0.43204  1.0000
  C   C2834     1.0  0.85976  0.80741  0.43236  1.0000
  C   C2835     1.0  0.96989  0.73622  0.15030  1.0000
  H   H3415     1.0  0.93618  0.83813  0.39357  1.0000
  C   C2836     1.0  0.92210  0.97018  0.33823  1.0000
  C   C2837     1.0  0.81240  0.91449  0.41644  1.0000
  H   H3416     1.0  0.89608  0.93024  0.36937  1.0000
  H   H3417     1.0  0.95537  0.76835  0.11925  1.0000
  H   H3418     1.0  0.85699  0.91567  0.43040  1.0000
  H   H3419     1.0  0.91229  0.90507  0.00784  1.0000
  C   C2838     1.0  0.91885  0.92770  0.45321  1.0000
  H   H3420     1.0  0.91350  0.84438  0.37402  1.0000
  C   C2839     1.0  0.92122  0.77214  0.98939  1.0000
  H   H3421     1.0  0.94113  0.70834  0.20020  1.0000
  H   H3422     1.0  0.80852  0.97116  0.98308  1.0000
  C   C2840     1.0  0.93710  0.99129  0.03334  1.0000
  C   C2841     1.0  0.91970  0.93396  0.34474  1.0000
  C   C2842     1.0  0.90208  0.93688  0.42564  1.0000
  N   N190      1.0  0.76965  0.97586  0.08684  1.0000
  Fe  Fe381     1.0  0.87089  0.87718  0.45432  1.0000
  H   H3423     1.0  0.89594  0.98536  0.33729  1.0000
  H   H3424     1.0  0.88164  0.93242  0.01194  1.0000
  C   C2843     1.0  0.97025  0.95927  0.16730  1.0000
  C   C2844     1.0  0.76545  0.99287  0.08221  1.0000
  H   H3425     1.0  0.98023  0.81489  0.10741  1.0000
  H   H3426     1.0  0.82439  0.95474  0.33649  1.0000
  C   C2845     1.0  0.90095  0.95123  0.43502  1.0000
  C   C2846     1.0  0.76814  0.97016  0.11215  1.0000
  C   C2847     1.0  0.97381  0.92053  0.03206  1.0000
  H   H3427     1.0  0.81215  0.90298  0.42905  1.0000
  H   H3428     1.0  0.94662  0.90187  0.45220  1.0000
  H   H3429     1.0  0.91145  0.71609  0.25034  1.0000
  C   C2848     1.0  0.91012  0.83786  0.39224  1.0000
  H   H3430     1.0  0.96276  0.77369  0.98942  1.0000
  C   C2849     1.0  0.90176  0.82180  0.43940  1.0000
  C   C2850     1.0  0.86354  0.83646  0.43877  1.0000
  H   H3431     1.0  0.88015  0.93531  0.98231  1.0000
  S   S759      1.0  0.96122  0.86328  0.42520  1.0000
  C   C2851     1.0  0.91979  0.68646  0.24091  1.0000
  H   H3432     1.0  0.93003  0.85602  0.45965  1.0000
  S   S760      1.0  0.97781  0.72709  0.31563  1.0000
  S   S761      1.0  0.96917  0.77251  0.31292  1.0000
  Fe  Fe382     1.0  0.97728  0.75253  0.29392  1.0000
  C   C2852     1.0  0.95178  0.77799  0.98556  1.0000
  C   C2853     1.0  0.97738  0.73643  0.18807  1.0000
  H   H3433     1.0  0.97723  0.81974  0.35445  1.0000
  C   C2854     1.0  0.82437  0.91960  0.39532  1.0000
  S   S762      1.0  0.98397  0.71278  0.26772  1.0000
  N   N191      1.0  0.97742  0.78926  0.10047  1.0000
  H   H3434     1.0  0.96887  0.94051  0.12002  1.0000
  C   C2855     1.0  0.90691  0.93968  0.35718  1.0000
  S   S763      1.0  0.97949  0.74737  0.21114  1.0000
  C   C2856     1.0  0.97384  0.79942  0.33529  1.0000
  H   H3435     1.0  0.97525  0.96452  0.22957  1.0000
  H   H3436     1.0  0.97016  0.94695  0.35906  1.0000
  C   C2857     1.0  0.95486  0.93949  0.03111  1.0000
  H   H3437     1.0  0.89772  0.96128  0.36386  1.0000
  H   H3438     1.0  0.94117  0.72771  0.21011  1.0000
  H   H3439     1.0  0.94955  0.92357  0.43538  1.0000
  C   C2858     1.0  0.86767  0.81386  0.46698  1.0000
  H   H3440     1.0  0.84074  0.96712  0.34823  1.0000
  H   H3441     1.0  0.91949  0.96579  0.04054  1.0000
  S   S764      1.0  0.97575  0.71184  0.12425  1.0000
  C   C2859     1.0  0.93370  0.71389  0.21291  1.0000
  C   C2860     1.0  0.89309  0.83339  0.40475  1.0000
  N   N192      1.0  0.81481  0.96192  0.36820  1.0000
  H   H3442     1.0  0.96736  0.76379  0.09420  1.0000
  H   H3443     1.0  0.97035  0.91748  0.35302  1.0000
  H   H3444     1.0  0.83466  0.98384  0.04041  1.0000
  H   H3445     1.0  0.87195  0.84725  0.44380  1.0000
  C   C2861     1.0  0.96972  0.94087  0.13827  1.0000
  H   H3446     1.0  0.79313  0.94997  0.35572  1.0000
  C   C2862     1.0  0.89982  0.90848  0.01074  1.0000
  S   S765      1.0  0.96839  0.99511  0.07977  1.0000
  H   H3447     1.0  0.75850  0.94972  0.08387  1.0000
  C   C2863     1.0  0.97916  0.79444  0.02075  1.0000
  C   C2864     1.0  0.91264  0.93749  0.98707  1.0000
  H   H3448     1.0  0.81049  0.97571  0.39552  1.0000
  H   H3449     1.0  0.96500  0.74209  0.13625  1.0000
  H   H3450     1.0  0.92889  0.82392  0.43511  1.0000
  C   C2865     1.0  0.91203  0.98444  0.01682  1.0000
  C   C2866     1.0  0.98166  0.71371  0.16766  1.0000
  C   C2867     1.0  0.98426  0.97123  0.12698  1.0000
  C   C2868     1.0  0.93475  0.96385  0.32547  1.0000
  H   H3451     1.0  0.92550  0.93494  0.98529  1.0000
  S   S766      1.0  0.95132  0.86838  0.98728  1.0000
  H   H3452     1.0  0.89574  0.93439  0.41182  1.0000
  C   C2869     1.0  0.80820  0.97007  0.04560  1.0000
  H   H3453     1.0  0.90924  0.98732  0.37043  1.0000
  H   H3454     1.0  0.93199  0.98989  0.36689  1.0000
  C   C2870     1.0  0.96999  0.80319  0.10757  1.0000
  C   C2871     1.0  0.93546  0.76661  0.99369  1.0000
  C   C2872     1.0  0.97102  0.97654  0.19704  1.0000
  C   C2873     1.0  0.97078  0.74370  0.16972  1.0000
  C   C2874     1.0  0.92324  0.78914  0.97713  1.0000
  C   C2875     1.0  0.93043  0.66336  0.29500  1.0000
  C   C2876     1.0  0.96789  0.66876  0.99287  1.0000
  H   H3455     1.0  0.98196  0.93765  0.14015  1.0000
  H   H3456     1.0  0.94189  0.95321  0.15095  1.0000
  Fe  Fe383     1.0  0.98235  0.73889  0.24867  1.0000
  S   S767      1.0  0.82886  0.91271  0.46858  1.0000
  C   C2877     1.0  0.97366  0.96295  0.21248  1.0000
  C   C2878     1.0  0.97442  0.94744  0.20583  1.0000
  C   C2879     1.0  0.97840  0.95928  0.32266  1.0000
  C   C2880     1.0  0.98286  0.93036  0.04520  1.0000
  H   H3457     1.0  0.78151  0.95895  0.05229  1.0000
  C   C2881     1.0  0.75647  0.96298  0.08028  1.0000
  H   H3458     1.0  0.97994  0.80210  0.06481  1.0000
  S   S768      1.0  0.97856  0.97999  0.32751  1.0000
  C   C2882     1.0  0.97870  0.92592  0.31590  1.0000
  N   N193      1.0  0.92701  0.91450  0.46334  1.0000
  C   C2883     1.0  0.92039  0.67233  0.03059  1.0000
  Fe  Fe384     1.0  0.84917  0.98986  0.97485  1.0000
  H   H3459     1.0  0.90201  0.86223  0.45810  1.0000
  C   C2884     1.0  0.77829  0.99556  0.01287  1.0000
  C   C2885     1.0  0.81828  0.99165  0.06644  1.0000
  H   H3460     1.0  0.97748  0.90924  0.02784  1.0000
  C   C2886     1.0  0.90884  0.95416  0.45315  1.0000
  C   C2887     1.0  0.98157  0.79167  0.31859  1.0000
  C   C2888     1.0  0.90655  0.66628  0.32250  1.0000
  C   C2889     1.0  0.80144  0.98953  0.07840  1.0000
  H   H3461     1.0  0.91746  0.82166  0.97594  1.0000
  C   C2890     1.0  0.92196  0.99367  0.35841  1.0000
  H   H3462     1.0  0.95654  0.66871  0.00617  1.0000
  C   C2891     1.0  0.98261  0.95676  0.30017  1.0000
  H   H3463     1.0  0.91179  0.79285  0.97435  1.0000
  H   H3464     1.0  0.91278  0.94722  0.97138  1.0000
  H   H3465     1.0  0.98390  0.98479  0.12769  1.0000
  Fe  Fe385     1.0  0.86531  0.87922  0.50508  1.0000
  H   H3466     1.0  0.76304  0.84362  0.84377  1.0000
  S   S769      1.0  0.88079  0.88269  0.53234  1.0000
  Fe  Fe386     1.0  0.83916  0.85238  0.48947  1.0000
  H   H3467     1.0  0.78073  0.71870  0.84234  1.0000
  S   S770      1.0  0.82546  0.82327  0.49695  1.0000
  H   H3468     1.0  0.76148  0.83885  0.87446  1.0000
  H   H3469     1.0  0.86524  0.87989  0.78149  1.0000
  H   H3470     1.0  0.96514  0.83182  0.96422  1.0000
  H   H3471     1.0  0.89535  0.93474  0.69601  1.0000
  S   S771      1.0  0.86765  0.85753  0.48713  1.0000
  S   S772      1.0  0.83654  0.87260  0.51040  1.0000
  S   S773      1.0  0.94312  0.86975  0.92098  1.0000
  Fe  Fe387     1.0  0.94281  0.96662  0.54931  1.0000
  H   H3472     1.0  0.96691  0.80335  0.96856  1.0000
  S   S774      1.0  0.92241  0.95960  0.52932  1.0000
  Fe  Fe388     1.0  0.95259  0.97475  0.59383  1.0000
  H   H3473     1.0  0.97142  0.89520  0.87838  1.0000
  C   C2892     1.0  0.77367  0.75543  0.58423  1.0000
  Fe  Fe389     1.0  0.94507  0.97186  0.77729  1.0000
  S   S775      1.0  0.91749  0.95607  0.78646  1.0000
  H   H3474     1.0  0.93607  0.94409  0.82570  1.0000
  C   C2893     1.0  0.77242  0.87305  0.85877  1.0000
  H   H3475     1.0  0.93294  0.97707  0.67829  1.0000
  H   H3476     1.0  0.91064  0.90430  0.72868  1.0000
  Fe  Fe390     1.0  0.84174  0.87820  0.86556  1.0000
  S   S776      1.0  0.84284  0.86734  0.83356  1.0000
  S   S777      1.0  0.83357  0.90290  0.86718  1.0000
  Fe  Fe391     1.0  0.85608  0.85066  0.89078  1.0000
  S   S778      1.0  0.85809  0.83713  0.86114  1.0000
  S   S779      1.0  0.86363  0.84391  0.92495  1.0000
  Fe  Fe392     1.0  0.86851  0.86446  0.83913  1.0000
  S   S780      1.0  0.89312  0.87382  0.81171  1.0000
  Fe  Fe393     1.0  0.83202  0.84093  0.85800  1.0000
  S   S781      1.0  0.80816  0.81987  0.85677  1.0000
  S   S782      1.0  0.86820  0.87751  0.86893  1.0000
  S   S783      1.0  0.82927  0.85226  0.88993  1.0000
  H   H3477     1.0  0.87723  0.89794  0.93222  1.0000
  H   H3478     1.0  0.97169  0.93483  0.63141  1.0000
  S   S784      1.0  0.74543  0.78417  0.53099  1.0000
  H   H3479     1.0  0.76637  0.75629  0.81680  1.0000
  H   H3480     1.0  0.77427  0.76164  0.56595  1.0000
  Fe  Fe394     1.0  0.74840  0.76666  0.78192  1.0000
  S   S785      1.0  0.77295  0.78761  0.78113  1.0000
  C   C2894     1.0  0.90382  0.95458  0.72633  1.0000
  N   N194      1.0  0.78279  0.86054  0.85486  1.0000
  H   H3481     1.0  0.87854  0.92187  0.89757  1.0000
  S   S786      1.0  0.98027  0.98645  0.57626  1.0000
  S   S787      1.0  0.75074  0.74486  0.76363  1.0000
  H   H3482     1.0  0.77984  0.78014  0.63486  1.0000
  H   H3483     1.0  0.96753  0.82472  0.93715  1.0000
  H   H3484     1.0  0.82840  0.88517  0.77219  1.0000
  C   C2895     1.0  0.90375  0.89910  0.93044  1.0000
  H   H3485     1.0  0.84466  0.94885  0.91072  1.0000
  C   C2896     1.0  0.89984  0.96949  0.86062  1.0000
  C   C2897     1.0  0.88461  0.93499  0.88739  1.0000
  H   H3486     1.0  0.78376  0.85380  0.89093  1.0000
  H   H3487     1.0  0.91330  0.96625  0.71455  1.0000
  H   H3488     1.0  0.76380  0.82023  0.52033  1.0000
  C   C2898     1.0  0.79852  0.81149  0.83522  1.0000
  C   C2899     1.0  0.80615  0.81691  0.81148  1.0000
  C   C2900     1.0  0.79807  0.80956  0.79529  1.0000
  C   C2901     1.0  0.78222  0.79676  0.80248  1.0000
  C   C2902     1.0  0.77449  0.79155  0.82621  1.0000
  C   C2903     1.0  0.78261  0.79882  0.84239  1.0000
  H   H3489     1.0  0.81837  0.82660  0.80562  1.0000
  H   H3490     1.0  0.80421  0.81374  0.77701  1.0000
  H   H3491     1.0  0.76225  0.78189  0.83214  1.0000
  H   H3492     1.0  0.77656  0.79448  0.86068  1.0000
  C   C2904     1.0  0.84612  0.92422  0.92969  1.0000
  C   C2905     1.0  0.84474  0.90666  0.92939  1.0000
  C   C2906     1.0  0.84124  0.90023  0.91008  1.0000
  C   C2907     1.0  0.83853  0.91117  0.89114  1.0000
  C   C2908     1.0  0.83966  0.92872  0.89148  1.0000
  C   C2909     1.0  0.84364  0.93530  0.91063  1.0000
  H   H3493     1.0  0.84642  0.89796  0.94417  1.0000
  H   H3494     1.0  0.84034  0.88667  0.91008  1.0000
  H   H3495     1.0  0.83761  0.93726  0.87685  1.0000
  C   C2910     1.0  0.79542  0.80434  0.61401  1.0000
  C   C2911     1.0  0.91169  0.93322  0.79492  1.0000
  C   C2912     1.0  0.89465  0.92470  0.80617  1.0000
  C   C2913     1.0  0.88918  0.90648  0.81223  1.0000
  C   C2914     1.0  0.90056  0.89663  0.80622  1.0000
  C   C2915     1.0  0.91769  0.90513  0.79509  1.0000
  C   C2916     1.0  0.92335  0.92344  0.78981  1.0000
  H   H3496     1.0  0.88554  0.93217  0.81005  1.0000
  H   H3497     1.0  0.87593  0.90005  0.82067  1.0000
  H   H3498     1.0  0.92655  0.89754  0.79063  1.0000
  H   H3499     1.0  0.93659  0.92994  0.78136  1.0000
  H   H3500     1.0  0.82838  0.79135  0.81705  1.0000
  C   C2917     1.0  0.80933  0.76881  0.81502  1.0000
  H   H3501     1.0  0.78173  0.73995  0.86246  1.0000
  Fe  Fe395     1.0  0.95603  0.87833  0.94871  1.0000
  C   C2918     1.0  0.92089  0.86284  0.92290  1.0000
  C   C2919     1.0  0.90880  0.85885  0.94395  1.0000
  C   C2920     1.0  0.89121  0.85296  0.94451  1.0000
  C   C2921     1.0  0.88566  0.85142  0.92400  1.0000
  C   C2922     1.0  0.89778  0.85564  0.90299  1.0000
  C   C2923     1.0  0.91533  0.86106  0.90252  1.0000
  H   H3502     1.0  0.75579  0.75866  0.63807  1.0000
  C   C2924     1.0  0.91196  0.98930  0.82165  1.0000
  H   H3503     1.0  0.89364  0.85438  0.88713  1.0000
  H   H3504     1.0  0.92460  0.86393  0.88620  1.0000
  H   H3505     1.0  0.91292  0.86034  0.95974  1.0000
  H   H3506     1.0  0.81026  0.82802  0.58942  1.0000
  H   H3507     1.0  0.94373  0.89555  0.88220  1.0000
  C   C2925     1.0  0.79203  0.75081  0.85194  1.0000
  H   H3508     1.0  0.91617  0.89410  0.87246  1.0000
  C   C2926     1.0  0.88868  0.94863  0.89837  1.0000
  C   C2927     1.0  0.80311  0.81268  0.50611  1.0000
  C   C2928     1.0  0.79076  0.82190  0.50994  1.0000
  C   C2929     1.0  0.77320  0.81293  0.51735  1.0000
  C   C2930     1.0  0.76774  0.79467  0.52105  1.0000
  C   C2931     1.0  0.78008  0.78544  0.51715  1.0000
  C   C2932     1.0  0.79765  0.79441  0.50978  1.0000
  H   H3509     1.0  0.79472  0.83593  0.50723  1.0000
  C   C2933     1.0  0.89537  0.95524  0.84999  1.0000
  H   H3510     1.0  0.77610  0.77141  0.51976  1.0000
  H   H3511     1.0  0.80708  0.78714  0.50685  1.0000
  C   C2934     1.0  0.91045  0.93810  0.53166  1.0000
  C   C2935     1.0  0.89758  0.93542  0.51919  1.0000
  C   C2936     1.0  0.88830  0.91851  0.51953  1.0000
  C   C2937     1.0  0.89170  0.90409  0.53256  1.0000
  C   C2938     1.0  0.90443  0.90674  0.54533  1.0000
  C   C2939     1.0  0.91384  0.92371  0.54484  1.0000
  H   H3512     1.0  0.89479  0.94649  0.50911  1.0000
  H   H3513     1.0  0.87840  0.91665  0.50986  1.0000
  H   H3514     1.0  0.90710  0.89562  0.55547  1.0000
  H   H3515     1.0  0.92372  0.92564  0.55455  1.0000
  S   S788      1.0  0.94192  0.97353  0.63174  1.0000
  H   H3516     1.0  0.98041  0.94577  0.60185  1.0000
  H   H3517     1.0  0.77761  0.83297  0.85608  1.0000
  N   N195      1.0  0.90842  0.93819  0.72350  1.0000
  H   H3518     1.0  0.87806  0.93488  0.75670  1.0000
  H   H3519     1.0  0.92323  0.94558  0.47648  1.0000
  H   H3520     1.0  0.91321  0.92539  0.69524  1.0000
  C   C2940     1.0  0.89644  0.92241  0.73968  1.0000
  C   C2941     1.0  0.89946  0.90577  0.73981  1.0000
  C   C2942     1.0  0.88131  0.92288  0.75508  1.0000
  C   C2943     1.0  0.88821  0.89066  0.75461  1.0000
  C   C2944     1.0  0.87007  0.90764  0.76962  1.0000
  H   H3521     1.0  0.97483  0.89227  0.47305  1.0000
  H   H3522     1.0  0.88185  0.84979  0.96080  1.0000
  C   C2945     1.0  0.78400  0.78794  0.61733  1.0000
  S   S789      1.0  0.73927  0.73239  0.55946  1.0000
  H   H3523     1.0  0.90362  0.95649  0.74429  1.0000
  S   S790      1.0  0.96988  0.97777  0.52839  1.0000
  C   C2946     1.0  0.88627  0.90921  0.95915  1.0000
  H   H3524     1.0  0.78687  0.75490  0.58566  1.0000
  C   C2947     1.0  0.81851  0.89032  0.80515  1.0000
  H   H3525     1.0  0.78001  0.79052  0.56139  1.0000
  C   C2948     1.0  0.93443  0.81891  0.93532  1.0000
  C   C2949     1.0  0.74982  0.76705  0.59635  1.0000
  C   C2950     1.0  0.89607  0.96566  0.88527  1.0000
  H   H3526     1.0  0.88285  0.99269  0.84651  1.0000
  C   C2951     1.0  0.80795  0.86364  0.79351  1.0000
  H   H3527     1.0  0.87371  0.91081  0.96552  1.0000
  C   C2952     1.0  0.80679  0.88384  0.82655  1.0000
  S   S791      1.0  0.88697  0.97091  0.95320  1.0000
  H   H3528     1.0  0.92679  0.91311  0.96796  1.0000
  C   C2953     1.0  0.77826  0.78208  0.59841  1.0000
  C   C2954     1.0  0.88810  0.90184  0.93980  1.0000
  C   C2955     1.0  0.95409  0.93478  0.84330  1.0000
  Fe  Fe396     1.0  0.84220  0.89138  0.47558  1.0000
  H   H3529     1.0  0.76593  0.87567  0.84429  1.0000
  H   H3530     1.0  0.95018  0.98650  0.70600  1.0000
  C   C2956     1.0  0.79572  0.81012  0.57320  1.0000
  H   H3531     1.0  0.80025  0.84941  0.87088  1.0000
  C   C2957     1.0  0.76278  0.75334  0.62459  1.0000
  H   H3532     1.0  0.97098  0.95391  0.69984  1.0000
  C   C2958     1.0  0.79508  0.86707  0.83200  1.0000
  Fe  Fe397     1.0  0.97486  0.99425  0.73866  1.0000
  H   H3533     1.0  0.91692  0.94836  0.68638  1.0000
  C   C2959     1.0  0.98210  0.95181  0.66544  1.0000
  C   C2960     1.0  0.94670  0.98155  0.67276  1.0000
  N   N196      1.0  0.76637  0.76476  0.60105  1.0000
  N   N197      1.0  0.78559  0.74218  0.81561  1.0000
  C   C2961     1.0  0.76747  0.74272  0.82151  1.0000
  C   C2962     1.0  0.79136  0.74696  0.78990  1.0000
  C   C2963     1.0  0.78641  0.72398  0.82351  1.0000
  H   H3534     1.0  0.75951  0.73480  0.81208  1.0000
  H   H3535     1.0  0.76141  0.73753  0.84026  1.0000
  H   H3536     1.0  0.79003  0.76012  0.78260  1.0000
  H   H3537     1.0  0.92042  0.81266  0.93942  1.0000
  H   H3538     1.0  0.80492  0.74669  0.78414  1.0000
  H   H3539     1.0  0.77904  0.71497  0.81456  1.0000
  H   H3540     1.0  0.79991  0.72307  0.82009  1.0000
  H   H3541     1.0  0.81282  0.77261  0.79632  1.0000
  C   C2964     1.0  0.79583  0.75388  0.82734  1.0000
  C   C2965     1.0  0.81843  0.77978  0.82673  1.0000
  H   H3542     1.0  0.93623  0.83230  0.92491  1.0000
  H   H3543     1.0  0.78349  0.73780  0.78166  1.0000
  C   C2966     1.0  0.95700  0.92128  0.85948  1.0000
  H   H3544     1.0  0.79778  0.75963  0.88221  1.0000
  H   H3545     1.0  0.91391  0.99045  0.50742  1.0000
  C   C2967     1.0  0.95466  0.98209  0.64990  1.0000
  C   C2968     1.0  0.90848  0.93660  0.69929  1.0000
  S   S792      1.0  0.94285  0.98942  0.56599  1.0000
  C   C2969     1.0  0.81429  0.77644  0.85086  1.0000
  H   H3546     1.0  0.82100  0.78538  0.85976  1.0000
  H   H3547     1.0  0.87510  0.82345  0.47509  1.0000
  H   H3548     1.0  0.91198  0.91813  0.84458  1.0000
  N   N198      1.0  0.97431  0.92251  0.86410  1.0000
  H   H3549     1.0  0.97349  0.95784  0.62210  1.0000
  C   C2970     1.0  0.92606  0.94000  0.72719  1.0000
  H   H3550     1.0  0.96017  0.84358  0.93946  1.0000
  H   H3551     1.0  0.74205  0.67455  0.49541  1.0000
  Fe  Fe398     1.0  0.97719  0.96385  0.55908  1.0000
  C   C2971     1.0  0.92676  0.90558  0.86463  1.0000
  C   C2972     1.0  0.94278  0.90658  0.87000  1.0000
  H   H3552     1.0  0.79971  0.80856  0.62862  1.0000
  C   C2973     1.0  0.87353  0.89158  0.76943  1.0000
  H   H3553     1.0  0.80027  0.81874  0.55604  1.0000
  H   H3554     1.0  0.75124  0.77437  0.57830  1.0000
  H   H3555     1.0  0.90391  0.89984  0.48828  1.0000
  C   C2974     1.0  0.98217  0.99460  0.65788  1.0000
  H   H3556     1.0  0.89856  0.97587  0.89463  1.0000
  C   C2975     1.0  0.91759  0.90338  0.94065  1.0000
  S   S793      1.0  0.87063  0.89929  0.47197  1.0000
  H   H3557     1.0  0.91899  0.88745  0.48176  1.0000
  C   C2976     1.0  0.78424  0.79383  0.57637  1.0000
  H   H3558     1.0  0.92647  0.94120  0.74522  1.0000
  C   C2977     1.0  0.79608  0.85708  0.81481  1.0000
  C   C2978     1.0  0.80113  0.76198  0.86344  1.0000
  S   S794      1.0  0.95637  0.98239  0.80468  1.0000
  C   C2979     1.0  0.92436  0.91912  0.84887  1.0000
  H   H3559     1.0  0.76238  0.86804  0.87522  1.0000
  H   H3560     1.0  0.78802  0.84403  0.81748  1.0000
  H   H3561     1.0  0.98282  0.95074  0.85677  1.0000
  H   H3562     1.0  0.92095  0.98139  0.81706  1.0000
  H   H3563     1.0  0.90498  0.89317  0.91565  1.0000
  H   H3564     1.0  0.74404  0.77431  0.60828  1.0000
  H   H3565     1.0  0.94216  0.90951  0.48843  1.0000
  H   H3566     1.0  0.89113  0.87817  0.75521  1.0000
  H   H3567     1.0  0.88565  0.94599  0.91718  1.0000
  S   S795      1.0  0.95002  0.95085  0.57890  1.0000
  H   H3568     1.0  0.77477  0.75131  0.62937  1.0000
  S   S796      1.0  0.85105  0.93148  0.95428  1.0000
  C   C2980     1.0  0.80135  0.81536  0.59197  1.0000
  H   H3569     1.0  0.80727  0.89195  0.83905  1.0000
  H   H3570     1.0  0.94493  0.99493  0.50482  1.0000
  C   C2981     1.0  0.79242  0.85876  0.87336  1.0000
  H   H3571     1.0  0.97868  0.98961  0.62476  1.0000
  C   C2982     1.0  0.77070  0.84329  0.85727  1.0000
  H   H3572     1.0  0.75442  0.74016  0.62570  1.0000
  S   S797      1.0  0.96298  0.90625  0.95045  1.0000
  H   H3573     1.0  0.89114  0.95475  0.72236  1.0000
  H   H3574     1.0  0.93532  0.95183  0.71537  1.0000
  C   C2983     1.0  0.88780  0.93829  0.86331  1.0000
  H   H3575     1.0  0.88409  0.92764  0.85497  1.0000
  C   C2984     1.0  0.93797  0.93371  0.83825  1.0000
  H   H3576     1.0  0.93113  0.92877  0.72421  1.0000
  H   H3577     1.0  0.80134  0.87131  0.87354  1.0000
  H   H3578     1.0  0.89741  0.95682  0.83143  1.0000
  H   H3579     1.0  0.97658  0.70240  0.96905  1.0000
  Fe  Fe399     1.0  0.85886  0.95952  0.95706  1.0000
  C   C2985     1.0  0.93593  0.91956  0.48149  1.0000
  H   H3580     1.0  0.92958  0.90071  0.93366  1.0000
  H   H3581     1.0  0.85900  0.90833  0.78189  1.0000
  H   H3582     1.0  0.78033  0.88573  0.86025  1.0000
  H   H3583     1.0  0.96436  0.94615  0.83410  1.0000
  C   C2986     1.0  0.97423  0.99348  0.68100  1.0000
  H   H3584     1.0  0.82740  0.90309  0.80167  1.0000
  C   C2987     1.0  0.97483  0.90810  0.88291  1.0000
  N   N199      1.0  0.94136  0.81923  0.95646  1.0000
  S   S798      1.0  0.85454  0.98452  0.93906  1.0000
  H   H3585     1.0  0.94093  0.81175  0.92393  1.0000
  H   H3586     1.0  0.85398  0.81103  0.47624  1.0000
  S   S799      1.0  0.98344  0.87740  0.94140  1.0000
  H   H3587     1.0  0.74036  0.75427  0.59867  1.0000
  S   S800      1.0  0.96954  0.96697  0.76000  1.0000
  H   H3588     1.0  0.93261  0.98751  0.85235  1.0000
  H   H3589     1.0  0.96598  0.90759  0.89947  1.0000
  H   H3590     1.0  0.73772  0.67365  0.84749  1.0000
  H   H3591     1.0  0.92677  0.92086  0.49674  1.0000
  H   H3592     1.0  0.96951  0.94841  0.66185  1.0000
  C   C2988     1.0  0.81912  0.88023  0.78864  1.0000
  H   H3593     1.0  0.80860  0.85566  0.78082  1.0000
  H   H3594     1.0  0.97166  0.94033  0.88632  1.0000
  C   C2989     1.0  0.95643  0.98702  0.68838  1.0000
  H   H3595     1.0  0.76573  0.74178  0.58713  1.0000
  C   C2990     1.0  0.98270  0.95488  0.68750  1.0000
  C   C2991     1.0  0.97242  0.98888  0.64238  1.0000
  H   H3596     1.0  0.90048  0.98508  0.81461  1.0000
  C   C2992     1.0  0.91586  0.91056  0.96019  1.0000
  C   C2993     1.0  0.73708  0.67060  0.83082  1.0000
  Fe  Fe400     1.0  0.98147  0.98029  0.78540  1.0000
  N   N200      1.0  0.90740  0.98770  0.84713  1.0000
  C   C2994     1.0  0.91360  0.89801  0.47416  1.0000
  C   C2995     1.0  0.97996  0.94734  0.61995  1.0000
  H   H3597     1.0  0.98193  0.90984  0.83697  1.0000
  C   C2996     1.0  0.93967  0.80119  0.96893  1.0000
  C   C2997     1.0  0.95936  0.83021  0.94907  1.0000
  C   C2998     1.0  0.98073  0.93910  0.87097  1.0000
  H   H3598     1.0  0.94604  0.93207  0.47463  1.0000
  C   C2999     1.0  0.92329  0.99554  0.85416  1.0000
  H   H3599     1.0  0.93322  0.84173  0.96335  1.0000
  C   C3000     1.0  0.90020  0.91399  0.96983  1.0000
  H   H3600     1.0  0.87133  0.80139  0.47072  1.0000
