data_image0
_chemical_formula_structural       FeSCFeS2FeSFeS3H2CH2FeS2FeS2FeSFeS3HCHC7HSCHC4H3C5H4C5H2CH2C3HC2H2CHC6H7SH3CHNH2SH4C3HNC9H14NC9H11CHCNSHC4HCHC3FeH2CH4CH3CHCHC2H3C4SHCH4CHSHCHC2H4CHNH3CH4CHCNC2H2CFeSFeS2CFe2S2CFeS2FeS2CSCFeHCHSHC2HFeH2C10H4C6H4SFeH2C2H2FeH2C3HCHCHSHCH4C2HCH2C3H2CSNCH3SCHNH2CHCN2HCHCH2CH4SH2CSHC2H2CHNH2CH5CH6CHC2H6CH2C4NH2SCHFeH2C3H4C3H2C2FeCSH2FeHSCHC2SHCH5SCHC2HCFeSH2CSC3HC3H2CNHCH2CHCH2C2SH3SHFeHSFeC2H2C2HCHSCH2SCH2C4HCH2CHCH2CHCHC3H3CFeS2FeS2FeSFeHS2H3FeS2H2FeS3FeS2FeS2FeSFeS3HC2SHC6H2NHC6H4CHC6H3C6H4C6H5C2H3CHCH3NC9H14C2HCH2CFeHCH2CH2FeHNC6H2CH4CH3NFeCHCSCHC2SCH2CHCSH3FeSH2CH3CNCHCH2CHCH2CHNH4SHCH2FeHCH3C3HNH4SC4H2CSHC2HSCHFeH3CSC4H2NH2SFeH3CHC2H3CH3CHCS2FeHC6H4C2H3C2HCSCH2CHC2H4CHSNHC3HCH3SHCS2CSC3HC2H2CHCH5FeC2HCH3CHC3HC2H2C2H2SH2CNCHCFeS2FeS2FeSFeS3HCHFeS2H2FeCS2FeS2CH2FeSC2SHFeS2FeS2FeSFeS4H2C2HC2HC6H10CHC4HCH2C6H4C6HCH2C6H4C6HCHCH2CNH2CH4CHCHFeCH4C3HCHSNC2HCHC2H5C2H3NCH2CH2C2H2SCHCHC2HCHC6H3CH2C2H5CH3CHCHCH2C2HNCH2CHNH3NH2FeH2CH2SC2HCH3NH2FeH3CHCSCH2CSHCFeS2FeS2FeSFeS3FeS2FeS2FeCFeHS2NC2FeSH4C3HC6H4C6H5C2H4C7H3C3H5C6H3CH3CH7C2FeCHC3HSH2C2HCHSHSNH2FeC5HC2H2CSH2CH2C2HNC9H10CH2CSCH2C2H4C3HNC2H4CH4CSCH3CHCHC2H3CNHNH3CH3SC2HCH3CSC2H2SHSC3HC2SFeS2FeSH4CFeS2FeSC2SHFeSH2FeSCSH2CHC4HNHCHCH3C6H4C6H7CH3CHNH3FeCHC2H2CSH2C2H4NHSCHC3H2FeCH2C2H3C2H2SFeH3CH2CHC2HCH4CHCHSHCHC2HC2HCNH2CHC2H3CHC3H5FeH
_chemical_formula_sum              "Fe80 S160 C600 H720 N40"
_cell_length_a       43.6
_cell_length_b       43.96
_cell_length_c       47.182
_cell_angle_alpha    90.7414
_cell_angle_beta     91.5887
_cell_angle_gamma    91.0224

_space_group_name_H-M_alt    "P 1"
_space_group_IT_number       1

loop_
  _space_group_symop_operation_xyz
  'x, y, z'

loop_
  _atom_site_type_symbol
  _atom_site_label
  _atom_site_symmetry_multiplicity
  _atom_site_fract_x
  _atom_site_fract_y
  _atom_site_fract_z
  _atom_site_occupancy
  Fe  Fe1       1.0  0.41853  0.33675  0.16799  1.0000
  S   S1        1.0  0.40406  0.28774  0.16012  1.0000
  C   C1        1.0  0.41987  0.22999  0.25160  1.0000
  Fe  Fe2       1.0  0.35718  0.35501  0.18994  1.0000
  S   S2        1.0  0.33733  0.30852  0.18341  1.0000
  S   S3        1.0  0.32568  0.39035  0.20641  1.0000
  Fe  Fe3       1.0  0.38143  0.29181  0.20238  1.0000
  S   S4        1.0  0.36567  0.25676  0.23339  1.0000
  Fe  Fe4       1.0  0.36098  0.30807  0.14235  1.0000
  S   S5        1.0  0.33767  0.29282  0.10169  1.0000
  S   S6        1.0  0.39983  0.33895  0.21208  1.0000
  S   S7        1.0  0.37690  0.35654  0.14689  1.0000
  H   H1        1.0  0.34449  0.27465  0.29279  1.0000
  H   H2        1.0  0.04421  0.13786  0.15788  1.0000
  C   C2        1.0  0.43622  0.20946  0.26883  1.0000
  H   H3        1.0  0.18393  0.09427  0.05508  1.0000
  H   H4        1.0  0.14096  0.02433  0.12195  1.0000
  Fe  Fe5       1.0  0.18063  0.17658  0.20452  1.0000
  S   S8        1.0  0.19845  0.12993  0.21349  1.0000
  S   S9        1.0  0.14583  0.19907  0.23175  1.0000
  Fe  Fe6       1.0  0.21356  0.18163  0.14919  1.0000
  S   S10       1.0  0.23462  0.13584  0.15325  1.0000
  S   S11       1.0  0.21995  0.20789  0.10929  1.0000
  Fe  Fe7       1.0  0.18830  0.12025  0.16714  1.0000
  S   S12       1.0  0.16958  0.07441  0.15207  1.0000
  Fe  Fe8       1.0  0.24299  0.14938  0.19877  1.0000
  S   S13       1.0  0.29015  0.14273  0.21755  1.0000
  S   S14       1.0  0.16627  0.16514  0.15951  1.0000
  S   S15       1.0  0.22610  0.19708  0.19355  1.0000
  H   H5        1.0  0.09365  0.13172  0.18406  1.0000
  C   C3        1.0  0.03978  0.09042  0.14576  1.0000
  H   H6        1.0  0.36765  0.44243  0.20657  1.0000
  C   C4        1.0  0.10680  0.38380  0.31210  1.0000
  C   C5        1.0  0.15461  0.23391  0.24920  1.0000
  C   C6        1.0  0.18423  0.24146  0.25969  1.0000
  C   C7        1.0  0.18964  0.26899  0.27489  1.0000
  C   C8        1.0  0.16560  0.28937  0.27855  1.0000
  C   C9        1.0  0.13631  0.28193  0.26753  1.0000
  C   C10       1.0  0.13071  0.25408  0.25348  1.0000
  H   H7        1.0  0.10852  0.02111  0.07806  1.0000
  S   S16       1.0  0.01033  0.02114  0.02701  1.0000
  C   C11       1.0  0.42899  0.46508  0.12988  1.0000
  H   H8        1.0  0.10779  0.24832  0.24553  1.0000
  C   C12       1.0  0.14632  0.07307  0.12094  1.0000
  C   C13       1.0  0.10952  0.06922  0.07090  1.0000
  C   C14       1.0  0.12065  0.09751  0.08116  1.0000
  C   C15       1.0  0.13897  0.09946  0.10616  1.0000
  H   H9        1.0  0.11525  0.11798  0.06970  1.0000
  H   H10       1.0  0.14764  0.12133  0.11377  1.0000
  H   H11       1.0  0.37853  0.42667  0.13138  1.0000
  C   C16       1.0  0.32457  0.12764  0.29592  1.0000
  C   C17       1.0  0.32139  0.13589  0.26747  1.0000
  C   C18       1.0  0.29392  0.12965  0.25233  1.0000
  C   C19       1.0  0.27005  0.11391  0.26532  1.0000
  C   C20       1.0  0.27330  0.10562  0.29393  1.0000
  H   H12       1.0  0.05858  0.99842  0.15479  1.0000
  H   H13       1.0  0.34007  0.14764  0.25736  1.0000
  H   H14       1.0  0.24905  0.10843  0.25348  1.0000
  H   H15       1.0  0.37631  0.17577  0.30117  1.0000
  C   C21       1.0  0.38788  0.23119  0.25307  1.0000
  C   C22       1.0  0.37235  0.21132  0.27082  1.0000
  C   C23       1.0  0.38861  0.19113  0.28792  1.0000
  C   C24       1.0  0.42055  0.19055  0.28762  1.0000
  C   C25       1.0  0.41459  0.47242  0.15564  1.0000
  H   H16       1.0  0.20279  0.22611  0.25610  1.0000
  H   H17       1.0  0.34756  0.21155  0.27149  1.0000
  C   C26       1.0  0.34206  0.28980  0.31168  1.0000
  H   H18       1.0  0.46099  0.20895  0.26830  1.0000
  H   H19       1.0  0.46157  0.10030  0.30073  1.0000
  C   C27       1.0  0.32293  0.38454  0.24291  1.0000
  C   C28       1.0  0.29418  0.38318  0.25535  1.0000
  C   C29       1.0  0.29195  0.37593  0.28413  1.0000
  H   H20       1.0  0.34571  0.13269  0.30757  1.0000
  C   C30       1.0  0.34733  0.37353  0.28830  1.0000
  C   C31       1.0  0.34947  0.37984  0.25942  1.0000
  H   H21       1.0  0.27367  0.38726  0.24268  1.0000
  H   H22       1.0  0.25470  0.09394  0.30422  1.0000
  C   C32       1.0  0.30037  0.11311  0.30936  1.0000
  H   H23       1.0  0.37175  0.38151  0.25007  1.0000
  C   C33       1.0  0.30404  0.27078  0.10525  1.0000
  C   C34       1.0  0.28490  0.26554  0.08137  1.0000
  C   C35       1.0  0.25886  0.24664  0.08308  1.0000
  C   C36       1.0  0.25194  0.23261  0.10861  1.0000
  C   C37       1.0  0.27072  0.23822  0.13274  1.0000
  C   C38       1.0  0.29676  0.25737  0.13105  1.0000
  H   H24       1.0  0.29046  0.27578  0.06138  1.0000
  H   H25       1.0  0.24436  0.24240  0.06441  1.0000
  H   H26       1.0  0.26554  0.22732  0.15244  1.0000
  H   H27       1.0  0.31182  0.26077  0.14931  1.0000
  H   H28       1.0  0.21243  0.27483  0.28305  1.0000
  H   H29       1.0  0.09317  0.03723  0.16374  1.0000
  H   H30       1.0  0.21914  0.08205  0.09503  1.0000
  S   S17       1.0  0.46333  0.43805  0.04824  1.0000
  H   H31       1.0  0.45882  0.29888  0.03452  1.0000
  H   H32       1.0  0.45732  0.48040  0.09593  1.0000
  H   H33       1.0  0.11772  0.29761  0.27011  1.0000
  C   C39       1.0  0.31859  0.37117  0.30062  1.0000
  H   H34       1.0  0.36797  0.37016  0.30106  1.0000
  N   N1        1.0  0.16821  0.99099  0.03048  1.0000
  H   H35       1.0  0.26249  0.16921  0.29372  1.0000
  H   H36       1.0  0.42438  0.38956  0.06604  1.0000
  S   S18       1.0  0.44066  0.16689  0.31133  1.0000
  H   H37       1.0  0.01059  0.02366  0.16792  1.0000
  H   H38       1.0  0.31840  0.20324  0.06134  1.0000
  H   H39       1.0  0.42324  0.41082  0.15850  1.0000
  H   H40       1.0  0.35614  0.45807  0.14314  1.0000
  C   C40       1.0  0.47553  0.30898  0.04945  1.0000
  C   C41       1.0  0.09523  0.08363  0.17568  1.0000
  C   C42       1.0  0.41484  0.42287  0.17750  1.0000
  H   H41       1.0  0.28678  0.17104  0.09214  1.0000
  N   N2        1.0  0.23983  0.31007  0.19706  1.0000
  C   C43       1.0  0.25979  0.28705  0.21045  1.0000
  C   C44       1.0  0.25969  0.33154  0.18141  1.0000
  C   C45       1.0  0.22505  0.32792  0.21976  1.0000
  C   C46       1.0  0.21641  0.29420  0.17862  1.0000
  C   C47       1.0  0.21743  0.29411  0.14850  1.0000
  C   C48       1.0  0.19281  0.27635  0.19070  1.0000
  C   C49       1.0  0.19596  0.27735  0.13185  1.0000
  C   C50       1.0  0.17168  0.25942  0.17389  1.0000
  C   C51       1.0  0.17334  0.25982  0.14449  1.0000
  H   H42       1.0  0.27109  0.27296  0.19408  1.0000
  H   H43       1.0  0.27825  0.29786  0.22420  1.0000
  H   H44       1.0  0.24657  0.27118  0.22390  1.0000
  H   H45       1.0  0.27396  0.31950  0.16576  1.0000
  H   H46       1.0  0.27628  0.34412  0.19589  1.0000
  H   H47       1.0  0.24586  0.34885  0.17009  1.0000
  H   H48       1.0  0.21323  0.31341  0.23532  1.0000
  H   H49       1.0  0.24214  0.34168  0.23264  1.0000
  H   H50       1.0  0.20786  0.34373  0.21063  1.0000
  H   H51       1.0  0.23508  0.30597  0.13718  1.0000
  H   H52       1.0  0.19097  0.27464  0.21329  1.0000
  H   H53       1.0  0.19779  0.27665  0.10896  1.0000
  H   H54       1.0  0.15442  0.24528  0.18375  1.0000
  H   H55       1.0  0.15770  0.24580  0.13145  1.0000
  N   N3        1.0  0.35254  0.18701  0.17095  1.0000
  C   C52       1.0  0.32904  0.20140  0.18858  1.0000
  C   C53       1.0  0.35388  0.15411  0.17753  1.0000
  C   C54       1.0  0.38280  0.20076  0.17956  1.0000
  C   C55       1.0  0.34418  0.19105  0.14062  1.0000
  C   C56       1.0  0.36160  0.20973  0.12240  1.0000
  C   C57       1.0  0.31705  0.17705  0.12875  1.0000
  C   C58       1.0  0.35254  0.21355  0.09400  1.0000
  C   C59       1.0  0.30823  0.18102  0.10036  1.0000
  C   C60       1.0  0.32596  0.19922  0.08302  1.0000
  H   H56       1.0  0.30558  0.19228  0.18357  1.0000
  H   H57       1.0  0.33359  0.19764  0.21163  1.0000
  H   H58       1.0  0.32854  0.22639  0.18539  1.0000
  H   H59       1.0  0.33156  0.14206  0.17365  1.0000
  H   H60       1.0  0.35976  0.15035  0.20036  1.0000
  H   H61       1.0  0.37113  0.14248  0.16451  1.0000
  H   H62       1.0  0.38274  0.22598  0.17792  1.0000
  H   H63       1.0  0.38876  0.19609  0.20219  1.0000
  H   H64       1.0  0.40155  0.19158  0.16664  1.0000
  H   H65       1.0  0.38178  0.22239  0.12970  1.0000
  H   H66       1.0  0.30178  0.16375  0.14159  1.0000
  C   C61       1.0  0.05292  0.06108  0.14649  1.0000
  H   H67       1.0  0.36608  0.47970  0.19226  1.0000
  C   C62       1.0  0.18997  0.07079  0.05876  1.0000
  N   N4        1.0  0.39564  0.44924  0.16996  1.0000
  S   S19       1.0  0.08715  0.06732  0.03914  1.0000
  H   H68       1.0  0.99160  0.04820  0.14316  1.0000
  C   C63       1.0  0.37019  0.43867  0.15051  1.0000
  C   C64       1.0  0.05434  0.11556  0.15915  1.0000
  C   C65       1.0  0.44248  0.39273  0.08203  1.0000
  C   C66       1.0  0.14373  0.19287  0.30863  1.0000
  H   H69       1.0  0.35505  0.31139  0.30827  1.0000
  C   C67       1.0  0.13512  0.04481  0.11070  1.0000
  H   H70       1.0  0.31755  0.29639  0.31245  1.0000
  C   C68       1.0  0.18285  0.01638  0.04717  1.0000
  C   C69       1.0  0.00735  0.02870  0.14497  1.0000
  C   C70       1.0  0.11674  0.04292  0.08582  1.0000
  Fe  Fe9       1.0  0.06180  0.02365  0.02695  1.0000
  H   H71       1.0  0.42514  0.35729  0.10854  1.0000
  H   H72       1.0  0.05307  0.04937  0.09118  1.0000
  C   C71       1.0  0.05502  0.00643  0.13269  1.0000
  H   H73       1.0  0.23125  0.18936  0.27831  1.0000
  H   H74       1.0  0.43540  0.43001  0.19060  1.0000
  H   H75       1.0  0.42659  0.44262  0.12039  1.0000
  H   H76       1.0  0.26973  0.37430  0.29359  1.0000
  C   C72       1.0  0.08210  0.11218  0.17398  1.0000
  H   H77       1.0  0.01824  0.09418  0.13461  1.0000
  H   H78       1.0  0.40183  0.40559  0.18966  1.0000
  H   H79       1.0  0.23267  0.02870  0.10414  1.0000
  C   C73       1.0  0.43556  0.26376  0.31643  1.0000
  H   H80       1.0  0.20235  0.99236  0.99848  1.0000
  C   C74       1.0  0.38177  0.46049  0.19646  1.0000
  H   H81       1.0  0.39967  0.46766  0.21258  1.0000
  C   C75       1.0  0.14313  0.00091  0.01093  1.0000
  C   C76       1.0  0.46562  0.37886  0.12734  1.0000
  H   H82       1.0  0.27373  0.20930  0.32488  1.0000
  H   H83       1.0  0.16045  0.05453  0.02554  1.0000
  H   H84       1.0  0.35452  0.42224  0.16096  1.0000
  C   C77       1.0  0.23746  0.17330  0.29539  1.0000
  C   C78       1.0  0.21729  0.03384  0.08646  1.0000
  C   C79       1.0  0.08110  0.05839  0.16209  1.0000
  C   C80       1.0  0.17652  0.04749  0.04191  1.0000
  S   S20       1.0  0.17148  0.32534  0.29479  1.0000
  H   H85       1.0  0.17975  0.17397  0.28562  1.0000
  C   C81       1.0  0.47284  0.30381  0.07834  1.0000
  H   H86       1.0  0.99515  0.00873  0.13472  1.0000
  H   H87       1.0  0.12509  0.01304  0.02265  1.0000
  H   H88       1.0  0.11701  0.08117  0.18705  1.0000
  H   H89       1.0  0.22560  0.15109  0.29081  1.0000
  C   C82       1.0  0.46556  0.41476  0.07829  1.0000
  H   H90       1.0  0.45403  0.28995  0.08590  1.0000
  S   S21       1.0  0.46483  0.35776  0.15886  1.0000
  H   H91       1.0  0.16519  0.39506  0.31715  1.0000
  C   C83       1.0  0.17443  0.18513  0.30537  1.0000
  H   H92       1.0  0.36540  0.22890  0.08077  1.0000
  C   C84       1.0  0.44262  0.37472  0.10635  1.0000
  C   C85       1.0  0.20991  0.06397  0.08125  1.0000
  H   H93       1.0  0.33586  0.23013  0.32561  1.0000
  H   H94       1.0  0.14764  0.43184  0.31793  1.0000
  H   H95       1.0  0.12701  0.18768  0.29170  1.0000
  H   H96       1.0  0.45031  0.26936  0.29907  1.0000
  C   C86       1.0  0.03151  0.04223  0.10142  1.0000
  H   H97       1.0  0.01484  0.06074  0.09832  1.0000
  N   N5        1.0  0.03722  0.03495  0.13173  1.0000
  H   H98       1.0  0.43197  0.24514  0.23770  1.0000
  H   H99       1.0  0.12202  0.36782  0.30080  1.0000
  H   H100      1.0  0.02182  0.02231  0.08927  1.0000
  C   C87       1.0  0.40502  0.27301  0.31575  1.0000
  H   H101      1.0  0.39763  0.28568  0.29741  1.0000
  H   H102      1.0  0.07771  0.00945  0.12281  1.0000
  H   H103      1.0  0.10094  0.40209  0.29691  1.0000
  H   H104      1.0  0.24125  0.23213  0.31485  1.0000
  C   C88       1.0  0.20438  0.01036  0.06947  1.0000
  H   H105      1.0  0.08576  0.37028  0.31678  1.0000
  C   C89       1.0  0.44674  0.48654  0.11572  1.0000
  N   N6        1.0  0.22999  0.18547  0.32382  1.0000
  C   C90       1.0  0.19711  0.19246  0.32673  1.0000
  C   C91       1.0  0.48537  0.09240  0.30540  1.0000
  H   H106      1.0  0.47201  0.03565  0.32561  1.0000
  H   H107      1.0  0.06042  0.41336  0.32773  1.0000
  C   C92       1.0  0.24909  0.21342  0.32881  1.0000
  Fe  Fe10      1.0  0.40756  0.10496  0.39471  1.0000
  S   S22       1.0  0.36204  0.12155  0.40933  1.0000
  Fe  Fe11      1.0  0.38218  0.16817  0.40266  1.0000
  S   S23       1.0  0.37444  0.20992  0.42913  1.0000
  S   S24       1.0  0.42907  0.15168  0.39207  1.0000
  C   C93       1.0  0.15618  0.21470  0.35471  1.0000
  Fe  Fe12      1.0  0.41071  0.15104  0.34700  1.0000
  Fe  Fe13      1.0  0.23604  0.30029  0.38240  1.0000
  S   S25       1.0  0.19013  0.32211  0.37602  1.0000
  S   S26       1.0  0.23969  0.25423  0.40199  1.0000
  C   C94       1.0  0.46421  0.05822  0.42701  1.0000
  Fe  Fe14      1.0  0.21553  0.36597  0.38611  1.0000
  S   S27       1.0  0.19806  0.40833  0.40771  1.0000
  S   S28       1.0  0.26037  0.34348  0.39658  1.0000
  Fe  Fe15      1.0  0.07434  0.45334  0.51332  1.0000
  S   S29       1.0  0.02730  0.47041  0.50270  1.0000
  S   S30       1.0  0.09022  0.40878  0.49495  1.0000
  C   C95       1.0  0.07189  0.42452  0.34567  1.0000
  S   S31       1.0  0.42720  0.06131  0.41177  1.0000
  C   C96       1.0  0.44682  0.24631  0.33871  1.0000
  Fe  Fe16      1.0  0.02066  0.47121  0.54966  1.0000
  H   H108      1.0  0.04317  0.32894  0.52665  1.0000
  C   C97       1.0  0.39283  0.99171  0.54214  1.0000
  H   H109      1.0  0.38392  0.24243  0.37865  1.0000
  S   S32       1.0  0.06626  0.45115  0.55988  1.0000
  H   H110      1.0  0.16662  0.41694  0.34896  1.0000
  C   C98       1.0  0.42786  0.23881  0.36091  1.0000
  C   C99       1.0  0.39752  0.24845  0.36072  1.0000
  H   H111      1.0  0.23433  0.47162  0.58893  1.0000
  Fe  Fe17      1.0  0.34923  0.12313  0.36306  1.0000
  H   H112      1.0  0.47368  0.10634  0.43126  1.0000
  H   H113      1.0  0.23045  0.43393  0.55235  1.0000
  C   C100      1.0  0.01836  0.35231  0.59404  1.0000
  C   C101      1.0  0.46597  0.05611  0.33826  1.0000
  C   C102      1.0  0.48244  0.08373  0.43448  1.0000
  C   C103      1.0  0.20623  0.43085  0.55882  1.0000
  C   C104      1.0  0.16882  0.40763  0.43268  1.0000
  C   C105      1.0  0.15461  0.38044  0.44066  1.0000
  C   C106      1.0  0.13047  0.38105  0.45982  1.0000
  C   C107      1.0  0.12032  0.40881  0.47086  1.0000
  C   C108      1.0  0.13441  0.43598  0.46272  1.0000
  C   C109      1.0  0.15878  0.43535  0.44388  1.0000
  H   H114      1.0  0.16224  0.35898  0.43213  1.0000
  H   H115      1.0  0.11964  0.35995  0.46608  1.0000
  H   H116      1.0  0.12649  0.45746  0.47088  1.0000
  H   H117      1.0  0.16960  0.45646  0.43757  1.0000
  C   C110      1.0  0.33686  0.22233  0.42264  1.0000
  C   C111      1.0  0.32991  0.25318  0.42571  1.0000
  C   C112      1.0  0.30031  0.26342  0.41865  1.0000
  C   C113      1.0  0.27728  0.24253  0.40983  1.0000
  C   C114      1.0  0.28412  0.21162  0.40746  1.0000
  C   C115      1.0  0.31397  0.20163  0.41320  1.0000
  H   H118      1.0  0.34752  0.26921  0.43321  1.0000
  H   H119      1.0  0.29509  0.28727  0.42090  1.0000
  H   H120      1.0  0.26633  0.19531  0.40124  1.0000
  H   H121      1.0  0.31909  0.17775  0.41098  1.0000
  S   S33       1.0  0.31671  0.36175  0.33650  1.0000
  Fe  Fe18      1.0  0.26968  0.34843  0.35034  1.0000
  H   H122      1.0  0.42598  0.04802  0.48256  1.0000
  H   H123      1.0  0.13851  0.43122  0.38524  1.0000
  C   C116      1.0  0.41693  0.03842  0.50254  1.0000
  C   C117      1.0  0.99682  0.30946  0.61893  1.0000
  H   H124      1.0  0.46191  0.00926  0.42501  1.0000
  H   H125      1.0  0.10712  0.36030  0.36545  1.0000
  Fe  Fe19      1.0  0.20538  0.32880  0.33148  1.0000
  H   H126      1.0  0.14304  0.37792  0.37628  1.0000
  H   H127      1.0  0.20257  0.21239  0.36926  1.0000
  C   C118      1.0  0.42392  0.00149  0.54017  1.0000
  C   C119      1.0  0.33204  0.24788  0.34214  1.0000
  C   C120      1.0  0.38492  0.26531  0.33790  1.0000
  H   H128      1.0  0.14592  0.42809  0.55091  1.0000
  C   C121      1.0  0.12859  0.37074  0.35744  1.0000
  H   H129      1.0  0.22641  0.14050  0.34120  1.0000
  C   C122      1.0  0.18650  0.45533  0.51731  1.0000
  H   H130      1.0  0.43652  0.22525  0.37833  1.0000
  S   S34       1.0  0.36550  0.17125  0.35763  1.0000
  H   H131      1.0  0.03031  0.39793  0.52315  1.0000
  C   C123      1.0  0.34853  0.29644  0.36207  1.0000
  H   H132      1.0  0.35551  0.28673  0.38280  1.0000
  H   H133      1.0  0.00533  0.31893  0.51307  1.0000
  H   H134      1.0  0.05204  0.37988  0.55057  1.0000
  H   H135      1.0  0.46396  0.04906  0.36070  1.0000
  C   C124      1.0  0.02830  0.38586  0.54366  1.0000
  C   C125      1.0  0.01434  0.33623  0.61909  1.0000
  H   H136      1.0  0.36255  0.31758  0.35934  1.0000
  C   C126      1.0  0.09755  0.45493  0.39323  1.0000
  H   H137      1.0  0.15456  0.45133  0.58215  1.0000
  H   H138      1.0  0.01918  0.40275  0.55884  1.0000
  C   C127      1.0  0.48139  0.10662  0.35425  1.0000
  C   C128      1.0  0.23904  0.16248  0.34504  1.0000
  C   C129      1.0  0.10301  0.41882  0.35354  1.0000
  H   H139      1.0  0.32418  0.30332  0.36383  1.0000
  H   H140      1.0  0.14125  0.35256  0.34630  1.0000
  C   C130      1.0  0.15537  0.45054  0.55856  1.0000
  S   S35       1.0  0.30337  0.10622  0.34580  1.0000
  N   N7        1.0  0.35250  0.27476  0.33819  1.0000
  C   C131      1.0  0.13467  0.20786  0.33310  1.0000
  H   H141      1.0  0.30744  0.25419  0.34127  1.0000
  H   H142      1.0  0.44248  0.06290  0.33135  1.0000
  H   H143      1.0  0.01874  0.44527  0.61030  1.0000
  S   S36       1.0  0.24903  0.30334  0.33685  1.0000
  C   C132      1.0  0.46808  0.02352  0.51484  1.0000
  H   H144      1.0  0.99340  0.29741  0.63855  1.0000
  N   N8        1.0  0.18694  0.45630  0.54880  1.0000
  H   H145      1.0  0.20941  0.46155  0.50900  1.0000
  H   H146      1.0  0.20572  0.42859  0.58229  1.0000
  C   C133      1.0  0.02090  0.33837  0.51905  1.0000
  H   H147      1.0  0.33573  0.23721  0.36313  1.0000
  C   C134      1.0  0.99764  0.41342  0.63868  1.0000
  N   N9        1.0  0.00790  0.35854  0.54096  1.0000
  N   N10       1.0  0.43560  0.01267  0.51291  1.0000
  H   H148      1.0  0.11094  0.21418  0.33527  1.0000
  C   C135      1.0  0.47569  0.02903  0.43135  1.0000
  H   H149      1.0  0.48389  0.00462  0.52000  1.0000
  C   C136      1.0  0.99893  0.43083  0.61393  1.0000
  H   H150      1.0  0.02543  0.35087  0.49912  1.0000
  H   H151      1.0  0.47947  0.09929  0.37658  1.0000
  C   C137      1.0  0.19791  0.48663  0.55935  1.0000
  H   H152      1.0  0.23442  0.16995  0.36706  1.0000
  H   H153      1.0  0.47143  0.04198  0.53104  1.0000
  H   H154      1.0  0.45906  0.11679  0.34822  1.0000
  H   H155      1.0  0.24836  0.22180  0.35105  1.0000
  S   S37       1.0  0.39295  0.10295  0.34867  1.0000
  H   H156      1.0  0.26401  0.15763  0.34443  1.0000
  H   H157      1.0  0.47014  0.23823  0.33860  1.0000
  C   C138      1.0  0.00472  0.34187  0.56786  1.0000
  S   S38       1.0  0.22720  0.37440  0.34083  1.0000
  H   H158      1.0  0.19789  0.40855  0.54978  1.0000
  C   C139      1.0  0.06718  0.46001  0.38501  1.0000
  C   C140      1.0  0.05440  0.44490  0.36125  1.0000
  H   H159      1.0  0.03067  0.44882  0.35504  1.0000
  H   H160      1.0  0.41671  0.05717  0.51861  1.0000
  C   C141      1.0  0.18686  0.20690  0.35175  1.0000
  H   H161      1.0  0.02415  0.34506  0.63900  1.0000
  N   N11       1.0  0.12192  0.39649  0.33841  1.0000
  H   H162      1.0  0.05349  0.47554  0.39723  1.0000
  H   H163      1.0  0.13919  0.46795  0.55086  1.0000
  C   C142      1.0  0.11522  0.43470  0.37779  1.0000
  H   H164      1.0  0.18003  0.43228  0.50871  1.0000
  H   H165      1.0  0.47581  0.03293  0.49442  1.0000
  H   H166      1.0  0.39275  0.03161  0.49739  1.0000
  H   H167      1.0  0.14920  0.22625  0.37387  1.0000
  H   H168      1.0  0.01656  0.41446  0.65400  1.0000
  C   C143      1.0  0.44297  0.99860  0.56495  1.0000
  H   H169      1.0  0.46716  0.00432  0.56536  1.0000
  H   H170      1.0  0.10740  0.46647  0.41189  1.0000
  H   H171      1.0  0.03174  0.37317  0.59597  1.0000
  H   H172      1.0  0.16950  0.47101  0.50781  1.0000
  H   H173      1.0  0.44298  0.99467  0.47095  1.0000
  H   H174      1.0  0.37711  0.99266  0.52408  1.0000
  C   C144      1.0  0.15148  0.41081  0.33028  1.0000
  H   H175      1.0  0.06413  0.07180  0.82876  1.0000
  C   C145      1.0  0.02860  0.07507  0.86083  1.0000
  C   C146      1.0  0.06722  0.03419  0.89064  1.0000
  H   H176      1.0  0.03356  0.03535  0.92305  1.0000
  H   H177      1.0  0.04213  0.11997  0.82253  1.0000
  H   H178      1.0  0.08186  0.01853  0.90204  1.0000
  H   H179      1.0  0.09656  0.03710  0.85496  1.0000
  H   H180      1.0  0.00011  0.07024  0.89780  1.0000
  H   H181      1.0  0.02307  0.08883  0.80291  1.0000
  C   C147      1.0  0.07541  0.04470  0.86411  1.0000
  H   H182      1.0  0.41583  0.47785  0.93830  1.0000
  H   H183      1.0  0.99513  0.05900  0.97478  1.0000
  C   C148      1.0  0.02102  0.06379  0.88784  1.0000
  C   C149      1.0  0.05646  0.06479  0.84926  1.0000
  C   C150      1.0  0.04006  0.04372  0.90246  1.0000
  C   C151      1.0  0.00082  0.12253  0.86377  1.0000
  N   N12       1.0  0.00752  0.09575  0.84559  1.0000
  H   H184      1.0  0.00406  0.12371  0.80827  1.0000
  H   H185      1.0  0.02235  0.13440  0.87129  1.0000
  S   S39       1.0  0.06465  0.00258  0.98343  1.0000
  C   C152      1.0  0.01996  0.10745  0.81873  1.0000
  H   H186      1.0  0.15180  0.01608  0.99412  1.0000
  Fe  Fe20      1.0  0.01359  0.99579  0.98576  1.0000
  H   H187      1.0  0.98854  0.39669  0.76782  1.0000
  H   H188      1.0  0.98766  0.11637  0.88278  1.0000
  C   C153      1.0  0.41926  0.50258  0.16645  1.0000
  C   C154      1.0  0.00826  0.64897  0.29017  1.0000
  C   C155      1.0  0.99895  0.65379  0.26202  1.0000
  H   H189      1.0  0.21028  0.96621  0.02651  1.0000
  H   H190      1.0  0.02494  0.86064  0.08528  1.0000
  H   H191      1.0  0.01851  0.66810  0.30176  1.0000
  H   H192      1.0  0.02542  0.91415  0.06893  1.0000
  C   C156      1.0  0.45088  0.51585  0.12681  1.0000
  C   C157      1.0  0.01031  0.87713  0.09511  1.0000
  C   C158      1.0  0.01054  0.90737  0.08579  1.0000
  H   H193      1.0  0.46471  0.53235  0.11568  1.0000
  H   H194      1.0  0.05922  0.60686  0.32296  1.0000
  C   C159      1.0  0.15481  0.96815  0.04977  1.0000
  C   C160      1.0  0.19156  0.97596  0.01317  1.0000
  Fe  Fe21      1.0  0.06717  0.95841  0.00663  1.0000
  C   C161      1.0  0.99115  0.92853  0.09803  1.0000
  S   S40       1.0  0.01625  0.94976  0.00586  1.0000
  H   H195      1.0  0.44044  0.54676  0.16061  1.0000
  H   H196      1.0  0.17247  0.95588  0.06230  1.0000
  Fe  Fe22      1.0  0.01708  0.97569  0.04711  1.0000
  H   H197      1.0  0.13914  0.97903  0.06491  1.0000
  S   S41       1.0  0.06823  0.98000  0.05007  1.0000
  C   C162      1.0  0.99031  0.86788  0.11628  1.0000
  H   H198      1.0  0.40931  0.51034  0.18588  1.0000
  C   C163      1.0  0.98855  0.59716  0.28654  1.0000
  C   C164      1.0  0.00323  0.62054  0.30341  1.0000
  S   S42       1.0  0.98914  0.96588  0.08543  1.0000
  H   H199      1.0  0.14137  0.95010  0.03791  1.0000
  C   C165      1.0  0.43719  0.52386  0.15212  1.0000
  H   H200      1.0  0.18125  0.95687  0.00004  1.0000
  H   H201      1.0  0.21106  0.98742  0.07426  1.0000
  H   H202      1.0  0.00208  0.67603  0.25269  1.0000
  H   H203      1.0  0.04287  0.98741  0.12087  1.0000
  H   H204      1.0  0.13166  0.98125  0.99957  1.0000
  S   S43       1.0  0.10082  0.92120  0.99819  1.0000
  C   C166      1.0  0.12702  0.56872  0.58783  1.0000
  H   H205      1.0  0.22335  0.77812  0.62120  1.0000
  C   C167      1.0  0.40971  0.71020  0.64589  1.0000
  C   C168      1.0  0.37987  0.72073  0.64738  1.0000
  H   H206      1.0  0.00216  0.66235  0.34681  1.0000
  C   C169      1.0  0.16136  0.60180  0.61669  1.0000
  Fe  Fe23      1.0  0.04822  0.51702  0.50949  1.0000
  S   S44       1.0  0.34900  0.79909  0.62529  1.0000
  H   H207      1.0  0.18152  0.56241  0.55209  1.0000
  H   H208      1.0  0.44673  0.98344  0.60819  1.0000
  C   C170      1.0  0.40097  0.97693  0.59100  1.0000
  S   S45       1.0  0.09639  0.49998  0.51591  1.0000
  C   C171      1.0  0.13502  0.54388  0.60453  1.0000
  C   C172      1.0  0.15639  0.54802  0.62710  1.0000
  C   C173      1.0  0.16955  0.57686  0.63316  1.0000
  H   H209      1.0  0.16279  0.52882  0.63997  1.0000
  C   C174      1.0  0.00589  0.58532  0.34419  1.0000
  C   C175      1.0  0.99945  0.58205  0.44275  1.0000
  C   C176      1.0  0.30116  0.76082  0.63892  1.0000
  H   H210      1.0  0.06809  0.54203  0.62708  1.0000
  H   H211      1.0  0.44036  0.90755  0.56540  1.0000
  C   C177      1.0  0.00152  0.52713  0.44419  1.0000
  N   N13       1.0  0.01268  0.61634  0.33352  1.0000
  H   H212      1.0  0.30224  0.75170  0.61757  1.0000
  C   C178      1.0  0.99640  0.63825  0.35163  1.0000
  H   H213      1.0  0.22385  0.56774  0.58767  1.0000
  H   H214      1.0  0.00704  0.60410  0.45097  1.0000
  C   C179      1.0  0.45270  0.90402  0.60980  1.0000
  H   H215      1.0  0.43244  0.89076  0.61479  1.0000
  C   C180      1.0  0.28123  0.74751  0.65837  1.0000
  H   H216      1.0  0.11099  0.63482  0.64136  1.0000
  H   H217      1.0  0.01750  0.53492  0.64877  1.0000
  C   C181      1.0  0.08050  0.58160  0.65262  1.0000
  C   C182      1.0  0.14028  0.59759  0.59386  1.0000
  S   S46       1.0  0.43651  0.81979  0.64296  1.0000
  H   H218      1.0  0.05287  0.64588  0.33237  1.0000
  H   H219      1.0  0.11057  0.56573  0.57037  1.0000
  H   H220      1.0  0.35791  0.97193  0.56811  1.0000
  S   S47       1.0  0.17597  0.63866  0.62477  1.0000
  H   H221      1.0  0.24982  0.52207  0.60572  1.0000
  Fe  Fe24      1.0  0.08449  0.49914  0.56195  1.0000
  H   H222      1.0  0.00179  0.63507  0.37460  1.0000
  S   S48       1.0  0.03799  0.55871  0.48352  1.0000
  Fe  Fe25      1.0  0.38716  0.81563  0.65471  1.0000
  C   C183      1.0  0.03254  0.55360  0.65583  1.0000
  C   C184      1.0  0.01121  0.55556  0.45496  1.0000
  H   H223      1.0  0.16404  0.51235  0.53501  1.0000
  H   H224      1.0  0.13391  0.61680  0.58098  1.0000
  C   C185      1.0  0.45724  0.91346  0.58189  1.0000
  C   C186      1.0  0.19145  0.76816  0.65400  1.0000
  H   H225      1.0  0.37002  0.73362  0.63000  1.0000
  C   C187      1.0  0.21705  0.54533  0.57955  1.0000
  H   H226      1.0  0.10233  0.58369  0.64255  1.0000
  S   S49       1.0  0.03784  0.51937  0.55598  1.0000
  C   C188      1.0  0.19322  0.54229  0.55944  1.0000
  H   H227      1.0  0.42304  0.71470  0.62733  1.0000
  H   H228      1.0  0.05432  0.61798  0.35942  1.0000
  S   S50       1.0  0.11855  0.50748  0.59823  1.0000
  C   C189      1.0  0.06098  0.55764  0.64360  1.0000
  H   H229      1.0  0.18004  0.74988  0.64193  1.0000
  H   H230      1.0  0.26653  0.72844  0.65190  1.0000
  C   C190      1.0  0.23153  0.51953  0.58976  1.0000
  C   C191      1.0  0.32075  0.78502  0.64761  1.0000
  C   C192      1.0  0.21581  0.78405  0.64223  1.0000
  C   C193      1.0  0.43152  0.98646  0.58988  1.0000
  H   H231      1.0  0.01317  0.58289  0.36687  1.0000
  C   C194      1.0  0.38161  0.97968  0.56722  1.0000
  H   H232      1.0  0.01070  0.50666  0.45322  1.0000
  H   H233      1.0  0.39247  0.96693  0.61022  1.0000
  C   C195      1.0  0.23134  0.80679  0.65797  1.0000
  H   H234      1.0  0.44656  0.96751  0.49889  1.0000
  C   C196      1.0  0.43350  0.98763  0.49153  1.0000
  H   H235      1.0  0.25114  0.81822  0.64921  1.0000
  H   H236      1.0  0.18607  0.57972  0.65052  1.0000
  C   C197      1.0  0.18351  0.51345  0.54967  1.0000
  H   H237      1.0  0.40945  0.97986  0.48706  1.0000
  C   C198      1.0  0.09994  0.64725  0.65891  1.0000
  H   H238      1.0  0.07846  0.65707  0.65000  1.0000
  C   C199      1.0  0.48350  0.93053  0.57529  1.0000
  C   C200      1.0  0.04621  0.62202  0.33720  1.0000
  C   C201      1.0  0.47409  0.91228  0.63127  1.0000
  H   H239      1.0  0.48163  0.80493  0.59817  1.0000
  H   H240      1.0  0.01801  0.56756  0.33205  1.0000
  H   H241      1.0  0.48682  0.85159  0.57692  1.0000
  C   C202      1.0  0.22227  0.49054  0.57988  1.0000
  Fe  Fe26      1.0  0.43677  0.66546  0.88717  1.0000
  S   S51       1.0  0.42364  0.63518  0.85007  1.0000
  S   S52       1.0  0.46158  0.65142  0.92754  1.0000
  Fe  Fe27      1.0  0.40492  0.72020  0.86134  1.0000
  S   S53       1.0  0.38915  0.69456  0.82195  1.0000
  S   S54       1.0  0.39478  0.77007  0.86471  1.0000
  Fe  Fe28      1.0  0.37786  0.65717  0.85198  1.0000
  S   S55       1.0  0.33304  0.63133  0.84952  1.0000
  Fe  Fe29      1.0  0.43634  0.67522  0.82334  1.0000
  H   H242      1.0  0.11966  0.84072  0.91757  1.0000
  S   S56       1.0  0.38958  0.68445  0.89131  1.0000
  S   S57       1.0  0.45343  0.70392  0.86037  1.0000
  H   H243      1.0  0.43257  0.84293  0.80840  1.0000
  H   H244      1.0  0.38634  0.51022  0.90627  1.0000
  H   H245      1.0  0.08853  0.81349  0.92209  1.0000
  Fe  Fe30      1.0  0.25030  0.63203  0.71064  1.0000
  S   S58       1.0  0.23742  0.66967  0.73986  1.0000
  S   S59       1.0  0.29233  0.60567  0.72192  1.0000
  H   H246      1.0  0.37561  0.61120  0.93593  1.0000
  H   H247      1.0  0.04909  0.83057  0.85314  1.0000
  Fe  Fe31      1.0  0.18894  0.65689  0.72853  1.0000
  S   S60       1.0  0.14992  0.65830  0.75853  1.0000
  S   S61       1.0  0.18569  0.68796  0.69164  1.0000
  S   S62       1.0  0.20166  0.61554  0.70309  1.0000
  Fe  Fe32      1.0  0.23264  0.82281  0.87535  1.0000
  S   S63       1.0  0.23907  0.87056  0.85976  1.0000
  S   S64       1.0  0.26202  0.79855  0.90737  1.0000
  Fe  Fe33      1.0  0.17433  0.81080  0.84049  1.0000
  S   S65       1.0  0.17528  0.85729  0.82194  1.0000
  S   S66       1.0  0.13402  0.77921  0.83105  1.0000
  Fe  Fe34      1.0  0.22550  0.84987  0.81744  1.0000
  S   S67       1.0  0.24462  0.86287  0.77567  1.0000
  Fe  Fe35      1.0  0.18828  0.87425  0.86575  1.0000
  S   S68       1.0  0.16511  0.91737  0.87950  1.0000
  S   S69       1.0  0.22358  0.80167  0.83228  1.0000
  S   S70       1.0  0.18284  0.82817  0.88496  1.0000
  H   H248      1.0  0.39468  0.68697  0.75121  1.0000
  C   C203      1.0  0.40592  0.68955  0.69305  1.0000
  C   C204      1.0  0.10415  0.85594  0.86471  1.0000
  S   S71       1.0  0.25664  0.74309  0.71134  1.0000
  H   H249      1.0  0.11617  0.80750  0.89544  1.0000
  C   C205      1.0  0.14764  0.91815  0.91265  1.0000
  C   C206      1.0  0.15374  0.89606  0.93299  1.0000
  C   C207      1.0  0.13934  0.89727  0.95925  1.0000
  C   C208      1.0  0.11865  0.92042  0.96517  1.0000
  C   C209      1.0  0.11241  0.94237  0.94474  1.0000
  C   C210      1.0  0.12699  0.94131  0.91860  1.0000
  H   H250      1.0  0.16993  0.87834  0.92867  1.0000
  H   H251      1.0  0.23652  0.83035  0.69741  1.0000
  N   N14       1.0  0.09360  0.62739  0.68335  1.0000
  H   H252      1.0  0.12210  0.95833  0.90283  1.0000
  C   C211      1.0  0.13992  0.74600  0.81070  1.0000
  C   C212      1.0  0.16621  0.74208  0.79466  1.0000
  C   C213      1.0  0.16930  0.71556  0.77788  1.0000
  C   C214      1.0  0.14657  0.69254  0.77794  1.0000
  C   C215      1.0  0.12055  0.69652  0.79416  1.0000
  C   C216      1.0  0.11709  0.72322  0.81017  1.0000
  H   H253      1.0  0.18405  0.75943  0.79515  1.0000
  H   H254      1.0  0.18953  0.71264  0.76545  1.0000
  H   H255      1.0  0.10296  0.67885  0.79437  1.0000
  H   H256      1.0  0.09675  0.72606  0.82250  1.0000
  C   C217      1.0  0.16019  0.79065  0.73635  1.0000
  H   H257      1.0  0.15411  0.79754  0.75831  1.0000
  C   C218      1.0  0.34294  0.83288  0.76375  1.0000
  C   C219      1.0  0.32803  0.82600  0.78885  1.0000
  C   C220      1.0  0.29763  0.83482  0.79257  1.0000
  C   C221      1.0  0.28216  0.85054  0.77110  1.0000
  C   C222      1.0  0.29677  0.85667  0.74570  1.0000
  C   C223      1.0  0.32717  0.84788  0.74204  1.0000
  H   H258      1.0  0.34021  0.81431  0.80559  1.0000
  H   H259      1.0  0.28649  0.83016  0.81229  1.0000
  H   H260      1.0  0.28480  0.86874  0.72903  1.0000
  C   C224      1.0  0.32184  0.62271  0.81433  1.0000
  C   C225      1.0  0.34387  0.61824  0.79377  1.0000
  C   C226      1.0  0.33459  0.61171  0.76559  1.0000
  C   C227      1.0  0.30340  0.61115  0.75768  1.0000
  C   C228      1.0  0.28140  0.61577  0.77824  1.0000
  C   C229      1.0  0.29060  0.62098  0.80664  1.0000
  H   H261      1.0  0.36804  0.61929  0.79965  1.0000
  H   H262      1.0  0.35160  0.60750  0.74981  1.0000
  H   H263      1.0  0.25725  0.61470  0.77235  1.0000
  H   H264      1.0  0.27352  0.62432  0.82255  1.0000
  C   C230      1.0  0.35866  0.77878  0.87798  1.0000
  C   C231      1.0  0.34431  0.75958  0.89715  1.0000
  C   C232      1.0  0.31504  0.76643  0.90682  1.0000
  C   C233      1.0  0.29966  0.79202  0.89675  1.0000
  C   C234      1.0  0.31399  0.81126  0.87759  1.0000
  C   C235      1.0  0.34373  0.80498  0.86870  1.0000
  H   H265      1.0  0.35586  0.73965  0.90481  1.0000
  H   H266      1.0  0.30403  0.75154  0.92170  1.0000
  H   H267      1.0  0.30231  0.83116  0.86987  1.0000
  H   H268      1.0  0.35498  0.82020  0.85428  1.0000
  H   H269      1.0  0.41766  0.57221  0.87805  1.0000
  C   C236      1.0  0.45073  0.71808  0.75573  1.0000
  C   C237      1.0  0.45455  0.73820  0.73303  1.0000
  H   H270      1.0  0.09618  0.95999  0.94886  1.0000
  H   H271      1.0  0.43447  0.72292  0.77195  1.0000
  H   H272      1.0  0.44132  0.75870  0.73188  1.0000
  C   C238      1.0  0.06538  0.87223  0.92876  1.0000
  H   H273      1.0  0.11891  0.83849  0.85497  1.0000
  C   C239      1.0  0.41534  0.50219  0.94224  1.0000
  H   H274      1.0  0.13898  0.63274  0.70194  1.0000
  H   H275      1.0  0.42990  0.75963  0.81230  1.0000
  H   H276      1.0  0.35790  0.67435  0.76181  1.0000
  N   N15       1.0  0.28245  0.72764  0.81273  1.0000
  C   C240      1.0  0.29981  0.69975  0.80641  1.0000
  C   C241      1.0  0.27220  0.74166  0.78575  1.0000
  C   C242      1.0  0.30403  0.74952  0.82743  1.0000
  C   C243      1.0  0.25528  0.71967  0.82951  1.0000
  C   C244      1.0  0.23349  0.69755  0.81917  1.0000
  C   C245      1.0  0.24923  0.73374  0.85598  1.0000
  C   C246      1.0  0.20713  0.69041  0.83413  1.0000
  C   C247      1.0  0.22263  0.72679  0.87063  1.0000
  C   C248      1.0  0.20151  0.70530  0.85965  1.0000
  H   H277      1.0  0.28707  0.68396  0.79156  1.0000
  H   H278      1.0  0.32207  0.70497  0.79655  1.0000
  H   H279      1.0  0.30504  0.68708  0.82625  1.0000
  H   H280      1.0  0.25721  0.72608  0.77258  1.0000
  H   H281      1.0  0.29186  0.74838  0.77247  1.0000
  H   H282      1.0  0.25895  0.76261  0.78981  1.0000
  H   H283      1.0  0.31281  0.74021  0.84785  1.0000
  H   H284      1.0  0.32449  0.75484  0.81463  1.0000
  H   H285      1.0  0.29306  0.77175  0.83167  1.0000
  H   H286      1.0  0.23647  0.68580  0.79928  1.0000
  H   H287      1.0  0.26445  0.75059  0.86571  1.0000
  H   H288      1.0  0.19062  0.67373  0.82552  1.0000
  H   H289      1.0  0.21840  0.73850  0.89051  1.0000
  H   H290      1.0  0.18070  0.70028  0.87085  1.0000
  C   C249      1.0  0.42903  0.78239  0.80237  1.0000
  C   C250      1.0  0.02915  0.90889  0.89396  1.0000
  H   H291      1.0  0.07810  0.63367  0.72605  1.0000
  C   C251      1.0  0.46811  0.69166  0.75734  1.0000
  H   H292      1.0  0.41740  0.58909  0.95678  1.0000
  H   H293      1.0  0.09177  0.86699  0.84688  1.0000
  C   C252      1.0  0.02994  0.91374  0.92319  1.0000
  Fe  Fe36      1.0  0.44598  0.79274  0.68201  1.0000
  H   H294      1.0  0.11956  0.87344  0.87496  1.0000
  C   C253      1.0  0.19755  0.79835  0.69810  1.0000
  H   H295      1.0  0.11923  0.59845  0.71149  1.0000
  H   H296      1.0  0.37133  0.61942  0.89922  1.0000
  C   C254      1.0  0.46230  0.80333  0.83966  1.0000
  H   H297      1.0  0.07555  0.80121  0.86097  1.0000
  H   H298      1.0  0.14046  0.79631  0.72205  1.0000
  Fe  Fe37      1.0  0.43794  0.86004  0.67276  1.0000
  H   H299      1.0  0.42507  0.77894  0.77916  1.0000
  N   N16       1.0  0.38136  0.57246  0.90796  1.0000
  C   C255      1.0  0.39249  0.56764  0.87883  1.0000
  C   C256      1.0  0.34820  0.56436  0.90820  1.0000
  C   C257      1.0  0.38452  0.60549  0.91468  1.0000
  C   C258      1.0  0.39857  0.55304  0.92808  1.0000
  C   C259      1.0  0.43164  0.54590  0.97044  1.0000
  C   C260      1.0  0.39873  0.52098  0.92394  1.0000
  H   H300      1.0  0.16686  0.84735  0.71483  1.0000
  H   H301      1.0  0.17715  0.84578  0.75212  1.0000
  C   C261      1.0  0.04781  0.89528  0.94053  1.0000
  H   H302      1.0  0.38810  0.54411  0.87075  1.0000
  H   H303      1.0  0.38085  0.58287  0.86333  1.0000
  H   H304      1.0  0.00142  0.57018  0.68667  1.0000
  H   H305      1.0  0.34345  0.54053  0.90104  1.0000
  C   C262      1.0  0.43185  0.51465  0.96539  1.0000
  H   H306      1.0  0.06034  0.65833  0.69989  1.0000
  H   H307      1.0  0.40886  0.61343  0.91390  1.0000
  H   H308      1.0  0.41772  0.67792  0.71005  1.0000
  N   N17       1.0  0.35771  0.69732  0.72152  1.0000
  Fe  Fe38      1.0  0.20165  0.64768  0.66647  1.0000
  C   C263      1.0  0.28042  0.75908  0.68612  1.0000
  H   H309      1.0  0.34051  0.72560  0.67232  1.0000
  C   C264      1.0  0.06250  0.82012  0.87072  1.0000
  S   S72       1.0  0.39670  0.78456  0.69093  1.0000
  C   C265      1.0  0.12292  0.61454  0.69381  1.0000
  H   H310      1.0  0.04496  0.88282  0.85918  1.0000
  C   C266      1.0  0.45210  0.83191  0.79773  1.0000
  C   C267      1.0  0.37237  0.67739  0.74297  1.0000
  S   S73       1.0  0.46449  0.66565  0.78511  1.0000
  C   C268      1.0  0.07221  0.60235  0.67426  1.0000
  H   H311      1.0  0.20949  0.80452  0.76949  1.0000
  H   H312      1.0  0.01531  0.92341  0.88054  1.0000
  C   C269      1.0  0.06517  0.86669  0.89897  1.0000
  H   H313      1.0  0.44363  0.81628  0.84976  1.0000
  C   C270      1.0  0.18441  0.83932  0.73042  1.0000
  S   S74       1.0  0.38154  0.82329  0.76043  1.0000
  H   H314      1.0  0.33855  0.85330  0.72267  1.0000
  H   H315      1.0  0.44538  0.83158  0.77482  1.0000
  H   H316      1.0  0.16257  0.76548  0.73678  1.0000
  Fe  Fe39      1.0  0.40024  0.82732  0.71680  1.0000
  S   S75       1.0  0.45084  0.83292  0.71108  1.0000
  H   H317      1.0  0.37632  0.65429  0.73398  1.0000
  H   H318      1.0  0.29837  0.79304  0.71573  1.0000
  C   C271      1.0  0.35463  0.72798  0.73450  1.0000
  H   H319      1.0  0.33908  0.56707  0.92988  1.0000
  H   H320      1.0  0.47274  0.84684  0.80118  1.0000
  H   H321      1.0  0.33452  0.57916  0.89371  1.0000
  C   C272      1.0  0.08192  0.64695  0.70646  1.0000
  N   N18       1.0  0.45733  0.80074  0.80844  1.0000
  C   C273      1.0  0.29912  0.78392  0.69435  1.0000
  H   H322      1.0  0.14429  0.88025  0.97502  1.0000
  C   C274      1.0  0.32660  0.68432  0.71477  1.0000
  H   H323      1.0  0.13519  0.60226  0.67695  1.0000
  H   H324      1.0  0.40835  0.79375  0.81057  1.0000
  C   C275      1.0  0.37545  0.70022  0.69534  1.0000
  H   H325      1.0  0.34192  0.72715  0.75452  1.0000
  C   C276      1.0  0.22265  0.81366  0.68558  1.0000
  H   H326      1.0  0.46187  0.78088  0.85023  1.0000
  H   H327      1.0  0.01688  0.93198  0.93246  1.0000
  C   C277      1.0  0.10266  0.82538  0.90622  1.0000
  H   H328      1.0  0.44612  0.68697  0.66762  1.0000
  N   N19       1.0  0.18893  0.80603  0.72747  1.0000
  H   H329      1.0  0.04595  0.80990  0.88559  1.0000
  H   H330      1.0  0.09879  0.66536  0.71281  1.0000
  H   H331      1.0  0.11613  0.66631  0.66493  1.0000
  H   H332      1.0  0.07934  0.85953  0.94353  1.0000
  S   S76       1.0  0.38732  0.85855  0.68125  1.0000
  H   H333      1.0  0.04863  0.89932  0.96328  1.0000
  C   C278      1.0  0.21386  0.79695  0.74741  1.0000
  H   H334      1.0  0.20586  0.85272  0.72729  1.0000
  H   H335      1.0  0.37755  0.73876  0.73932  1.0000
  Fe  Fe40      1.0  0.23551  0.69766  0.70083  1.0000
  H   H336      1.0  0.23651  0.80690  0.74182  1.0000
  C   C279      1.0  0.41552  0.56500  0.95206  1.0000
  H   H337      1.0  0.16366  0.76153  0.68946  1.0000
  H   H338      1.0  0.31359  0.67938  0.73420  1.0000
  H   H339      1.0  0.21636  0.77184  0.74745  1.0000
  C   C280      1.0  0.42263  0.69453  0.66860  1.0000
  C   C281      1.0  0.18228  0.77512  0.68150  1.0000
  C   C282      1.0  0.04631  0.88565  0.88196  1.0000
  H   H340      1.0  0.32801  0.66247  0.70264  1.0000
  N   N20       1.0  0.08334  0.84244  0.88565  1.0000
  H   H341      1.0  0.33420  0.81549  0.68198  1.0000
  H   H342      1.0  0.31200  0.69991  0.70215  1.0000
  H   H343      1.0  0.03472  0.61204  0.70306  1.0000
  H   H344      1.0  0.34204  0.74370  0.72020  1.0000
  S   S77       1.0  0.25171  0.66098  0.67187  1.0000
  C   C283      1.0  0.04302  0.59759  0.68638  1.0000
  C   C284      1.0  0.47686  0.61474  0.93077  1.0000
  C   C285      1.0  0.36301  0.71589  0.67171  1.0000
  C   C286      1.0  0.31942  0.79665  0.67523  1.0000
  H   H345      1.0  0.44527  0.50012  0.97919  1.0000
  H   H346      1.0  0.46770  0.60119  0.88734  1.0000
  C   C287      1.0  0.47655  0.59428  0.90782  1.0000
  S   S78       1.0  0.46925  0.90061  0.66634  1.0000
  H   H347      1.0  0.44496  0.55553  0.98824  1.0000
  C   C288      1.0  0.02357  0.57352  0.67716  1.0000
  C   C289      1.0  0.47589  0.73191  0.71209  1.0000
  H   H348      1.0  0.48222  0.74592  0.82272  1.0000
  S   S79       1.0  0.48128  0.75641  0.68337  1.0000
  C   C290      1.0  0.48343  0.78540  0.79524  1.0000
  H   H349      1.0  0.48456  0.81494  0.84521  1.0000
  Fe  Fe41      1.0  0.57034  0.46024  0.01653  1.0000
  H   H350      1.0  0.55087  0.39129  0.08513  1.0000
  H   H351      1.0  0.50057  0.11255  0.30186  1.0000
  H   H352      1.0  0.58249  0.39268  0.06191  1.0000
  C   C291      1.0  0.56482  0.37709  0.07081  1.0000
  S   S80       1.0  0.54996  0.46917  0.05904  1.0000
  C   C292      1.0  0.49410  0.31692  0.09759  1.0000
  C   C293      1.0  0.56572  0.34468  0.02956  1.0000
  C   C294      1.0  0.49933  0.32752  0.03976  1.0000
  C   C295      1.0  0.48912  0.40048  0.12339  1.0000
  H   H353      1.0  0.50684  0.43557  0.09633  1.0000
  H   H354      1.0  0.57620  0.32544  0.04120  1.0000
  N   N21       1.0  0.54533  0.36225  0.04807  1.0000
  H   H355      1.0  0.57754  0.36009  0.08358  1.0000
  H   H356      1.0  0.49164  0.31321  0.12012  1.0000
  S   S81       1.0  0.60793  0.42590  0.01276  1.0000
  Fe  Fe42      1.0  0.50479  0.46544  0.03528  1.0000
  H   H357      1.0  0.50700  0.40379  0.13956  1.0000
  H   H358      1.0  0.53266  0.34601  0.10446  1.0000
  H   H359      1.0  0.55329  0.33514  0.01048  1.0000
  C   C296      1.0  0.54466  0.07157  0.32310  1.0000
  H   H360      1.0  0.51530  0.40022  0.04402  1.0000
  C   C297      1.0  0.52092  0.34196  0.05887  1.0000
  C   C298      1.0  0.51773  0.33588  0.08819  1.0000
  H   H361      1.0  0.58476  0.35930  0.02156  1.0000
  H   H362      1.0  0.54912  0.40285  0.02343  1.0000
  H   H363      1.0  0.51840  0.37838  0.01200  1.0000
  C   C299      1.0  0.53135  0.38684  0.03117  1.0000
  H   H364      1.0  0.59239  0.06242  0.31619  1.0000
  H   H365      1.0  0.50041  0.33086  0.01716  1.0000
  H   H366      1.0  0.54206  0.08054  0.30200  1.0000
  C   C300      1.0  0.48913  0.41840  0.09888  1.0000
  H   H367      1.0  0.49004  0.07427  0.28952  1.0000
  C   C301      1.0  0.83138  0.22735  0.59486  1.0000
  S   S82       1.0  0.55450  0.00686  0.53627  1.0000
  S   S83       1.0  0.56056  0.04601  0.46550  1.0000
  Fe  Fe43      1.0  0.87251  0.30794  0.65908  1.0000
  H   H368      1.0  0.67687  0.08879  0.62740  1.0000
  C   C302      1.0  0.62781  0.08446  0.63008  1.0000
  C   C303      1.0  0.60152  0.06768  0.62127  1.0000
  C   C304      1.0  0.60406  0.04185  0.60376  1.0000
  C   C305      1.0  0.63294  0.03274  0.59522  1.0000
  C   C306      1.0  0.65913  0.04989  0.60353  1.0000
  C   C307      1.0  0.65655  0.07585  0.62080  1.0000
  H   H369      1.0  0.60195  0.04162  0.36406  1.0000
  H   H370      1.0  0.58382  0.02848  0.59759  1.0000
  H   H371      1.0  0.68152  0.04283  0.59690  1.0000
  H   H372      1.0  0.57924  0.07429  0.62854  1.0000
  C   C308      1.0  0.75048  0.27427  0.61049  1.0000
  C   C309      1.0  0.77697  0.29261  0.60967  1.0000
  H   H373      1.0  0.73169  0.27794  0.59552  1.0000
  H   H374      1.0  0.77851  0.31035  0.59406  1.0000
  H   H375      1.0  0.88593  0.21750  0.64578  1.0000
  C   C310      1.0  0.94870  0.41118  0.59925  1.0000
  C   C311      1.0  0.94771  0.39325  0.62367  1.0000
  H   H376      1.0  0.92957  0.41043  0.58414  1.0000
  C   C312      1.0  0.63564  0.11782  0.54521  1.0000
  S   S84       1.0  0.71202  0.14397  0.64787  1.0000
  C   C313      1.0  0.97436  0.42988  0.59424  1.0000
  H   H377      1.0  0.68514  0.17492  0.59304  1.0000
  H   H378      1.0  0.58855  0.07700  0.55755  1.0000
  C   C314      1.0  0.79924  0.26499  0.64890  1.0000
  H   H379      1.0  0.57296  0.07401  0.52227  1.0000
  C   C315      1.0  0.51217  0.07988  0.44614  1.0000
  C   C316      1.0  0.66552  0.12747  0.53753  1.0000
  H   H380      1.0  0.63348  0.11662  0.48716  1.0000
  H   H381      1.0  0.78084  0.35366  0.63362  1.0000
  H   H382      1.0  0.49904  0.12520  0.35372  1.0000
  H   H383      1.0  0.59688  0.09820  0.48371  1.0000
  C   C317      1.0  0.73858  0.35652  0.65595  1.0000
  H   H384      1.0  0.65528  0.07197  0.51021  1.0000
  S   S85       1.0  0.83357  0.31280  0.62750  1.0000
  N   N22       1.0  0.61696  0.09739  0.52605  1.0000
  H   H385      1.0  0.61928  0.05226  0.50766  1.0000
  C   C318      1.0  0.68313  0.14775  0.55465  1.0000
  C   C319      1.0  0.80133  0.28827  0.62900  1.0000
  C   C320      1.0  0.52647  0.05822  0.36942  1.0000
  H   H386      1.0  0.60269  0.12295  0.57945  1.0000
  C   C321      1.0  0.85868  0.23104  0.61065  1.0000
  H   H387      1.0  0.67541  0.11952  0.51811  1.0000
  H   H388      1.0  0.52634  0.09962  0.45174  1.0000
  H   H389      1.0  0.92793  0.37874  0.62728  1.0000
  S   S86       1.0  0.71429  0.22904  0.63051  1.0000
  H   H390      1.0  0.63388  0.15816  0.60812  1.0000
  C   C322      1.0  0.64255  0.14972  0.58820  1.0000
  S   S87       1.0  0.63733  0.99896  0.57585  1.0000
  S   S88       1.0  0.92037  0.30165  0.64385  1.0000
  C   C323      1.0  0.61178  0.11243  0.49839  1.0000
  S   S89       1.0  0.97526  0.45124  0.56288  1.0000
  C   C324      1.0  0.58637  0.08934  0.53720  1.0000
  C   C325      1.0  0.55568  0.04808  0.37715  1.0000
  C   C326      1.0  0.80960  0.20576  0.60281  1.0000
  H   H391      1.0  0.78790  0.20370  0.59107  1.0000
  C   C327      1.0  0.63331  0.06854  0.52116  1.0000
  C   C328      1.0  0.52339  0.05059  0.45092  1.0000
  H   H392      1.0  0.79678  0.17245  0.63268  1.0000
  H   H393      1.0  0.51375  0.00256  0.44652  1.0000
  C   C329      1.0  0.62475  0.12938  0.57132  1.0000
  H   H394      1.0  0.82667  0.24195  0.57698  1.0000
  C   C330      1.0  0.51999  0.07026  0.34218  1.0000
  H   H395      1.0  0.96111  0.34955  0.52611  1.0000
  H   H396      1.0  0.70584  0.15490  0.54836  1.0000
  H   H397      1.0  0.94456  0.48879  0.48414  1.0000
  H   H398      1.0  0.72445  0.35072  0.63730  1.0000
  H   H399      1.0  0.60043  0.13471  0.50123  1.0000
  Fe  Fe44      1.0  0.56692  0.00299  0.49055  1.0000
  C   C331      1.0  0.74812  0.25128  0.63055  1.0000
  C   C332      1.0  0.98315  0.29859  0.59368  1.0000
  H   H400      1.0  0.57221  0.10985  0.54038  1.0000
  C   C333      1.0  0.67158  0.15901  0.57985  1.0000
  H   H401      1.0  0.63869  0.05703  0.54152  1.0000
  H   H402      1.0  0.96919  0.27791  0.59382  1.0000
  H   H403      1.0  0.82040  0.13371  0.65422  1.0000
  C   C334      1.0  0.86438  0.21320  0.63449  1.0000
  H   H404      1.0  0.96665  0.38346  0.54725  1.0000
  C   C335      1.0  0.57932  0.04954  0.35796  1.0000
  C   C336      1.0  0.97209  0.39451  0.64355  1.0000
  C   C337      1.0  0.77256  0.24652  0.64976  1.0000
  H   H405      1.0  0.87520  0.24845  0.60483  1.0000
  C   C338      1.0  0.81491  0.18803  0.62678  1.0000
  C   C339      1.0  0.50508  0.02520  0.44346  1.0000
  H   H406      1.0  0.65040  0.01651  0.65202  1.0000
  H   H407      1.0  0.55998  0.03914  0.39824  1.0000
  C   C340      1.0  0.77036  0.35792  0.65383  1.0000
  C   C341      1.0  0.84245  0.19125  0.64345  1.0000
  H   H408      1.0  0.50894  0.05670  0.38503  1.0000
  H   H409      1.0  0.86050  0.13339  0.64636  1.0000
  S   S90       1.0  0.62433  0.11458  0.65440  1.0000
  H   H410      1.0  0.97884  0.38260  0.51133  1.0000
  H   H411      1.0  0.97539  0.30546  0.54958  1.0000
  C   C342      1.0  0.97731  0.36882  0.53091  1.0000
  N   N23       1.0  0.48884  0.08116  0.33488  1.0000
  C   C343      1.0  0.98690  0.31453  0.56850  1.0000
  H   H412      1.0  0.62061  0.99170  0.66214  1.0000
  C   C344      1.0  0.57384  0.06125  0.33101  1.0000
  Fe  Fe45      1.0  0.69239  0.38723  0.87264  1.0000
  S   S91       1.0  0.67716  0.33828  0.86685  1.0000
  S   S92       1.0  0.66289  0.42447  0.89010  1.0000
  Fe  Fe46      1.0  0.74888  0.37930  0.83653  1.0000
  S   S93       1.0  0.73859  0.32990  0.82840  1.0000
  S   S94       1.0  0.78555  0.40279  0.81170  1.0000
  Fe  Fe47      1.0  0.69007  0.34417  0.82161  1.0000
  S   S95       1.0  0.66441  0.32818  0.78225  1.0000
  Fe  Fe48      1.0  0.72723  0.32840  0.87426  1.0000
  S   S96       1.0  0.74242  0.28612  0.89682  1.0000
  S   S97       1.0  0.70104  0.39361  0.82640  1.0000
  S   S98       1.0  0.74189  0.37711  0.88356  1.0000
  H   H413      1.0  0.89923  0.21450  0.90606  1.0000
  C   C345      1.0  0.73623  0.04471  0.72255  1.0000
  H   H414      1.0  0.74525  0.14354  0.88381  1.0000
  Fe  Fe49      1.0  0.89237  0.30894  0.72062  1.0000
  S   S99       1.0  0.94171  0.30244  0.71101  1.0000
  S   S100      1.0  0.87934  0.30754  0.76606  1.0000
  H   H415      1.0  0.73541  0.24203  0.75482  1.0000
  H   H416      1.0  0.88832  0.17815  0.94549  1.0000
  Fe  Fe50      1.0  0.92397  0.26817  0.67921  1.0000
  C   C346      1.0  0.78339  0.25639  0.75322  1.0000
  S   S101      1.0  0.88547  0.34628  0.68934  1.0000
  S   S102      1.0  0.87508  0.27143  0.69162  1.0000
  Fe  Fe51      1.0  0.73530  0.13656  0.69026  1.0000
  S   S103      1.0  0.69152  0.12471  0.71185  1.0000
  S   S104      1.0  0.78015  0.11388  0.69963  1.0000
  C   C347      1.0  0.84117  0.28438  0.94152  1.0000
  H   H417      1.0  0.91544  0.24373  0.99169  1.0000
  H   H418      1.0  0.75860  0.20358  0.77531  1.0000
  Fe  Fe52      1.0  0.69145  0.17449  0.72247  1.0000
  S   S105      1.0  0.68784  0.18799  0.76832  1.0000
  C   C348      1.0  0.93201  0.37615  0.75164  1.0000
  C   C349      1.0  0.77547  0.36984  0.70394  1.0000
  S   S106      1.0  0.73631  0.18572  0.70292  1.0000
  H   H419      1.0  0.76071  0.16864  0.83936  1.0000
  Fe  Fe53      1.0  0.90936  0.14372  0.88131  1.0000
  S   S107      1.0  0.89728  0.11352  0.84379  1.0000
  S   S108      1.0  0.93602  0.13379  0.92164  1.0000
  Fe  Fe54      1.0  0.88316  0.20014  0.85343  1.0000
  S   S109      1.0  0.87006  0.17534  0.81302  1.0000
  S   S110      1.0  0.87522  0.25030  0.85919  1.0000
  Fe  Fe55      1.0  0.85311  0.13909  0.84183  1.0000
  S   S111      1.0  0.80514  0.12238  0.83218  1.0000
  Fe  Fe56      1.0  0.91520  0.15243  0.81822  1.0000
  S   S112      1.0  0.94732  0.14102  0.78356  1.0000
  S   S113      1.0  0.86317  0.16533  0.88214  1.0000
  S   S114      1.0  0.93043  0.18092  0.85578  1.0000
  S   S115      1.0  0.94614  0.22302  0.67430  1.0000
  H   H420      1.0  0.98042  0.33687  0.79425  1.0000
  H   H421      1.0  0.67969  0.39103  0.94121  1.0000
  C   C350      1.0  0.94730  0.09638  0.92911  1.0000
  C   C351      1.0  0.94631  0.04200  0.91911  1.0000
  H   H422      1.0  0.78564  0.24176  0.82382  1.0000
  C   C352      1.0  0.93621  0.07147  0.91288  1.0000
  C   C353      1.0  0.77863  0.25328  0.80390  1.0000
  H   H423      1.0  0.91978  0.07485  0.89568  1.0000
  C   C354      1.0  0.78791  0.11684  0.73635  1.0000
  C   C355      1.0  0.76464  0.12529  0.75447  1.0000
  C   C356      1.0  0.76998  0.12642  0.78380  1.0000
  C   C357      1.0  0.79903  0.12029  0.79528  1.0000
  C   C358      1.0  0.82288  0.11308  0.77719  1.0000
  C   C359      1.0  0.81718  0.11085  0.74773  1.0000
  H   H424      1.0  0.74228  0.13065  0.74608  1.0000
  H   H425      1.0  0.75156  0.13240  0.79745  1.0000
  H   H426      1.0  0.84550  0.10845  0.78595  1.0000
  H   H427      1.0  0.83540  0.10447  0.73386  1.0000
  H   H428      1.0  0.92598  0.18306  0.96045  1.0000
  H   H429      1.0  0.79670  0.22624  0.96447  1.0000
  H   H430      1.0  0.95997  0.41806  0.78518  1.0000
  H   H431      1.0  0.92851  0.26624  0.96278  1.0000
  H   H432      1.0  0.83581  0.26430  0.78804  1.0000
  H   H433      1.0  0.97301  0.13372  0.72922  1.0000
  C   C360      1.0  0.94698  0.20163  0.70555  1.0000
  H   H434      1.0  0.73280  0.18850  0.81830  1.0000
  C   C361      1.0  0.74051  0.18370  0.84045  1.0000
  C   C362      1.0  0.94665  0.16483  0.75389  1.0000
  C   C363      1.0  0.93185  0.19289  0.75414  1.0000
  C   C364      1.0  0.93220  0.21142  0.73001  1.0000
  H   H435      1.0  0.82595  0.16886  0.71023  1.0000
  C   C365      1.0  0.72734  0.16130  0.88499  1.0000
  H   H436      1.0  0.92051  0.20047  0.77300  1.0000
  H   H437      1.0  0.92091  0.23312  0.73029  1.0000
  C   C366      1.0  0.66960  0.28909  0.77835  1.0000
  C   C367      1.0  0.66149  0.27416  0.75278  1.0000
  C   C368      1.0  0.66663  0.24288  0.74960  1.0000
  C   C369      1.0  0.67958  0.22663  0.77209  1.0000
  C   C370      1.0  0.68780  0.24175  0.79746  1.0000
  C   C371      1.0  0.68274  0.27285  0.80067  1.0000
  H   H438      1.0  0.65133  0.28674  0.73545  1.0000
  H   H439      1.0  0.66040  0.23141  0.72984  1.0000
  H   H440      1.0  0.69859  0.22968  0.81456  1.0000
  H   H441      1.0  0.68877  0.28419  0.82056  1.0000
  C   C372      1.0  0.77910  0.27606  0.88612  1.0000
  C   C373      1.0  0.79988  0.29840  0.87750  1.0000
  C   C374      1.0  0.82949  0.29032  0.86973  1.0000
  C   C375      1.0  0.83809  0.25979  0.86950  1.0000
  C   C376      1.0  0.81711  0.23739  0.87783  1.0000
  C   C377      1.0  0.78789  0.24559  0.88667  1.0000
  H   H442      1.0  0.79338  0.32203  0.87762  1.0000
  C   C378      1.0  0.90725  0.39388  0.80792  1.0000
  H   H443      1.0  0.82344  0.21385  0.87789  1.0000
  H   H444      1.0  0.77217  0.22837  0.89404  1.0000
  C   C379      1.0  0.81123  0.37639  0.79836  1.0000
  C   C380      1.0  0.82704  0.38247  0.77354  1.0000
  C   C381      1.0  0.84716  0.36093  0.76263  1.0000
  C   C382      1.0  0.85243  0.33396  0.77729  1.0000
  C   C383      1.0  0.83683  0.32822  0.80217  1.0000
  C   C384      1.0  0.81593  0.34913  0.81246  1.0000
  H   H445      1.0  0.82365  0.40375  0.76274  1.0000
  H   H446      1.0  0.85913  0.36563  0.74343  1.0000
  H   H447      1.0  0.84149  0.30786  0.81393  1.0000
  H   H448      1.0  0.80440  0.34472  0.83197  1.0000
  C   C385      1.0  0.64648  0.42170  0.92364  1.0000
  C   C386      1.0  0.62058  0.43902  0.92915  1.0000
  C   C387      1.0  0.60841  0.43991  0.95634  1.0000
  C   C388      1.0  0.62210  0.42345  0.97825  1.0000
  C   C389      1.0  0.64747  0.40532  0.97265  1.0000
  C   C390      1.0  0.65965  0.40439  0.94531  1.0000
  H   H449      1.0  0.93760  0.21262  0.92041  1.0000
  C   C391      1.0  0.92646  0.36888  0.80224  1.0000
  H   H450      1.0  0.89411  0.19107  0.98200  1.0000
  C   C392      1.0  0.82310  0.18144  0.69001  1.0000
  H   H451      1.0  0.78523  0.27780  0.80656  1.0000
  H   H452      1.0  0.68476  0.35510  0.72755  1.0000
  C   C393      1.0  0.92333  0.34307  0.81994  1.0000
  N   N24       1.0  0.72960  0.37616  0.73457  1.0000
  H   H453      1.0  0.69962  0.14460  0.81869  1.0000
  H   H454      1.0  0.92045  0.24865  0.91381  1.0000
  C   C394      1.0  0.87725  0.17813  0.68384  1.0000
  H   H455      1.0  0.83914  0.30757  0.93423  1.0000
  H   H456      1.0  0.84572  0.30783  0.86392  1.0000
  H   H457      1.0  0.83363  0.22846  0.80404  1.0000
  H   H458      1.0  0.94756  0.23185  0.97133  1.0000
  C   C395      1.0  0.69554  0.37756  0.73345  1.0000
  H   H459      1.0  0.82779  0.27707  0.74282  1.0000
  C   C396      1.0  0.72497  0.36220  0.68197  1.0000
  H   H460      1.0  0.96611  0.07207  0.85781  1.0000
  Fe  Fe57      1.0  0.66802  0.13755  0.67098  1.0000
  C   C397      1.0  0.87269  0.23943  0.95010  1.0000
  H   H461      1.0  0.84759  0.12596  0.68162  1.0000
  H   H462      1.0  0.80914  0.30485  0.70211  1.0000
  H   H463      1.0  0.86632  0.36626  0.86258  1.0000
  H   H464      1.0  0.75909  0.05291  0.72879  1.0000
  C   C398      1.0  0.90213  0.34242  0.84162  1.0000
  C   C399      1.0  0.91576  0.22531  0.92157  1.0000
  C   C400      1.0  0.88348  0.36726  0.84641  1.0000
  H   H465      1.0  0.82399  0.20629  0.69497  1.0000
  C   C401      1.0  0.79319  0.29112  0.71399  1.0000
  H   H466      1.0  0.81356  0.36453  0.67603  1.0000
  S   S116      1.0  0.98092  0.00045  0.94812  1.0000
  N   N25       1.0  0.90322  0.22511  0.95048  1.0000
  C   C402      1.0  0.81510  0.26867  0.95008  1.0000
  C   C403      1.0  0.86953  0.27005  0.94138  1.0000
  H   H467      1.0  0.68624  0.38346  0.75459  1.0000
  C   C404      1.0  0.74310  0.36958  0.70674  1.0000
  H   H468      1.0  0.68729  0.39509  0.71843  1.0000
  C   C405      1.0  0.96152  0.17356  0.70540  1.0000
  C   C406      1.0  0.90264  0.19304  0.96009  1.0000
  H   H469      1.0  0.79301  0.27970  0.94950  1.0000
  H   H470      1.0  0.79956  0.17576  0.68173  1.0000
  H   H471      1.0  0.75316  0.25197  0.80216  1.0000
  H   H472      1.0  0.90806  0.41417  0.79528  1.0000
  H   H473      1.0  0.73082  0.41194  0.76652  1.0000
  C   C407      1.0  0.96838  0.09167  0.95154  1.0000
  C   C408      1.0  0.67605  0.02419  0.70622  1.0000
  H   H474      1.0  0.68507  0.05002  0.66798  1.0000
  H   H475      1.0  0.76645  0.40593  0.75074  1.0000
  H   H476      1.0  0.79285  0.19667  0.75643  1.0000
  N   N26       1.0  0.84681  0.17316  0.66948  1.0000
  C   C409      1.0  0.74202  0.27109  0.71996  1.0000
  H   H477      1.0  0.73685  0.06641  0.68209  1.0000
  H   H478      1.0  0.89633  0.17242  0.66958  1.0000
  C   C410      1.0  0.78392  0.20708  0.77612  1.0000
  H   H479      1.0  0.71816  0.26918  0.71284  1.0000
  H   H480      1.0  0.68647  0.12923  0.85177  1.0000
  C   C411      1.0  0.62501  0.04231  0.69649  1.0000
  C   C412      1.0  0.72368  0.05233  0.69622  1.0000
  H   H481      1.0  0.89940  0.32200  0.85405  1.0000
  H   H482      1.0  0.72838  0.35650  0.77583  1.0000
  S   S117      1.0  0.97130  0.37266  0.67460  1.0000
  C   C413      1.0  0.96155  0.15535  0.72953  1.0000
  H   H483      1.0  0.83969  0.23050  0.76657  1.0000
  C   C414      1.0  0.73827  0.35208  0.75478  1.0000
  H   H484      1.0  0.91433  0.35815  0.74710  1.0000
  C   C415      1.0  0.84373  0.14021  0.66252  1.0000
  C   C416      1.0  0.70609  0.14064  0.84138  1.0000
  H   H485      1.0  0.62696  0.25397  0.86041  1.0000
  C   C417      1.0  0.75219  0.25529  0.74383  1.0000
  H   H486      1.0  0.93775  0.02277  0.90651  1.0000
  C   C418      1.0  0.80368  0.27487  0.73750  1.0000
  C   C419      1.0  0.96754  0.03735  0.94150  1.0000
  C   C420      1.0  0.97827  0.07927  0.83853  1.0000
  C   C421      1.0  0.78879  0.36427  0.67780  1.0000
  C   C422      1.0  0.92457  0.24252  0.96990  1.0000
  C   C423      1.0  0.63890  0.20970  0.84459  1.0000
  H   H487      1.0  0.79275  0.19350  0.79429  1.0000
  H   H488      1.0  0.61774  0.20676  0.83215  1.0000
  H   H489      1.0  0.76352  0.35064  0.75828  1.0000
  C   C424      1.0  0.97105  0.39549  0.78460  1.0000
  H   H490      1.0  0.65635  0.16808  0.82983  1.0000
  H   H491      1.0  0.98333  0.39248  0.80535  1.0000
  C   C425      1.0  0.64407  0.23636  0.86041  1.0000
  C   C426      1.0  0.66142  0.18743  0.84359  1.0000
  H   H492      1.0  0.70859  0.15246  0.89833  1.0000
  H   H493      1.0  0.60994  0.45177  0.91223  1.0000
  H   H494      1.0  0.72941  0.32935  0.74740  1.0000
  H   H495      1.0  0.75468  0.30074  0.68625  1.0000
  H   H496      1.0  0.67606  0.26197  0.88722  1.0000
  C   C427      1.0  0.67170  0.24083  0.87550  1.0000
  H   H497      1.0  0.98161  0.34327  0.75691  1.0000
  H   H498      1.0  0.70024  0.36048  0.68213  1.0000
  H   H499      1.0  0.79074  0.37411  0.72203  1.0000
  C   C428      1.0  0.74138  0.40591  0.74596  1.0000
  H   H500      1.0  0.97286  0.16587  0.68656  1.0000
  C   C429      1.0  0.82702  0.24073  0.78438  1.0000
  H   H501      1.0  0.88017  0.16380  0.70302  1.0000
  C   C430      1.0  0.88598  0.39291  0.82956  1.0000
  H   H502      1.0  0.74867  0.20557  0.85027  1.0000
  H   H503      1.0  0.73664  0.42455  0.73082  1.0000
  C   C431      1.0  0.69433  0.21873  0.87472  1.0000
  C   C432      1.0  0.68998  0.19132  0.85869  1.0000
  H   H504      1.0  0.93615  0.32256  0.81689  1.0000
  N   N27       1.0  0.94851  0.37034  0.77891  1.0000
  C   C433      1.0  0.69401  0.04254  0.68822  1.0000
  H   H505      1.0  0.58850  0.45344  0.96038  1.0000
  H   H506      1.0  0.96211  0.09371  0.82616  1.0000
  C   C434      1.0  0.81724  0.23847  0.95837  1.0000
  H   H507      1.0  0.73858  0.18091  0.89642  1.0000
  N   N28       1.0  0.79330  0.23969  0.77886  1.0000
  H   H508      1.0  0.84540  0.20040  0.96476  1.0000
  H   H509      1.0  0.71571  0.22402  0.88595  1.0000
  H   H510      1.0  0.88891  0.28303  0.93394  1.0000
  N   N29       1.0  0.71532  0.16946  0.85637  1.0000
  H   H511      1.0  0.87067  0.41177  0.83280  1.0000
  H   H512      1.0  0.72526  0.12418  0.84109  1.0000
  Fe  Fe58      1.0  0.93381  0.33683  0.67701  1.0000
  H   H513      1.0  0.92023  0.39832  0.75145  1.0000
  H   H514      1.0  0.94778  0.37639  0.73342  1.0000
  C   C435      1.0  0.76248  0.28904  0.70512  1.0000
  H   H515      1.0  0.62393  0.05356  0.71771  1.0000
  H   H516      1.0  0.95015  0.32208  0.77066  1.0000
  S   S118      1.0  0.66376  0.18660  0.68359  1.0000
  C   C436      1.0  0.97855  0.06228  0.95768  1.0000
  C   C437      1.0  0.96595  0.34189  0.77516  1.0000
  H   H517      1.0  0.88053  0.20212  0.69125  1.0000
  C   C438      1.0  0.84552  0.22389  0.95839  1.0000
  H   H518      1.0  0.62681  0.00313  0.73837  1.0000
  H   H519      1.0  0.63434  0.05967  0.68210  1.0000
  H   H520      1.0  0.97713  0.11085  0.96411  1.0000
  N   N30       1.0  0.64430  0.01491  0.69745  1.0000
  H   H521      1.0  0.98228  0.05844  0.82558  1.0000
  H   H522      1.0  0.81809  0.26107  0.66352  1.0000
  Fe  Fe59      1.0  0.70907  0.19243  0.66276  1.0000
  H   H523      1.0  0.77092  0.22870  0.66520  1.0000
  H   H524      1.0  0.65810  0.39248  0.98955  1.0000
  H   H525      1.0  0.60114  0.03694  0.68873  1.0000
  C   C439      1.0  0.71923  0.02693  0.74089  1.0000
  H   H526      1.0  0.98645  0.13931  0.85220  1.0000
  C   C440      1.0  0.68956  0.01671  0.73299  1.0000
  S   S119      1.0  0.52509  0.45316  0.99362  1.0000
  C   C441      1.0  0.64390  0.00041  0.66880  1.0000
  H   H527      1.0  0.67766  0.00325  0.74831  1.0000
  H   H528      1.0  0.72912  0.02128  0.76146  1.0000
  C   C442      1.0  0.62985  0.99294  0.71693  1.0000
  S   S120      1.0  0.75096  0.83197  0.25918  1.0000
  H   H529      1.0  0.62833  0.75974  0.24242  1.0000
  C   C443      1.0  0.83066  0.65787  0.12272  1.0000
  Fe  Fe60      1.0  0.70158  0.63733  0.14065  1.0000
  S   S121      1.0  0.74199  0.66820  0.13301  1.0000
  S   S122      1.0  0.69524  0.59347  0.11537  1.0000
  Fe  Fe61      1.0  0.68029  0.67602  0.18979  1.0000
  S   S123      1.0  0.71838  0.71037  0.18634  1.0000
  S   S124      1.0  0.64297  0.67717  0.22159  1.0000
  Fe  Fe62      1.0  0.70943  0.70598  0.13964  1.0000
  S   S125      1.0  0.71082  0.74660  0.11176  1.0000
  Fe  Fe63      1.0  0.74786  0.66982  0.18015  1.0000
  S   S126      1.0  0.79455  0.67442  0.20027  1.0000
  S   S127      1.0  0.66809  0.67540  0.14327  1.0000
  S   S128      1.0  0.71066  0.63545  0.18778  1.0000
  Fe  Fe64      1.0  0.90186  0.82285  0.19652  1.0000
  S   S129      1.0  0.94560  0.79703  0.19283  1.0000
  S   S130      1.0  0.89187  0.84916  0.23617  1.0000
  Fe  Fe65      1.0  0.87709  0.80239  0.13875  1.0000
  S   S131      1.0  0.91822  0.77442  0.13019  1.0000
  S   S132      1.0  0.84180  0.80919  0.10393  1.0000
  Fe  Fe66      1.0  0.91476  0.75956  0.17535  1.0000
  C   C444      1.0  0.75226  0.68501  0.27606  1.0000
  Fe  Fe67      1.0  0.94529  0.81443  0.14823  1.0000
  H   H530      1.0  0.93215  0.83608  0.07845  1.0000
  S   S133      1.0  0.87087  0.78403  0.18228  1.0000
  S   S134      1.0  0.90421  0.84363  0.15352  1.0000
  N   N31       1.0  0.62556  0.57827  0.18573  1.0000
  C   C445      1.0  0.64010  0.70217  0.30392  1.0000
  C   C446      1.0  0.69051  0.58624  0.25644  1.0000
  Fe  Fe68      1.0  0.54993  0.51801  0.04547  1.0000
  S   S135      1.0  0.55991  0.55879  0.07389  1.0000
  H   H531      1.0  0.93751  0.92209  0.06487  1.0000
  H   H532      1.0  0.80826  0.66570  0.08116  1.0000
  H   H533      1.0  0.63813  0.74036  0.19433  1.0000
  H   H534      1.0  0.77331  0.61164  0.20599  1.0000
  C   C447      1.0  0.64796  0.58028  0.20992  1.0000
  C   C448      1.0  0.76282  0.62361  0.29251  1.0000
  C   C449      1.0  0.93589  0.94291  0.02458  1.0000
  H   H535      1.0  0.95651  0.88252  0.14563  1.0000
  C   C450      1.0  0.74776  0.76285  0.10982  1.0000
  C   C451      1.0  0.75304  0.78527  0.08973  1.0000
  C   C452      1.0  0.78203  0.79923  0.08815  1.0000
  C   C453      1.0  0.80572  0.79145  0.10714  1.0000
  C   C454      1.0  0.80036  0.76949  0.12773  1.0000
  C   C455      1.0  0.77153  0.75470  0.12872  1.0000
  H   H536      1.0  0.73475  0.79164  0.07512  1.0000
  H   H537      1.0  0.78606  0.81623  0.07222  1.0000
  H   H538      1.0  0.81846  0.76383  0.14270  1.0000
  H   H539      1.0  0.76751  0.73752  0.14446  1.0000
  C   C456      1.0  0.59837  0.56883  0.08203  1.0000
  C   C457      1.0  0.62192  0.54780  0.07976  1.0000
  C   C458      1.0  0.65198  0.55593  0.08897  1.0000
  C   C459      1.0  0.65858  0.58513  0.10020  1.0000
  C   C460      1.0  0.63527  0.60647  0.10107  1.0000
  C   C461      1.0  0.60522  0.59824  0.09235  1.0000
  H   H540      1.0  0.61680  0.52507  0.07167  1.0000
  H   H541      1.0  0.66996  0.53931  0.08807  1.0000
  H   H542      1.0  0.64018  0.62919  0.10897  1.0000
  H   H543      1.0  0.58713  0.61469  0.09380  1.0000
  H   H544      1.0  0.90315  0.65846  0.22126  1.0000
  C   C462      1.0  0.83368  0.64943  0.23827  1.0000
  C   C463      1.0  0.80785  0.64430  0.22061  1.0000
  H   H545      1.0  0.69723  0.86528  0.18864  1.0000
  H   H546      1.0  0.84648  0.63993  0.16348  1.0000
  H   H547      1.0  0.84556  0.67122  0.23848  1.0000
  H   H548      1.0  0.68996  0.83457  0.23127  1.0000
  C   C464      1.0  0.93686  0.69149  0.28020  1.0000
  C   C465      1.0  0.80378  0.59267  0.23781  1.0000
  C   C466      1.0  0.83170  0.63633  0.14491  1.0000
  C   C467      1.0  0.92111  0.66981  0.26319  1.0000
  C   C468      1.0  0.94132  0.72431  0.23937  1.0000
  C   C469      1.0  0.94738  0.71855  0.26818  1.0000
  C   C470      1.0  0.88418  0.84440  0.04285  1.0000
  H   H549      1.0  0.89365  0.83246  0.02421  1.0000
  H   H550      1.0  0.94920  0.74538  0.23031  1.0000
  H   H551      1.0  0.65945  0.61896  0.27318  1.0000
  C   C471      1.0  0.65226  0.69461  0.25448  1.0000
  C   C472      1.0  0.67665  0.71565  0.25780  1.0000
  C   C473      1.0  0.68204  0.73075  0.28396  1.0000
  H   H552      1.0  0.79371  0.74019  0.20987  1.0000
  H   H553      1.0  0.85037  0.69742  0.08025  1.0000
  H   H554      1.0  0.69057  0.72124  0.23998  1.0000
  H   H555      1.0  0.70016  0.74781  0.28614  1.0000
  H   H556      1.0  0.67398  0.76673  0.16414  1.0000
  C   C474      1.0  0.78968  0.84037  0.25273  1.0000
  C   C475      1.0  0.80024  0.83769  0.22507  1.0000
  C   C476      1.0  0.83154  0.84124  0.21982  1.0000
  C   C477      1.0  0.85237  0.84797  0.24214  1.0000
  C   C478      1.0  0.84167  0.85240  0.26956  1.0000
  C   C479      1.0  0.81036  0.84825  0.27493  1.0000
  H   H557      1.0  0.78451  0.83213  0.20771  1.0000
  H   H558      1.0  0.83955  0.83880  0.19846  1.0000
  H   H559      1.0  0.85771  0.85826  0.28675  1.0000
  C   C480      1.0  0.63397  0.68803  0.27757  1.0000
  H   H560      1.0  0.65504  0.80663  0.26057  1.0000
  H   H561      1.0  0.62273  0.61424  0.23362  1.0000
  H   H562      1.0  0.76537  0.57536  0.28407  1.0000
  C   C481      1.0  0.62425  0.60813  0.17160  1.0000
  H   H563      1.0  0.60714  0.60789  0.15364  1.0000
  H   H564      1.0  0.64697  0.61445  0.16300  1.0000
  H   H565      1.0  0.59503  0.54906  0.20845  1.0000
  H   H566      1.0  0.68210  0.54854  0.19389  1.0000
  H   H567      1.0  0.86378  0.63077  0.26993  1.0000
  H   H568      1.0  0.94535  0.84301  0.04315  1.0000
  H   H569      1.0  0.88954  0.66401  0.14324  1.0000
  C   C482      1.0  0.84421  0.70740  0.10106  1.0000
  C   C483      1.0  0.87689  0.73928  0.31498  1.0000
  Fe  Fe69      1.0  0.74114  0.82335  0.30486  1.0000
  C   C484      1.0  0.98423  0.63059  0.24624  1.0000
  H   H570      1.0  0.85744  0.72441  0.15306  1.0000
  C   C485      1.0  0.92882  0.91959  0.04330  1.0000
  C   C486      1.0  0.92518  0.70277  0.22239  1.0000
  C   C487      1.0  0.84420  0.70258  0.15144  1.0000
  H   H571      1.0  0.85810  0.72886  0.10384  1.0000
  S   S136      1.0  0.91627  0.70988  0.18654  1.0000
  H   H572      1.0  0.89813  0.69831  0.12533  1.0000
  H   H573      1.0  0.60048  0.75751  0.29184  1.0000
  C   C488      1.0  0.79223  0.62443  0.09837  1.0000
  C   C489      1.0  0.80822  0.74554  0.22834  1.0000
  H   H574      1.0  0.65568  0.56043  0.15425  1.0000
  C   C490      1.0  0.63327  0.55510  0.16397  1.0000
  H   H575      1.0  0.95702  0.93591  0.12947  1.0000
  S   S137      1.0  0.75090  0.77785  0.32338  1.0000
  H   H576      1.0  0.85137  0.68964  0.17050  1.0000
  S   S138      1.0  0.91822  0.59839  0.31787  1.0000
  N   N32       1.0  0.76261  0.68000  0.30591  1.0000
  H   H577      1.0  0.94938  0.96255  0.03207  1.0000
  H   H578      1.0  0.87998  0.82634  0.05873  1.0000
  Fe  Fe70      1.0  0.86686  0.59706  0.31673  1.0000
  C   C491      1.0  0.84672  0.76028  0.27625  1.0000
  C   C492      1.0  0.85694  0.74181  0.25368  1.0000
  C   C493      1.0  0.81614  0.77085  0.27386  1.0000
  C   C494      1.0  0.83802  0.73479  0.23009  1.0000
  C   C495      1.0  0.79720  0.76325  0.25033  1.0000
  H   H579      1.0  0.71726  0.67886  0.32300  1.0000
  C   C496      1.0  0.90167  0.89205  0.00528  1.0000
  C   C497      1.0  0.85341  0.78736  0.32247  1.0000
  H   H580      1.0  0.71768  0.55403  0.23405  1.0000
  H   H581      1.0  0.80238  0.85086  0.29625  1.0000
  C   C498      1.0  0.64275  0.60010  0.23322  1.0000
  S   S139      1.0  0.50256  0.51513  0.02526  1.0000
  H   H582      1.0  0.87185  0.89490  0.07582  1.0000
  H   H583      1.0  0.88444  0.86223  0.09496  1.0000
  C   C499      1.0  0.59615  0.83949  0.32272  1.0000
  H   H584      1.0  0.87983  0.73291  0.25394  1.0000
  H   H585      1.0  0.80645  0.78560  0.28956  1.0000
  C   C500      1.0  0.59456  0.57036  0.19595  1.0000
  C   C501      1.0  0.82871  0.59855  0.25662  1.0000
  H   H586      1.0  0.57765  0.56686  0.17798  1.0000
  N   N33       1.0  0.70761  0.81939  0.17592  1.0000
  C   C502      1.0  0.73508  0.80010  0.17564  1.0000
  C   C503      1.0  0.69555  0.82278  0.14637  1.0000
  C   C504      1.0  0.71729  0.85028  0.18623  1.0000
  C   C505      1.0  0.68449  0.80448  0.19379  1.0000
  C   C506      1.0  0.66935  0.77709  0.18446  1.0000
  C   C507      1.0  0.67854  0.81479  0.22178  1.0000
  C   C508      1.0  0.64891  0.76159  0.20170  1.0000
  C   C509      1.0  0.65833  0.79888  0.23897  1.0000
  C   C510      1.0  0.64335  0.77251  0.22885  1.0000
  H   H587      1.0  0.72955  0.77709  0.16672  1.0000
  H   H588      1.0  0.75359  0.81014  0.16267  1.0000
  H   H589      1.0  0.74453  0.79674  0.19755  1.0000
  H   H590      1.0  0.69117  0.80067  0.13533  1.0000
  H   H591      1.0  0.71225  0.83493  0.13289  1.0000
  H   H592      1.0  0.67370  0.83546  0.14592  1.0000
  H   H593      1.0  0.73010  0.84958  0.20685  1.0000
  H   H594      1.0  0.73339  0.86153  0.17155  1.0000
  H   H595      1.0  0.81972  0.71427  0.10002  1.0000
  H   H596      1.0  0.61776  0.62685  0.18619  1.0000
  C   C511      1.0  0.79301  0.61579  0.22000  1.0000
  H   H597      1.0  0.86139  0.85388  0.03701  1.0000
  H   H598      1.0  0.81350  0.59466  0.16177  1.0000
  C   C512      1.0  0.66396  0.72370  0.30714  1.0000
  S   S140      1.0  0.69248  0.82369  0.31875  1.0000
  C   C513      1.0  0.69653  0.56667  0.23389  1.0000
  H   H599      1.0  0.95977  0.73534  0.28123  1.0000
  H   H600      1.0  0.58514  0.58863  0.20949  1.0000
  C   C514      1.0  0.81296  0.61017  0.14408  1.0000
  C   C515      1.0  0.79309  0.60434  0.12096  1.0000
  H   H601      1.0  0.97614  0.63482  0.22473  1.0000
  H   H602      1.0  0.77407  0.77185  0.24881  1.0000
  H   H603      1.0  0.75624  0.62764  0.27068  1.0000
  H   H604      1.0  0.81940  0.70758  0.15330  1.0000
  C   C516      1.0  0.59884  0.78041  0.30047  1.0000
  C   C517      1.0  0.81067  0.65085  0.09908  1.0000
  C   C518      1.0  0.67569  0.56366  0.21086  1.0000
  H   H605      1.0  0.77797  0.58446  0.12066  1.0000
  N   N34       1.0  0.84999  0.68594  0.12463  1.0000
  C   C519      1.0  0.66377  0.60307  0.25602  1.0000
  C   C520      1.0  0.88280  0.67771  0.12446  1.0000
  H   H606      1.0  0.61505  0.67186  0.27510  1.0000
  H   H607      1.0  0.77636  0.61995  0.08063  1.0000
  H   H608      1.0  0.88807  0.66428  0.10512  1.0000
  H   H609      1.0  0.84667  0.72096  0.21301  1.0000
  C   C521      1.0  0.84396  0.62664  0.25627  1.0000
  H   H610      1.0  0.84704  0.80984  0.31379  1.0000
  H   H611      1.0  0.79225  0.57069  0.23771  1.0000
  H   H612      1.0  0.91363  0.64862  0.27226  1.0000
  H   H613      1.0  0.88882  0.72363  0.30056  1.0000
  C   C522      1.0  0.91550  0.67530  0.23428  1.0000
  S   S141      1.0  0.83955  0.57211  0.28224  1.0000
  C   C523      1.0  0.97145  0.88928  0.12888  1.0000
  H   H614      1.0  0.63416  0.53189  0.17301  1.0000
  H   H615      1.0  0.88902  0.80496  0.27942  1.0000
  H   H616      1.0  0.72988  0.67328  0.27104  1.0000
  C   C524      1.0  0.93497  0.85382  0.06196  1.0000
  H   H617      1.0  0.61609  0.55426  0.14599  1.0000
  C   C525      1.0  0.79180  0.69740  0.31076  1.0000
  H   H618      1.0  0.90892  0.89470  0.09376  1.0000
  C   C526      1.0  0.89216  0.88074  0.08074  1.0000
  C   C527      1.0  0.91151  0.89339  0.03431  1.0000
  H   H619      1.0  0.91116  0.79078  0.30889  1.0000
  H   H620      1.0  0.62606  0.69667  0.32178  1.0000
  H   H621      1.0  0.74889  0.70959  0.27171  1.0000
  C   C528      1.0  0.89531  0.78394  0.29095  1.0000
  N   N35       1.0  0.90557  0.86846  0.05441  1.0000
  H   H622      1.0  0.96706  0.58455  0.24623  1.0000
  N   N36       1.0  0.86753  0.76772  0.30080  1.0000
  H   H623      1.0  0.78922  0.72182  0.30550  1.0000
  H   H624      1.0  0.64051  0.57265  0.02397  1.0000
  H   H625      1.0  0.58741  0.85294  0.27951  1.0000
  C   C529      1.0  0.76734  0.64762  0.31273  1.0000
  H   H626      1.0  0.70667  0.58860  0.27418  1.0000
  H   H627      1.0  0.76956  0.67711  0.26077  1.0000
  H   H628      1.0  0.58897  0.80054  0.25999  1.0000
  S   S142      1.0  0.94250  0.68555  0.31671  1.0000
  C   C530      1.0  0.59159  0.83408  0.29360  1.0000
  C   C531      1.0  0.76777  0.59333  0.29994  1.0000
  H   H629      1.0  0.81024  0.68807  0.29741  1.0000
  C   C532      1.0  0.59261  0.80459  0.28255  1.0000
  H   H630      1.0  0.95216  0.87056  0.07067  1.0000
  H   H631      1.0  0.90877  0.76992  0.27622  1.0000
  H   H632      1.0  0.59376  0.60341  0.02511  1.0000
  C   C533      1.0  0.97195  0.91956  0.11984  1.0000
  S   S143      1.0  0.57443  0.50945  0.00502  1.0000
  C   C534      1.0  0.97908  0.60234  0.25845  1.0000
  C   C535      1.0  0.62535  0.57323  0.00536  1.0000
  H   H633      1.0  0.73319  0.71620  0.31912  1.0000
  H   H634      1.0  0.85669  0.72666  0.32310  1.0000
  S   S144      1.0  0.98720  0.82908  0.12457  1.0000
  H   H635      1.0  0.98333  0.57489  0.29471  1.0000
  S   S145      1.0  0.86208  0.64677  0.32728  1.0000
  C   C536      1.0  0.59905  0.59071  0.00605  1.0000
  C   C537      1.0  0.73901  0.69254  0.32466  1.0000
  C   C538      1.0  0.77765  0.58612  0.32730  1.0000
  H   H636      1.0  0.88847  0.87308  0.99639  1.0000
  C   C539      1.0  0.92616  0.94084  0.99628  1.0000
  C   C540      1.0  0.58396  0.80008  0.38799  1.0000
  S   S146      1.0  0.48829  0.94258  0.54037  1.0000
  Fe  Fe71      1.0  0.71163  0.84694  0.35821  1.0000
  S   S147      1.0  0.71905  0.80343  0.38189  1.0000
  S   S148      1.0  0.68691  0.88945  0.37110  1.0000
  Fe  Fe72      1.0  0.76552  0.80413  0.36249  1.0000
  S   S149      1.0  0.81022  0.79080  0.38326  1.0000
  H   H637      1.0  0.57132  0.82594  0.63297  1.0000
  H   H638      1.0  0.90347  0.51094  0.45607  1.0000
  H   H639      1.0  0.58877  0.77550  0.38514  1.0000
  H   H640      1.0  0.85697  0.53227  0.44754  1.0000
  C   C541      1.0  0.60093  0.85170  0.38232  1.0000
  Fe  Fe73      1.0  0.86296  0.63193  0.37239  1.0000
  S   S150      1.0  0.86314  0.58220  0.36166  1.0000
  S   S151      1.0  0.82823  0.64988  0.40215  1.0000
  Fe  Fe74      1.0  0.91438  0.58741  0.36396  1.0000
  S   S152      1.0  0.94020  0.54773  0.38194  1.0000
  C   C542      1.0  0.63751  0.81170  0.38151  1.0000
  C   C543      1.0  0.93018  0.57525  0.49112  1.0000
  S   S153      1.0  0.91403  0.63619  0.37871  1.0000
  H   H641      1.0  0.97117  0.63559  0.34832  1.0000
  Fe  Fe75      1.0  0.53556  0.95932  0.52984  1.0000
  S   S154      1.0  0.57933  0.93716  0.54319  1.0000
  H   H642      1.0  0.87328  0.60200  0.49135  1.0000
  H   H643      1.0  0.68459  0.84917  0.41948  1.0000
  Fe  Fe76      1.0  0.58992  0.93788  0.49696  1.0000
  S   S155      1.0  0.60845  0.89319  0.48147  1.0000
  C   C544      1.0  0.51340  0.84400  0.63254  1.0000
  S   S156      1.0  0.54453  0.95704  0.48333  1.0000
  H   H644      1.0  0.50879  0.83407  0.65365  1.0000
  H   H645      1.0  0.90791  0.61647  0.45312  1.0000
  C   C545      1.0  0.91658  0.52608  0.47012  1.0000
  H   H646      1.0  0.85375  0.56571  0.49036  1.0000
  C   C546      1.0  0.53363  0.83649  0.58567  1.0000
  C   C547      1.0  0.56360  0.83731  0.57440  1.0000
  C   C548      1.0  0.86282  0.58426  0.47691  1.0000
  C   C549      1.0  0.56933  0.85167  0.54870  1.0000
  H   H647      1.0  0.55993  0.80394  0.38048  1.0000
  N   N37       1.0  0.88511  0.57238  0.45654  1.0000
  H   H648      1.0  0.52542  0.95153  0.59167  1.0000
  C   C550      1.0  0.97764  0.58009  0.42025  1.0000
  H   H649      1.0  0.78274  0.56277  0.33249  1.0000
  C   C551      1.0  0.94026  0.51293  0.48612  1.0000
  H   H650      1.0  0.97227  0.50306  0.41361  1.0000
  H   H651      1.0  0.49111  0.85269  0.62457  1.0000
  H   H652      1.0  0.55033  0.87684  0.51380  1.0000
  C   C552      1.0  0.81450  0.75142  0.38763  1.0000
  C   C553      1.0  0.78943  0.73262  0.39394  1.0000
  C   C554      1.0  0.79381  0.70153  0.39903  1.0000
  C   C555      1.0  0.82293  0.68891  0.39639  1.0000
  C   C556      1.0  0.84768  0.70748  0.38885  1.0000
  C   C557      1.0  0.84362  0.73880  0.38525  1.0000
  H   H653      1.0  0.76695  0.74231  0.39603  1.0000
  H   H654      1.0  0.77461  0.68727  0.40494  1.0000
  H   H655      1.0  0.87022  0.69792  0.38684  1.0000
  H   H656      1.0  0.86313  0.75331  0.38078  1.0000
  C   C558      1.0  0.66851  0.89190  0.40372  1.0000
  C   C559      1.0  0.65013  0.91707  0.40918  1.0000
  C   C560      1.0  0.63252  0.91826  0.43364  1.0000
  C   C561      1.0  0.63298  0.89406  0.45255  1.0000
  C   C562      1.0  0.65188  0.86920  0.44743  1.0000
  C   C563      1.0  0.66994  0.86830  0.42324  1.0000
  H   H657      1.0  0.64908  0.93545  0.39417  1.0000
  H   H658      1.0  0.61799  0.93749  0.43747  1.0000
  H   H659      1.0  0.65250  0.85058  0.46220  1.0000
  H   H660      1.0  0.52897  0.86416  0.63592  1.0000
  H   H661      1.0  0.58308  0.82728  0.58505  1.0000
  H   H662      1.0  0.84294  0.59503  0.46580  1.0000
  H   H663      1.0  0.59235  0.85257  0.54046  1.0000
  C   C564      1.0  0.91070  0.55778  0.47227  1.0000
  H   H664      1.0  0.74660  0.69341  0.34735  1.0000
  H   H665      1.0  0.84961  0.56328  0.42445  1.0000
  H   H666      1.0  0.49787  0.87644  0.53241  1.0000
  C   C565      1.0  0.86820  0.55143  0.43639  1.0000
  H   H667      1.0  0.65459  0.82693  0.37142  1.0000
  N   N38       1.0  0.52649  0.82152  0.61274  1.0000
  H   H668      1.0  0.80013  0.69684  0.33325  1.0000
  H   H669      1.0  0.58520  0.80456  0.41131  1.0000
  H   H670      1.0  0.91422  0.59012  0.42465  1.0000
  Fe  Fe77      1.0  0.59958  0.98439  0.54481  1.0000
  C   C566      1.0  0.95409  0.56191  0.50662  1.0000
  H   H671      1.0  0.96931  0.57575  0.52027  1.0000
  C   C567      1.0  0.50363  0.79655  0.60730  1.0000
  C   C568      1.0  0.97983  0.52517  0.42169  1.0000
  H   H672      1.0  0.78994  0.60360  0.36890  1.0000
  H   H673      1.0  0.87823  0.60919  0.42730  1.0000
  C   C569      1.0  0.50514  0.93834  0.59666  1.0000
  S   S157      1.0  0.67073  0.74102  0.34049  1.0000
  H   H674      1.0  0.51240  0.77937  0.59217  1.0000
  H   H675      1.0  0.64131  0.81380  0.40488  1.0000
  C   C570      1.0  0.89695  0.59814  0.43978  1.0000
  C   C571      1.0  0.51010  0.85088  0.56963  1.0000
  H   H676      1.0  0.98081  0.57998  0.34318  1.0000
  H   H677      1.0  0.64310  0.78793  0.37557  1.0000
  H   H678      1.0  0.88379  0.54204  0.42019  1.0000
  H   H679      1.0  0.56397  0.79014  0.61416  1.0000
  N   N39       1.0  0.60585  0.81984  0.37277  1.0000
  H   H680      1.0  0.60385  0.85441  0.40577  1.0000
  S   S158      1.0  0.75977  0.84990  0.34246  1.0000
  C   C572      1.0  0.51612  0.86509  0.54399  1.0000
  H   H681      1.0  0.54715  0.79715  0.64762  1.0000
  C   C573      1.0  0.55357  0.80817  0.62738  1.0000
  C   C574      1.0  0.96764  0.55157  0.40985  1.0000
  C   C575      1.0  0.95895  0.53079  0.50429  1.0000
  H   H682      1.0  0.49778  0.78455  0.62721  1.0000
  H   H683      1.0  0.57741  0.85936  0.37661  1.0000
  Fe  Fe78      1.0  0.70394  0.78057  0.34085  1.0000
  C   C576      1.0  0.50025  0.92951  0.62468  1.0000
  H   H684      1.0  0.61798  0.86772  0.37317  1.0000
  H   H685      1.0  0.86921  0.79212  0.34101  1.0000
  C   C577      1.0  0.60165  0.81520  0.34174  1.0000
  C   C578      1.0  0.78195  0.60909  0.34763  1.0000
  H   H686      1.0  0.96861  0.60058  0.41105  1.0000
  H   H687      1.0  0.92721  0.59941  0.49397  1.0000
  H   H688      1.0  0.51689  0.93580  0.64126  1.0000
  C   C579      1.0  0.54564  0.86543  0.53352  1.0000
  C   C580      1.0  0.77677  0.63933  0.34055  1.0000
  H   H689      1.0  0.78069  0.65630  0.35703  1.0000
  H   H690      1.0  0.60860  0.76609  0.34252  1.0000
  S   S159      1.0  0.61355  0.98365  0.49944  1.0000
  Fe  Fe79      1.0  0.91335  0.64686  0.33223  1.0000
  H   H691      1.0  0.97761  0.52059  0.51624  1.0000
  H   H692      1.0  0.83253  0.77633  0.33092  1.0000
  H   H693      1.0  0.89310  0.74390  0.33326  1.0000
  C   C581      1.0  0.60334  0.78556  0.32959  1.0000
  H   H694      1.0  0.59547  0.86293  0.32977  1.0000
  H   H695      1.0  0.48759  0.54902  0.89359  1.0000
  C   C582      1.0  0.63177  0.55594  0.98118  1.0000
  H   H696      1.0  0.55892  0.60521  0.98293  1.0000
  C   C583      1.0  0.48918  0.68542  0.73629  1.0000
  C   C584      1.0  0.62504  0.55780  0.90768  1.0000
  H   H697      1.0  0.54675  0.73921  0.75695  1.0000
  C   C585      1.0  0.61160  0.55549  0.95690  1.0000
  H   H698      1.0  0.52220  0.71816  0.79925  1.0000
  H   H699      1.0  0.60643  0.98570  0.70913  1.0000
  H   H700      1.0  0.64366  0.97197  0.71896  1.0000
  H   H701      1.0  0.57016  0.53319  0.91517  1.0000
  C   C586      1.0  0.52990  0.75239  0.76798  1.0000
  H   H702      1.0  0.53101  0.78911  0.73847  1.0000
  C   C587      1.0  0.57935  0.59152  0.98234  1.0000
  H   H703      1.0  0.49203  0.81824  0.76151  1.0000
  S   S160      1.0  0.51355  0.51856  0.94168  1.0000
  H   H704      1.0  0.58122  0.50499  0.94032  1.0000
  C   C588      1.0  0.50052  0.57630  0.96066  1.0000
  H   H705      1.0  0.50961  0.70049  0.69777  1.0000
  C   C589      1.0  0.90900  0.91551  0.98667  1.0000
  C   C590      1.0  0.58552  0.57437  0.95805  1.0000
  H   H706      1.0  0.66539  0.52743  0.93864  1.0000
  C   C591      1.0  0.51616  0.74062  0.79185  1.0000
  C   C592      1.0  0.48908  0.60574  0.95712  1.0000
  H   H707      1.0  0.56934  0.57574  0.94034  1.0000
  C   C593      1.0  0.52101  0.78052  0.75763  1.0000
  N   N40       1.0  0.61736  0.53710  0.93108  1.0000
  H   H708      1.0  0.60585  0.57332  0.90246  1.0000
  H   H709      1.0  0.64554  0.57227  0.91343  1.0000
  C   C594      1.0  0.49318  0.70552  0.71386  1.0000
  H   H710      1.0  0.50962  0.56945  0.98112  1.0000
  C   C595      1.0  0.64295  0.51546  0.93482  1.0000
  C   C596      1.0  0.48800  0.56483  0.91136  1.0000
  H   H711      1.0  0.93215  0.95884  0.98176  1.0000
  H   H712      1.0  0.63874  0.49976  0.95274  1.0000
  H   H713      1.0  0.62999  0.54488  0.88789  1.0000
  C   C597      1.0  0.49981  0.55573  0.93782  1.0000
  H   H714      1.0  0.50262  0.66498  0.73744  1.0000
  C   C598      1.0  0.49823  0.79697  0.77103  1.0000
  C   C599      1.0  0.58953  0.51891  0.92245  1.0000
  C   C600      1.0  0.49320  0.75675  0.80523  1.0000
  H   H715      1.0  0.66000  0.98107  0.66795  1.0000
  H   H716      1.0  0.48941  0.62152  0.97493  1.0000
  H   H717      1.0  0.65228  0.54258  0.98237  1.0000
  H   H718      1.0  0.59377  0.50314  0.90440  1.0000
  H   H719      1.0  0.90151  0.91404  0.96458  1.0000
  Fe  Fe80      1.0  0.52706  0.50326  0.98568  1.0000
  H   H720      1.0  0.64578  0.50078  0.91563  1.0000
