data_image0
_chemical_formula_structural       CHCFeS2FeS2FeSFeS3C3HCHC2H3CHC6H6C2H2CHCHC3H2CH3CH3CH2NHCNCH2C4HCHCHC3HCHCH2CH3CH2CNCHCHCH2CHFeS2FeSFeSFeS2HCSHC6H4CHSCHC2H2NH2CH10CH6SC2HNC2HCH3C2NC2H3C2H9CHCHCHC3HC2H2C2H3FeS2FeSFeHSHFeS2FeS2FeSFeHS2C2H4NC3H2C6H5CHC2HCHFeNC9HSCH12CH3CSH2C2HC2H2CSHCH5CHNCH2C2H2CSHC6H2FeS2FeS2FeSFeS3HC4H2C6H4C3H3CHCH2CHNC6H13NC2HCH4C2SH5CH3CHC2H2CNHC3HCH3CHC2HFeS2FeS2FeHFeS4H3C3H2C7H5C2HCH3NHC2HNHCHCH2CH3CH4NCH3C3H2C2HCH8C2SC2H2C8H2C3HCFeS2HSFeSFeSHSFeS2FeSHFeSFeS3C2H2C2H2C6H4CH2C3H3CH4CHC3H2C2H3SH3C2FeNC6HCH2CHCHCH2NH2C4H2FeS2FeS2FeSFeS3CH4C2H4C4H3C3H2CH2C3HCH2NH2SH2CHCH7NC9HCHCH2FeS2FeS2H2SHFeSHC2HC6H4FeCHC3H3CSH2NH6C3H2CHC2HCHC4SH3CSCH2C4HC2H2CNH2CH3CHCH2CHFeS2FeCHSFeS2FeSCFeSFeS3CH2C2H3CHCH2C6H4CH4C2SHC2H2NC8H15NC9H7CHFeH3CSC2H2CNHC2SH4CSCFeC3H8C2FeS2FeS2FeSFeS3CHC2HC6H4CHNH4C5H2CH4CHCHC2HC2NHC2H3CHC2H2CH5N2H4C2H2C3H2C2H7C2H3C7HCH2C3FeS2FeS2FeSFeHS2HSC6H4CHC2H3C2H2CHC2H2CH2CH5C3HNHC2HCH4SH2CH3CNCH2CH2C3HCHCHCH2CFeHSFeS2FeS3FeS2FeS2FeSFeCS2CHC2HC2H3C6H5C3H5NC6H2CH10C2FeSCH2C2HCHC2HC2H2C2H3NCHCHCHCH2C2H4CH4C3SH
_chemical_formula_sum              "C480 H576 Fe64 S128 N32"
_cell_length_a       40.4964
_cell_length_b       41.4494
_cell_length_c       41.6026
_cell_angle_alpha    90.5983
_cell_angle_beta     90.4083
_cell_angle_gamma    88.2151

_space_group_name_H-M_alt    "P 1"
_space_group_IT_number       1

loop_
  _space_group_symop_operation_xyz
  'x, y, z'

loop_
  _atom_site_type_symbol
  _atom_site_label
  _atom_site_symmetry_multiplicity
  _atom_site_fract_x
  _atom_site_fract_y
  _atom_site_fract_z
  _atom_site_occupancy
  C   C1        1.0  0.17729  0.08857  0.04173  1.0000
  H   H1        1.0  0.22248  0.00994  0.25601  1.0000
  C   C2        1.0  0.13427  0.01730  0.11961  1.0000
  Fe  Fe1       1.0  0.13231  0.17572  0.24389  1.0000
  S   S1        1.0  0.13774  0.13519  0.20821  1.0000
  S   S2        1.0  0.08473  0.18394  0.27155  1.0000
  Fe  Fe2       1.0  0.20273  0.19779  0.23443  1.0000
  S   S3        1.0  0.21322  0.15904  0.19665  1.0000
  S   S4        1.0  0.24335  0.23339  0.24702  1.0000
  Fe  Fe3       1.0  0.16250  0.17105  0.17709  1.0000
  S   S5        1.0  0.14145  0.16840  0.12634  1.0000
  Fe  Fe4       1.0  0.18755  0.12604  0.23021  1.0000
  S   S6        1.0  0.20939  0.07594  0.23925  1.0000
  S   S7        1.0  0.15373  0.21268  0.21167  1.0000
  S   S8        1.0  0.18047  0.16360  0.26921  1.0000
  C   C3        1.0  0.04854  0.16809  0.21762  1.0000
  C   C4        1.0  0.04777  0.17670  0.25018  1.0000
  C   C5        1.0  0.12949  0.01916  0.23445  1.0000
  H   H2        1.0  0.07168  0.16748  0.20482  1.0000
  C   C6        1.0  0.28423  0.37944  0.32732  1.0000
  H   H3        1.0  0.07139  0.13425  0.31502  1.0000
  C   C7        1.0  0.14991  0.04580  0.23223  1.0000
  C   C8        1.0  0.18338  0.04270  0.24041  1.0000
  H   H4        1.0  0.08551  0.11783  0.25570  1.0000
  H   H5        1.0  0.23328  0.32662  0.23111  1.0000
  H   H6        1.0  0.13972  0.06875  0.22440  1.0000
  C   C9        1.0  0.13182  0.09661  0.00519  1.0000
  H   H7        1.0  0.20363  0.08119  0.04541  1.0000
  C   C10       1.0  0.19499  0.18368  0.03124  1.0000
  C   C11       1.0  0.21329  0.18174  0.06002  1.0000
  C   C12       1.0  0.19731  0.17764  0.08963  1.0000
  C   C13       1.0  0.16294  0.17530  0.09048  1.0000
  C   C14       1.0  0.14475  0.17729  0.06170  1.0000
  C   C15       1.0  0.16063  0.18177  0.03227  1.0000
  H   H8        1.0  0.23989  0.18333  0.05945  1.0000
  H   H9        1.0  0.21153  0.17611  0.11172  1.0000
  H   H10       1.0  0.11819  0.17554  0.06229  1.0000
  H   H11       1.0  0.25883  0.36924  0.26285  1.0000
  H   H12       1.0  0.02706  0.02869  0.20673  1.0000
  H   H13       1.0  0.08046  0.21029  0.02709  1.0000
  C   C16       1.0  0.28027  0.27123  0.28754  1.0000
  C   C17       1.0  0.25346  0.25045  0.28517  1.0000
  H   H14       1.0  0.09633  0.02222  0.29756  1.0000
  H   H15       1.0  0.14563  0.09648  0.13867  1.0000
  C   C18       1.0  0.28812  0.28675  0.31684  1.0000
  H   H16       1.0  0.29467  0.27575  0.26634  1.0000
  C   C19       1.0  0.14990  0.07046  0.13800  1.0000
  H   H17       1.0  0.19166  0.29221  0.25506  1.0000
  C   C20       1.0  0.01824  0.05638  0.29526  1.0000
  C   C21       1.0  0.01923  0.16056  0.20135  1.0000
  C   C22       1.0  0.19655  0.01249  0.24974  1.0000
  H   H18       1.0  0.11921  0.10660  0.30334  1.0000
  H   H19       1.0  0.02009  0.15409  0.17610  1.0000
  C   C23       1.0  0.05333  0.05600  0.29645  1.0000
  H   H20       1.0  0.10354  0.02173  0.22835  1.0000
  H   H21       1.0  0.14621  0.18399  0.01043  1.0000
  H   H22       1.0  0.21444  0.42297  0.30868  1.0000
  C   C24       1.0  0.23200  0.36026  0.30710  1.0000
  H   H23       1.0  0.21427  0.22901  0.31131  1.0000
  H   H24       1.0  0.20169  0.01358  0.16966  1.0000
  H   H25       1.0  0.10843  0.06192  0.10713  1.0000
  C   C25       1.0  0.00602  0.18109  0.04810  1.0000
  H   H26       1.0  0.01656  0.18476  0.29145  1.0000
  H   H27       1.0  0.08010  0.07687  0.24342  1.0000
  N   N1        1.0  0.16527  0.08122  0.00872  1.0000
  H   H28       1.0  0.25241  0.43767  0.32539  1.0000
  C   C26       1.0  0.00074  0.02793  0.29734  1.0000
  N   N2        1.0  0.07145  0.08631  0.29364  1.0000
  C   C27       1.0  0.18143  0.02305  0.15514  1.0000
  H   H29       1.0  0.30859  0.30283  0.31798  1.0000
  H   H30       1.0  0.19197  0.07185  0.16964  1.0000
  C   C28       1.0  0.01737  0.17793  0.26629  1.0000
  C   C29       1.0  0.06974  0.02520  0.29793  1.0000
  C   C30       1.0  0.05457  0.20451  0.02536  1.0000
  C   C31       1.0  0.23498  0.24487  0.31273  1.0000
  H   H31       1.0  0.04474  0.10288  0.25154  1.0000
  C   C32       1.0  0.03946  0.18849  0.05032  1.0000
  H   H32       1.0  0.05375  0.18185  0.07156  1.0000
  C   C33       1.0  0.17608  0.05656  0.15534  1.0000
  H   H33       1.0  0.13207  0.12306  0.01011  1.0000
  C   C34       1.0  0.12903  0.05089  0.12021  1.0000
  C   C35       1.0  0.07034  0.09635  0.25961  1.0000
  C   C36       1.0  0.10669  0.08299  0.30377  1.0000
  H   H34       1.0  0.21867  0.03888  0.01304  1.0000
  C   C37       1.0  0.24045  0.35504  0.27432  1.0000
  H   H35       1.0  0.03185  0.12143  0.30426  1.0000
  C   C38       1.0  0.20223  0.31153  0.26923  1.0000
  H   H36       1.0  0.36962  0.26809  0.33379  1.0000
  H   H37       1.0  0.16244  0.07634  0.06013  1.0000
  C   C39       1.0  0.19587  0.02743  0.00676  1.0000
  H   H38       1.0  0.00394  0.07861  0.29223  1.0000
  H   H39       1.0  0.12139  0.06711  0.28728  1.0000
  H   H40       1.0  0.17580  0.11495  0.04719  1.0000
  C   C40       1.0  0.24148  0.41771  0.31105  1.0000
  H   H41       1.0  0.29569  0.37940  0.30316  1.0000
  H   H42       1.0  0.25237  0.41903  0.28667  1.0000
  C   C41       1.0  0.22583  0.33093  0.25582  1.0000
  N   N3        1.0  0.24803  0.38588  0.32620  1.0000
  C   C42       1.0  0.05603  0.11241  0.31388  1.0000
  H   H43       1.0  0.11403  0.08649  0.02234  1.0000
  C   C43       1.0  0.19329  0.31599  0.30125  1.0000
  H   H44       1.0  0.10907  0.07340  0.32859  1.0000
  C   C44       1.0  0.20799  0.33979  0.32012  1.0000
  H   H45       1.0  0.17563  0.30009  0.31176  1.0000
  H   H46       1.0  0.34582  0.21215  0.32853  1.0000
  C   C45       1.0  0.00124  0.03028  0.21344  1.0000
  H   H47       1.0  0.40131  0.21455  0.33612  1.0000
  Fe  Fe5       1.0  0.35093  0.39898  0.38725  1.0000
  S   S9        1.0  0.38768  0.39104  0.42699  1.0000
  S   S10       1.0  0.34864  0.44472  0.35835  1.0000
  Fe  Fe6       1.0  0.31882  0.33445  0.39639  1.0000
  S   S11       1.0  0.35228  0.32162  0.43830  1.0000
  Fe  Fe7       1.0  0.34486  0.37294  0.45476  1.0000
  S   S12       1.0  0.34329  0.39393  0.50513  1.0000
  Fe  Fe8       1.0  0.39270  0.34057  0.40779  1.0000
  S   S13       1.0  0.30742  0.38447  0.41608  1.0000
  S   S14       1.0  0.34356  0.31234  0.63325  1.0000
  H   H48       1.0  0.40202  0.19328  0.37358  1.0000
  C   C46       1.0  0.33836  0.47942  0.38148  1.0000
  S   S15       1.0  0.44067  0.31156  0.40991  1.0000
  H   H49       1.0  0.33445  0.45388  0.42607  1.0000
  C   C47       1.0  0.34495  0.36973  0.53969  1.0000
  C   C48       1.0  0.33434  0.33793  0.53941  1.0000
  C   C49       1.0  0.33423  0.32032  0.56821  1.0000
  C   C50       1.0  0.34440  0.33454  0.59733  1.0000
  C   C51       1.0  0.35561  0.36607  0.59729  1.0000
  C   C52       1.0  0.35623  0.38340  0.56853  1.0000
  H   H50       1.0  0.32552  0.32719  0.51727  1.0000
  H   H51       1.0  0.32558  0.29588  0.56814  1.0000
  H   H52       1.0  0.36396  0.37705  0.61941  1.0000
  H   H53       1.0  0.36542  0.40758  0.56867  1.0000
  C   C53       1.0  0.47389  0.36175  0.38320  1.0000
  H   H54       1.0  0.44985  0.37242  0.37758  1.0000
  S   S16       1.0  0.27690  0.30158  0.38158  1.0000
  C   C54       1.0  0.47634  0.33210  0.39893  1.0000
  H   H55       1.0  0.34268  0.27972  0.36621  1.0000
  C   C55       1.0  0.26906  0.28180  0.34419  1.0000
  C   C56       1.0  0.35058  0.23786  0.47439  1.0000
  H   H56       1.0  0.40080  0.50091  0.34627  1.0000
  H   H57       1.0  0.35874  0.46232  0.59149  1.0000
  N   N4        1.0  0.44508  0.32960  0.51848  1.0000
  H   H58       1.0  0.20930  0.39388  0.36106  1.0000
  H   H59       1.0  0.29624  0.48528  0.52792  1.0000
  C   C57       1.0  0.28065  0.47473  0.61923  1.0000
  H   H60       1.0  0.42971  0.47288  0.40776  1.0000
  H   H61       1.0  0.22784  0.25640  0.36298  1.0000
  H   H62       1.0  0.34520  0.48086  0.62855  1.0000
  H   H63       1.0  0.41358  0.23097  0.42190  1.0000
  H   H64       1.0  0.27799  0.45162  0.63233  1.0000
  H   H65       1.0  0.40056  0.34975  0.49679  1.0000
  H   H66       1.0  0.47733  0.45702  0.38157  1.0000
  H   H67       1.0  0.43893  0.30888  0.56554  1.0000
  H   H68       1.0  0.33693  0.19150  0.36519  1.0000
  H   H69       1.0  0.25618  0.48194  0.60880  1.0000
  C   C58       1.0  0.49657  0.34143  0.55178  1.0000
  H   H70       1.0  0.27262  0.44803  0.56140  1.0000
  H   H71       1.0  0.45217  0.29771  0.47740  1.0000
  H   H72       1.0  0.34635  0.23939  0.50009  1.0000
  H   H73       1.0  0.40327  0.23248  0.47920  1.0000
  H   H74       1.0  0.38651  0.28082  0.37188  1.0000
  H   H75       1.0  0.33812  0.43939  0.62156  1.0000
  S   S17       1.0  0.36001  0.34989  0.36466  1.0000
  C   C59       1.0  0.32923  0.23869  0.41992  1.0000
  C   C60       1.0  0.33297  0.47714  0.41452  1.0000
  H   H76       1.0  0.30772  0.24198  0.40467  1.0000
  N   N5        1.0  0.30623  0.47163  0.59394  1.0000
  C   C61       1.0  0.29738  0.44411  0.57272  1.0000
  C   C62       1.0  0.33847  0.46326  0.60942  1.0000
  H   H77       1.0  0.29646  0.42105  0.58623  1.0000
  C   C63       1.0  0.36143  0.23394  0.40699  1.0000
  H   H78       1.0  0.31614  0.22908  0.35480  1.0000
  H   H79       1.0  0.31587  0.43996  0.55333  1.0000
  H   H80       1.0  0.24872  0.40787  0.37359  1.0000
  C   C64       1.0  0.38812  0.23259  0.42942  1.0000
  C   C65       1.0  0.38258  0.23402  0.46258  1.0000
  N   N6        1.0  0.36680  0.23330  0.37177  1.0000
  C   C66       1.0  0.39898  0.21761  0.36266  1.0000
  C   C67       1.0  0.42741  0.35447  0.49888  1.0000
  H   H81       1.0  0.42795  0.35154  0.56295  1.0000
  H   H82       1.0  0.42034  0.23245  0.36988  1.0000
  H   H83       1.0  0.48387  0.33963  0.57440  1.0000
  C   C68       1.0  0.42784  0.32798  0.54983  1.0000
  C   C69       1.0  0.30854  0.50259  0.57670  1.0000
  H   H84       1.0  0.40145  0.32193  0.54669  1.0000
  H   H85       1.0  0.42968  0.37898  0.50973  1.0000
  H   H86       1.0  0.43237  0.47059  0.34985  1.0000
  H   H87       1.0  0.05247  0.10422  0.33896  1.0000
  H   H88       1.0  0.29914  0.24438  0.46222  1.0000
  H   H89       1.0  0.29001  0.35556  0.33826  1.0000
  H   H90       1.0  0.43671  0.35524  0.47383  1.0000
  H   H91       1.0  0.41571  0.29110  0.49973  1.0000
  H   H92       1.0  0.28686  0.49288  0.63795  1.0000
  C   C70       1.0  0.44203  0.29782  0.50219  1.0000
  H   H93       1.0  0.20062  0.34107  0.34499  1.0000
  C   C71       1.0  0.32399  0.24043  0.45308  1.0000
  H   H94       1.0  0.24188  0.36555  0.37328  1.0000
  C   C72       1.0  0.36642  0.26693  0.36031  1.0000
  H   H95       1.0  0.32138  0.50301  0.45834  1.0000
  C   C73       1.0  0.34037  0.21569  0.35456  1.0000
  C   C74       1.0  0.23632  0.38832  0.35995  1.0000
  C   C75       1.0  0.24272  0.26053  0.34201  1.0000
  H   H96       1.0  0.48965  0.33736  0.46984  1.0000
  C   C76       1.0  0.42797  0.49719  0.34906  1.0000
  C   C77       1.0  0.48045  0.33733  0.52155  1.0000
  H   H97       1.0  0.45555  0.27848  0.51578  1.0000
  H   H98       1.0  0.29710  0.39805  0.34184  1.0000
  C   C78       1.0  0.49211  0.47829  0.38109  1.0000
  C   C79       1.0  0.42592  0.49954  0.40703  1.0000
  H   H99       1.0  0.39869  0.50414  0.40784  1.0000
  H   H100      1.0  0.26675  0.39908  0.76041  1.0000
  H   H101      1.0  0.12212  0.09383  0.98017  1.0000
  Fe  Fe9       1.0  0.31913  0.34727  0.74852  1.0000
  S   S18       1.0  0.35166  0.38940  0.75939  1.0000
  S   S19       1.0  0.28013  0.33655  0.78673  1.0000
  Fe  Fe10      1.0  0.33931  0.40713  0.70990  1.0000
  S   S20       1.0  0.32375  0.45740  0.69302  1.0000
  Fe  Fe11      1.0  0.39231  0.35999  0.73545  1.0000
  H   H102      1.0  0.29354  0.43500  0.83579  1.0000
  S   S21       1.0  0.30379  0.36750  0.70034  1.0000
  H   H103      1.0  0.18710  0.12324  0.98852  1.0000
  Fe  Fe12      1.0  0.19133  0.18857  0.87679  1.0000
  S   S22       1.0  0.17171  0.22201  0.91543  1.0000
  S   S23       1.0  0.22972  0.20165  0.83923  1.0000
  Fe  Fe13      1.0  0.15582  0.12986  0.90497  1.0000
  S   S24       1.0  0.13481  0.15957  0.94576  1.0000
  S   S25       1.0  0.13489  0.07962  0.90325  1.0000
  Fe  Fe14      1.0  0.12353  0.19681  0.90839  1.0000
  S   S26       1.0  0.07347  0.22255  0.90623  1.0000
  Fe  Fe15      1.0  0.18461  0.18138  0.94911  1.0000
  H   H104      1.0  0.04829  0.22520  0.97845  1.0000
  S   S27       1.0  0.14194  0.16630  0.86698  1.0000
  S   S28       1.0  0.20680  0.14876  0.91108  1.0000
  C   C80       1.0  0.15575  0.04174  0.90738  1.0000
  C   C81       1.0  0.18993  0.03872  0.91220  1.0000
  H   H105      1.0  0.28875  0.43256  0.74599  1.0000
  H   H106      1.0  0.24406  0.43277  0.74452  1.0000
  H   H107      1.0  0.45323  0.35247  0.69145  1.0000
  H   H108      1.0  0.20467  0.06003  0.91296  1.0000
  N   N7        1.0  0.05240  0.09084  0.84343  1.0000
  C   C82       1.0  0.26401  0.49475  0.76196  1.0000
  C   C83       1.0  0.03853  0.19866  0.91090  1.0000
  C   C84       1.0  0.04205  0.16624  0.91951  1.0000
  H   H109      1.0  0.31764  0.43850  0.80007  1.0000
  H   H110      1.0  0.06638  0.15554  0.92333  1.0000
  C   C85       1.0  0.26547  0.29866  0.79977  1.0000
  C   C86       1.0  0.28003  0.26918  0.78992  1.0000
  C   C87       1.0  0.26862  0.23988  0.80212  1.0000
  C   C88       1.0  0.24243  0.23951  0.82420  1.0000
  C   C89       1.0  0.22766  0.26899  0.83388  1.0000
  C   C90       1.0  0.23923  0.29833  0.82185  1.0000
  H   H111      1.0  0.30030  0.26892  0.77310  1.0000
  H   H112      1.0  0.28025  0.21729  0.79438  1.0000
  H   H113      1.0  0.20731  0.26922  0.85059  1.0000
  H   H114      1.0  0.22771  0.32092  0.82968  1.0000
  H   H115      1.0  0.06300  0.10108  0.89303  1.0000
  C   C91       1.0  0.33385  0.49281  0.71456  1.0000
  H   H116      1.0  0.35140  0.46874  0.75728  1.0000
  C   C92       1.0  0.26620  0.42592  0.75919  1.0000
  C   C93       1.0  0.47695  0.35161  0.70353  1.0000
  H   H117      1.0  0.01693  0.12255  0.93006  1.0000
  C   C94       1.0  0.47853  0.35389  0.73706  1.0000
  H   H118      1.0  0.10134  0.10936  0.84939  1.0000
  Fe  Fe16      1.0  0.34788  0.34008  0.68039  1.0000
  N   N8        1.0  0.28741  0.23112  0.92476  1.0000
  C   C95       1.0  0.25409  0.24710  0.92359  1.0000
  C   C96       1.0  0.28326  0.19640  0.91730  1.0000
  C   C97       1.0  0.29999  0.23431  0.95819  1.0000
  C   C98       1.0  0.31115  0.24484  0.90205  1.0000
  C   C99       1.0  0.34398  0.23189  0.90008  1.0000
  C   C100      1.0  0.30275  0.27106  0.88142  1.0000
  C   C101      1.0  0.36677  0.24415  0.87860  1.0000
  C   C102      1.0  0.32580  0.28323  0.86018  1.0000
  C   C103      1.0  0.35765  0.26973  0.85864  1.0000
  H   H119      1.0  0.07551  0.15281  0.82950  1.0000
  S   S29       1.0  0.38243  0.38102  0.68668  1.0000
  C   C104      1.0  0.29450  0.42868  0.80983  1.0000
  H   H120      1.0  0.26474  0.18562  0.93334  1.0000
  H   H121      1.0  0.30649  0.18182  0.92030  1.0000
  H   H122      1.0  0.17901  0.09141  0.96015  1.0000
  H   H123      1.0  0.30431  0.26003  0.96443  1.0000
  H   H124      1.0  0.28211  0.22506  0.97595  1.0000
  H   H125      1.0  0.32356  0.22045  0.96207  1.0000
  H   H126      1.0  0.35217  0.21195  0.91494  1.0000
  H   H127      1.0  0.27839  0.28234  0.88075  1.0000
  H   H128      1.0  0.39158  0.23365  0.87720  1.0000
  H   H129      1.0  0.23707  0.23644  0.94126  1.0000
  H   H130      1.0  0.37517  0.27903  0.84172  1.0000
  H   H131      1.0  0.02577  0.07947  0.88653  1.0000
  C   C105      1.0  0.01403  0.14755  0.92317  1.0000
  H   H132      1.0  0.05258  0.04170  0.82539  1.0000
  H   H133      1.0  0.21330  0.08797  0.98753  1.0000
  H   H134      1.0  0.24241  0.24419  0.89942  1.0000
  C   C106      1.0  0.13746  0.02868  0.99366  1.0000
  S   S30       1.0  0.36087  0.31654  0.72787  1.0000
  H   H135      1.0  0.06538  0.05908  0.88262  1.0000
  H   H136      1.0  0.29684  0.40181  0.80859  1.0000
  C   C107      1.0  0.34637  0.49175  0.74597  1.0000
  C   C108      1.0  0.03748  0.06460  0.82413  1.0000
  H   H137      1.0  0.03517  0.07146  0.79838  1.0000
  C   C109      1.0  0.08763  0.09223  0.83391  1.0000
  C   C110      1.0  0.26519  0.47690  0.79101  1.0000
  H   H138      1.0  0.09011  0.09943  0.80837  1.0000
  H   H139      1.0  0.00382  0.23744  0.89962  1.0000
  C   C111      1.0  0.16590  0.04582  0.00318  1.0000
  S   S31       1.0  0.44236  0.35866  0.76031  1.0000
  H   H140      1.0  0.26302  0.48332  0.73854  1.0000
  C   C112      1.0  0.13703  0.01380  0.90598  1.0000
  H   H141      1.0  0.25498  0.27325  0.92965  1.0000
  H   H142      1.0  0.27469  0.19293  0.89200  1.0000
  H   H143      1.0  0.23345  0.43896  0.83313  1.0000
  H   H144      1.0  0.21233  0.43964  0.79504  1.0000
  H   H145      1.0  0.23410  0.40352  0.80819  1.0000
  C   C113      1.0  0.23495  0.43043  0.80776  1.0000
  H   H146      1.0  0.31874  0.30296  0.84432  1.0000
  N   N9        1.0  0.26518  0.44116  0.79166  1.0000
  C   C114      1.0  0.03360  0.12170  0.83872  1.0000
  H   H147      1.0  0.10101  0.06853  0.83695  1.0000
  H   H148      1.0  0.11060  0.01586  0.90224  1.0000
  C   C115      1.0  0.00669  0.21233  0.90623  1.0000
  C   C116      1.0  0.18714  0.09653  0.98527  1.0000
  H   H149      1.0  0.01255  0.05850  0.83274  1.0000
  H   H150      1.0  0.26741  0.48317  0.84316  1.0000
  C   C117      1.0  0.05146  0.08216  0.87785  1.0000
  S   S32       1.0  0.21549  0.18736  0.99418  1.0000
  H   H151      1.0  0.11383  0.04056  0.98909  1.0000
  C   C118      1.0  0.04909  0.15112  0.83165  1.0000
  C   C119      1.0  0.03062  0.17994  0.82801  1.0000
  C   C120      1.0  0.20513  0.00788  0.91579  1.0000
  C   C121      1.0  0.26694  0.49498  0.82014  1.0000
  C   C122      1.0  0.00280  0.20624  0.99585  1.0000
  C   C123      1.0  0.03634  0.21312  0.99810  1.0000
  H   H152      1.0  0.04305  0.20229  0.82368  1.0000
  H   H153      1.0  0.23154  0.00564  0.91961  1.0000
  Fe  Fe17      1.0  0.17857  0.84697  0.26653  1.0000
  S   S33       1.0  0.12647  0.86551  0.27591  1.0000
  S   S34       1.0  0.21191  0.83114  0.30849  1.0000
  Fe  Fe18      1.0  0.17324  0.86217  0.19486  1.0000
  S   S35       1.0  0.12090  0.88060  0.19825  1.0000
  S   S36       1.0  0.20308  0.86638  0.14946  1.0000
  Fe  Fe19      1.0  0.13772  0.90619  0.24288  1.0000
  S   S37       1.0  0.11593  0.95673  0.24814  1.0000
  Fe  Fe20      1.0  0.11356  0.83871  0.23070  1.0000
  S   S38       1.0  0.06907  0.80760  0.22547  1.0000
  S   S39       1.0  0.19091  0.89067  0.23751  1.0000
  S   S40       1.0  0.16484  0.81726  0.22325  1.0000
  H   H154      1.0  0.32976  0.84092  0.20868  1.0000
  C   C124      1.0  0.14252  0.98920  0.24452  1.0000
  C   C125      1.0  0.13500  0.74700  0.26451  1.0000
  C   C126      1.0  0.03059  0.82521  0.23701  1.0000
  C   C127      1.0  0.02883  0.85209  0.25763  1.0000
  H   H155      1.0  0.00240  0.79061  0.21028  1.0000
  H   H156      1.0  0.05125  0.86295  0.26608  1.0000
  C   C128      1.0  0.14728  0.84834  0.05483  1.0000
  C   C129      1.0  0.13273  0.84165  0.08446  1.0000
  C   C130      1.0  0.14963  0.84727  0.11348  1.0000
  C   C131      1.0  0.18144  0.85936  0.11314  1.0000
  C   C132      1.0  0.19602  0.86633  0.08356  1.0000
  C   C133      1.0  0.17893  0.86096  0.05443  1.0000
  H   H157      1.0  0.10843  0.83161  0.08499  1.0000
  H   H158      1.0  0.13822  0.84161  0.13607  1.0000
  H   H159      1.0  0.22066  0.87564  0.08310  1.0000
  H   H160      1.0  0.19038  0.86607  0.03170  1.0000
  C   C134      1.0  0.23293  0.79403  0.31807  1.0000
  C   C135      1.0  0.23221  0.76692  0.29779  1.0000
  C   C136      1.0  0.24944  0.73815  0.30645  1.0000
  H   H161      1.0  0.21842  0.76799  0.27552  1.0000
  H   H162      1.0  0.24875  0.71733  0.29060  1.0000
  H   H163      1.0  0.11188  0.79223  0.32933  1.0000
  C   C137      1.0  0.20073  0.95920  0.12495  1.0000
  H   H164      1.0  0.07239  0.75095  0.28618  1.0000
  C   C138      1.0  0.05201  0.99685  0.29940  1.0000
  H   H165      1.0  0.10314  0.79881  0.28786  1.0000
  H   H166      1.0  0.08230  0.74045  0.32711  1.0000
  C   C139      1.0  0.03185  0.83725  0.05889  1.0000
  H   H167      1.0  0.14240  0.68706  0.29800  1.0000
  N   N10       1.0  0.28438  0.82867  0.23145  1.0000
  C   C140      1.0  0.30415  0.83411  0.20221  1.0000
  C   C141      1.0  0.25123  0.81799  0.22147  1.0000
  C   C142      1.0  0.27981  0.86029  0.24829  1.0000
  C   C143      1.0  0.30084  0.80345  0.25148  1.0000
  C   C144      1.0  0.30744  0.77205  0.23856  1.0000
  C   C145      1.0  0.31026  0.80886  0.28406  1.0000
  H   H168      1.0  0.30592  0.81238  0.18637  1.0000
  H   H169      1.0  0.29290  0.85371  0.18713  1.0000
  H   H170      1.0  0.25228  0.79550  0.20672  1.0000
  H   H171      1.0  0.23788  0.83650  0.20662  1.0000
  H   H172      1.0  0.23586  0.81336  0.24289  1.0000
  H   H173      1.0  0.26362  0.85834  0.26971  1.0000
  H   H174      1.0  0.30386  0.87012  0.25614  1.0000
  H   H175      1.0  0.26758  0.87874  0.23255  1.0000
  H   H176      1.0  0.30054  0.76593  0.21418  1.0000
  H   H177      1.0  0.30534  0.83149  0.29646  1.0000
  H   H178      1.0  0.05717  0.83782  0.05089  1.0000
  H   H179      1.0  0.20591  0.93262  0.12369  1.0000
  H   H180      1.0  0.20377  0.96892  0.10034  1.0000
  N   N11       1.0  0.16710  0.96688  0.13736  1.0000
  C   C146      1.0  0.12113  0.78683  0.30467  1.0000
  C   C147      1.0  0.14338  0.94852  0.11741  1.0000
  H   H181      1.0  0.16068  0.75515  0.26134  1.0000
  C   C148      1.0  0.16501  0.95479  0.17067  1.0000
  H   H182      1.0  0.14892  0.92200  0.11825  1.0000
  H   H183      1.0  0.04780  0.84141  0.10833  1.0000
  H   H184      1.0  0.14445  0.95531  0.09163  1.0000
  H   H185      1.0  0.14024  0.96051  0.18114  1.0000
  C   C149      1.0  0.09098  0.73811  0.30183  1.0000
  C   C150      1.0  0.32556  0.78435  0.30223  1.0000
  S   S41       1.0  0.12484  0.84032  0.01920  1.0000
  H   H186      1.0  0.32654  0.72362  0.24708  1.0000
  H   H187      1.0  0.22036  0.96927  0.14056  1.0000
  H   H188      1.0  0.11873  0.76092  0.24754  1.0000
  H   H189      1.0  0.00409  0.97610  0.30075  1.0000
  H   H190      1.0  0.33175  0.78863  0.32729  1.0000
  C   C151      1.0  0.00484  0.83410  0.03712  1.0000
  H   H191      1.0  0.16924  0.92815  0.17166  1.0000
  H   H192      1.0  0.34217  0.73458  0.30350  1.0000
  H   H193      1.0  0.18637  0.96276  0.25976  1.0000
  C   C152      1.0  0.17618  0.98576  0.25179  1.0000
  H   H194      1.0  0.11762  0.95207  0.12623  1.0000
  C   C153      1.0  0.32244  0.74766  0.25709  1.0000
  C   C154      1.0  0.33149  0.75381  0.28885  1.0000
  H   H195      1.0  0.09048  0.71217  0.29493  1.0000
  H   H196      1.0  0.18371  0.96536  0.18697  1.0000
  C   C155      1.0  0.02683  0.83940  0.09212  1.0000
  N   N12       1.0  0.12428  0.75154  0.29834  1.0000
  H   H197      1.0  0.06518  0.97363  0.30016  1.0000
  C   C156      1.0  0.14806  0.73462  0.32010  1.0000
  C   C157      1.0  0.26758  0.73601  0.33542  1.0000
  C   C158      1.0  0.17821  0.68468  0.33557  1.0000
  H   H198      1.0  0.11707  0.00363  0.10547  1.0000
  C   C159      1.0  0.16074  0.00231  0.13721  1.0000
  H   H199      1.0  0.13433  0.72144  0.25635  1.0000
  H   H200      1.0  0.18371  0.65917  0.33169  1.0000
  H   H201      1.0  0.00956  0.77867  0.00531  1.0000
  C   C160      1.0  0.15480  0.70096  0.31629  1.0000
  H   H202      1.0  0.14520  0.79870  0.30153  1.0000
  C   C161      1.0  0.00125  0.81137  0.22626  1.0000
  C   C162      1.0  0.01761  0.99820  0.29946  1.0000
  H   H203      1.0  0.43976  0.50616  0.32691  1.0000
  Fe  Fe21      1.0  0.33160  0.61846  0.42508  1.0000
  S   S42       1.0  0.34571  0.63164  0.37518  1.0000
  S   S43       1.0  0.31484  0.57005  0.44219  1.0000
  Fe  Fe22      1.0  0.35417  0.68225  0.45313  1.0000
  S   S44       1.0  0.37013  0.70088  0.40489  1.0000
  S   S45       1.0  0.36687  0.70757  0.50007  1.0000
  Fe  Fe23      1.0  0.32220  0.68077  0.38618  1.0000
  H   H204      1.0  0.48983  0.56094  0.37764  1.0000
  Fe  Fe24      1.0  0.39179  0.65077  0.39755  1.0000
  S   S46       1.0  0.44189  0.63319  0.37972  1.0000
  S   S47       1.0  0.30470  0.66585  0.43527  1.0000
  S   S48       1.0  0.37928  0.63396  0.44667  1.0000
  S   S49       1.0  0.31267  0.64840  0.62891  1.0000
  H   H205      1.0  0.43107  0.69575  0.46403  1.0000
  H   H206      1.0  0.31983  0.78215  0.58183  1.0000
  H   H207      1.0  0.44320  0.72143  0.49634  1.0000
  C   C163      1.0  0.26152  0.73786  0.61989  1.0000
  C   C164      1.0  0.42889  0.54821  0.37674  1.0000
  C   C165      1.0  0.47656  0.65709  0.38633  1.0000
  H   H208      1.0  0.47053  0.71500  0.54834  1.0000
  H   H209      1.0  0.44890  0.70103  0.39710  1.0000
  C   C166      1.0  0.20805  0.73661  0.64593  1.0000
  C   C167      1.0  0.35352  0.68955  0.53582  1.0000
  C   C168      1.0  0.33073  0.66492  0.53489  1.0000
  C   C169      1.0  0.31859  0.65250  0.56366  1.0000
  C   C170      1.0  0.32962  0.66406  0.59355  1.0000
  C   C171      1.0  0.35304  0.68817  0.59456  1.0000
  C   C172      1.0  0.36486  0.70097  0.56574  1.0000
  H   H210      1.0  0.32170  0.65607  0.51199  1.0000
  H   H211      1.0  0.30002  0.63433  0.56277  1.0000
  H   H212      1.0  0.36131  0.69749  0.61751  1.0000
  H   H213      1.0  0.38226  0.72023  0.56665  1.0000
  H   H214      1.0  0.16266  0.77636  0.34960  1.0000
  C   C173      1.0  0.32988  0.53785  0.38539  1.0000
  C   C174      1.0  0.32430  0.53555  0.41843  1.0000
  H   H215      1.0  0.43657  0.50990  0.42946  1.0000
  C   C175      1.0  0.28576  0.76142  0.61491  1.0000
  H   H216      1.0  0.32833  0.56116  0.37396  1.0000
  H   H217      1.0  0.30079  0.53699  0.50197  1.0000
  H   H218      1.0  0.29366  0.77758  0.63376  1.0000
  N   N13       1.0  0.44068  0.51389  0.37813  1.0000
  H   H219      1.0  0.24729  0.78387  0.66676  1.0000
  C   C176      1.0  0.47312  0.71001  0.63839  1.0000
  C   C177      1.0  0.29295  0.74409  0.55953  1.0000
  H   H220      1.0  0.20066  0.75979  0.63422  1.0000
  N   N14       1.0  0.46796  0.67441  0.49572  1.0000
  H   H221      1.0  0.42172  0.65157  0.50493  1.0000
  C   C178      1.0  0.48154  0.64505  0.62129  1.0000
  H   H222      1.0  0.43676  0.56217  0.39834  1.0000
  C   C179      1.0  0.45265  0.70266  0.47913  1.0000
  H   H223      1.0  0.30537  0.74603  0.53662  1.0000
  H   H224      1.0  0.40140  0.55056  0.37582  1.0000
  C   C180      1.0  0.25103  0.79191  0.34704  1.0000
  H   H225      1.0  0.24486  0.68187  0.64904  1.0000
  H   H226      1.0  0.31625  0.58529  0.53260  1.0000
  H   H227      1.0  0.46947  0.73479  0.64660  1.0000
  C   C181      1.0  0.44570  0.69189  0.63085  1.0000
  H   H228      1.0  0.26446  0.70393  0.54414  1.0000
  H   H229      1.0  0.21408  0.68882  0.37372  1.0000
  H   H230      1.0  0.23759  0.69760  0.59590  1.0000
  H   H231      1.0  0.47068  0.71420  0.46315  1.0000
  N   N15       1.0  0.24437  0.73421  0.65093  1.0000
  C   C182      1.0  0.47323  0.68970  0.39517  1.0000
  H   H232      1.0  0.43254  0.68003  0.53454  1.0000
  H   H233      1.0  0.28203  0.76187  0.37807  1.0000
  H   H234      1.0  0.32603  0.58215  0.59150  1.0000
  C   C183      1.0  0.30110  0.76437  0.58508  1.0000
  C   C184      1.0  0.25447  0.71709  0.59352  1.0000
  C   C185      1.0  0.47533  0.64904  0.47106  1.0000
  H   H235      1.0  0.19452  0.73535  0.66911  1.0000
  H   H236      1.0  0.45261  0.64140  0.45816  1.0000
  C   C186      1.0  0.26978  0.72043  0.56378  1.0000
  C   C187      1.0  0.47716  0.50972  0.37954  1.0000
  H   H237      1.0  0.20230  0.74697  0.38268  1.0000
  C   C188      1.0  0.31702  0.53114  0.59365  1.0000
  H   H238      1.0  0.49177  0.65793  0.45204  1.0000
  H   H239      1.0  0.48712  0.62712  0.48192  1.0000
  H   H240      1.0  0.42825  0.64535  0.61731  1.0000
  H   H241      1.0  0.32181  0.53088  0.61922  1.0000
  H   H242      1.0  0.48337  0.61956  0.61572  1.0000
  H   H243      1.0  0.45452  0.64158  0.53293  1.0000
  H   H244      1.0  0.42108  0.70271  0.63302  1.0000
  H   H245      1.0  0.25177  0.81271  0.36294  1.0000
  C   C189      1.0  0.44339  0.66130  0.51810  1.0000
  C   C190      1.0  0.31964  0.56063  0.57796  1.0000
  S   S50       1.0  0.28894  0.69903  0.34470  1.0000
  C   C191      1.0  0.31399  0.56255  0.54495  1.0000
  C   C192      1.0  0.30539  0.53514  0.52763  1.0000
  H   H246      1.0  0.28035  0.69894  0.66702  1.0000
  H   H247      1.0  0.19881  0.71664  0.63065  1.0000
  C   C193      1.0  0.19517  0.70125  0.35946  1.0000
  C   C194      1.0  0.49453  0.70615  0.54035  1.0000
  C   C195      1.0  0.25314  0.70215  0.66451  1.0000
  C   C196      1.0  0.44987  0.65951  0.62218  1.0000
  C   C197      1.0  0.26823  0.76310  0.35573  1.0000
  C   C198      1.0  0.18853  0.73407  0.36443  1.0000
  C   C199      1.0  0.16551  0.75072  0.34505  1.0000
  C   C200      1.0  0.33648  0.50980  0.36691  1.0000
  H   H248      1.0  0.43794  0.56045  0.35493  1.0000
  H   H249      1.0  0.34017  0.51171  0.34128  1.0000
  C   C201      1.0  0.49770  0.68478  0.51355  1.0000
  C   C202      1.0  0.30273  0.50550  0.54304  1.0000
  C   C203      1.0  0.49879  0.53614  0.37889  1.0000
  H   H250      1.0  0.49893  0.73296  0.40799  1.0000
  C   C204      1.0  0.32567  0.50508  0.43285  1.0000
  Fe  Fe25      1.0  0.34702  0.63363  0.74359  1.0000
  S   S51       1.0  0.36031  0.68156  0.76605  1.0000
  S   S52       1.0  0.34975  0.58675  0.77120  1.0000
  H   H251      1.0  0.44725  0.65108  0.74669  1.0000
  S   S53       1.0  0.34389  0.71228  0.69509  1.0000
  Fe  Fe26      1.0  0.38761  0.68842  0.71976  1.0000
  S   S54       1.0  0.43681  0.71220  0.71395  1.0000
  Fe  Fe27      1.0  0.31529  0.70177  0.74005  1.0000
  S   S55       1.0  0.27804  0.74245  0.75411  1.0000
  H   H252      1.0  0.36058  0.51981  0.78764  1.0000
  S   S56       1.0  0.30005  0.65322  0.72110  1.0000
  Fe  Fe28      1.0  0.17416  0.82654  0.90493  1.0000
  S   S57       1.0  0.15633  0.87092  0.87834  1.0000
  S   S58       1.0  0.20946  0.78568  0.88714  1.0000
  Fe  Fe29      1.0  0.14235  0.85086  0.96871  1.0000
  S   S59       1.0  0.12360  0.89707  0.94664  1.0000
  H   H253      1.0  0.00199  0.79372  0.96565  1.0000
  Fe  Fe30      1.0  0.10846  0.86568  0.90507  1.0000
  S   S60       1.0  0.05814  0.87900  0.88407  1.0000
  Fe  Fe31      1.0  0.17266  0.89838  0.92225  1.0000
  S   S61       1.0  0.20572  0.94155  0.91996  1.0000
  S   S62       1.0  0.12458  0.81908  0.92825  1.0000
  S   S63       1.0  0.19300  0.85448  0.94787  1.0000
  C   C205      1.0  0.02490  0.82345  0.89798  1.0000
  C   C206      1.0  0.02270  0.85653  0.89162  1.0000
  H   H254      1.0  0.28826  0.86850  0.80629  1.0000
  H   H255      1.0  0.04882  0.81107  0.89833  1.0000
  C   C207      1.0  0.30148  0.81265  0.86524  1.0000
  C   C208      1.0  0.18629  0.97995  0.91449  1.0000
  H   H256      1.0  0.31562  0.89594  0.87707  1.0000
  H   H257      1.0  0.13744  0.96175  0.90830  1.0000
  C   C209      1.0  0.22692  0.77337  0.84942  1.0000
  C   C210      1.0  0.22071  0.79025  0.82092  1.0000
  C   C211      1.0  0.23635  0.78023  0.79207  1.0000
  C   C212      1.0  0.25814  0.75306  0.79111  1.0000
  C   C213      1.0  0.26385  0.73580  0.81944  1.0000
  C   C214      1.0  0.24841  0.74597  0.84836  1.0000
  H   H258      1.0  0.20381  0.81094  0.82101  1.0000
  H   H259      1.0  0.23158  0.79372  0.77033  1.0000
  H   H260      1.0  0.28043  0.71483  0.81920  1.0000
  H   H261      1.0  0.25332  0.73258  0.87015  1.0000
  C   C215      1.0  0.47289  0.69031  0.72569  1.0000
  H   H262      1.0  0.23852  0.87976  0.83131  1.0000
  H   H263      1.0  0.32558  0.76615  0.85722  1.0000
  C   C216      1.0  0.15219  0.98306  0.90944  1.0000
  C   C217      1.0  0.34502  0.55077  0.74871  1.0000
  C   C218      1.0  0.33338  0.55174  0.71702  1.0000
  H   H264      1.0  0.28993  0.90846  0.84374  1.0000
  H   H265      1.0  0.23900  0.75617  0.69810  1.0000
  H   H266      1.0  0.32812  0.57477  0.70576  1.0000
  C   C219      1.0  0.31821  0.78911  0.84669  1.0000
  H   H267      1.0  0.27715  0.91807  0.88358  1.0000
  H   H268      1.0  0.25543  0.87992  0.91838  1.0000
  H   H269      1.0  0.31679  0.82634  0.77459  1.0000
  H   H270      1.0  0.29667  0.80638  0.88985  1.0000
  C   C220      1.0  0.13909  0.99524  0.98857  1.0000
  H   H271      1.0  0.22434  0.89198  0.87019  1.0000
  C   C221      1.0  0.26876  0.54524  0.79121  1.0000
  C   C222      1.0  0.04407  0.83234  0.99139  1.0000
  C   C223      1.0  0.35162  0.52069  0.76310  1.0000
  H   H272      1.0  0.05477  0.85591  0.99817  1.0000
  H   H273      1.0  0.25423  0.83806  0.90827  1.0000
  C   C224      1.0  0.19723  0.99405  0.00133  1.0000
  C   C225      1.0  0.47110  0.66088  0.74160  1.0000
  H   H274      1.0  0.29334  0.85649  0.91688  1.0000
  H   H275      1.0  0.33564  0.77530  0.79964  1.0000
  H   H276      1.0  0.22455  0.85004  0.85859  1.0000
  S   S64       1.0  0.37778  0.63925  0.69942  1.0000
  H   H277      1.0  0.27156  0.54188  0.84255  1.0000
  H   H278      1.0  0.31765  0.52403  0.67609  1.0000
  H   H279      1.0  0.04650  0.83009  0.96478  1.0000
  C   C226      1.0  0.31310  0.82298  0.80010  1.0000
  C   C227      1.0  0.32390  0.79420  0.81420  1.0000
  Fe  Fe32      1.0  0.33197  0.66248  0.67828  1.0000
  N   N16       1.0  0.27228  0.86789  0.87040  1.0000
  C   C228      1.0  0.23854  0.87266  0.85695  1.0000
  C   C229      1.0  0.26885  0.86014  0.90499  1.0000
  C   C230      1.0  0.28959  0.89886  0.86855  1.0000
  C   C231      1.0  0.29035  0.84246  0.85167  1.0000
  C   C232      1.0  0.29667  0.84686  0.81848  1.0000
  C   C233      1.0  0.32750  0.52289  0.70019  1.0000
  H   H280      1.0  0.27162  0.57119  0.79113  1.0000
  C   C234      1.0  0.26565  0.52841  0.76229  1.0000
  H   H281      1.0  0.24235  0.69897  0.68882  1.0000
  H   H282      1.0  0.11741  0.98271  0.98034  1.0000
  C   C235      1.0  0.26904  0.52860  0.82011  1.0000
  H   H283      1.0  0.26593  0.54149  0.73986  1.0000
  C   C236      1.0  0.16887  0.97799  0.99238  1.0000
  H   H284      1.0  0.17026  0.95228  0.98710  1.0000
  C   C237      1.0  0.25302  0.75901  0.67538  1.0000
  H   H285      1.0  0.27959  0.75693  0.68247  1.0000
  H   H286      1.0  0.06000  0.81258  0.00171  1.0000
  N   N17       1.0  0.00918  0.83042  0.00192  1.0000
  H   H287      1.0  0.22057  0.98061  0.00303  1.0000
  H   H288      1.0  0.49857  0.62189  0.76434  1.0000
  C   C238      1.0  0.98884  0.16179  0.21736  1.0000
  C   C239      1.0  0.95229  0.06267  0.22527  1.0000
  C   C240      1.0  0.76093  0.28847  0.32835  1.0000
  C   C241      1.0  0.94895  0.14652  0.01429  1.0000
  H   H289      1.0  0.85783  0.22205  0.07686  1.0000
  H   H290      1.0  0.76237  0.26086  0.24165  1.0000
  Fe  Fe33      1.0  0.83999  0.18455  0.24927  1.0000
  S   S65       1.0  0.88264  0.15223  0.26629  1.0000
  S   S66       1.0  0.82299  0.23316  0.27176  1.0000
  Fe  Fe34      1.0  0.83188  0.14586  0.18675  1.0000
  S   S67       1.0  0.87260  0.11031  0.19911  1.0000
  S   S68       1.0  0.80276  0.14007  0.14029  1.0000
  Fe  Fe35      1.0  0.85163  0.11123  0.24865  1.0000
  S   S69       1.0  0.85110  0.06473  0.27679  1.0000
  Fe  Fe36      1.0  0.90096  0.15322  0.21547  1.0000
  S   S70       1.0  0.95301  0.15177  0.19553  1.0000
  S   S71       1.0  0.80776  0.14318  0.23541  1.0000
  S   S72       1.0  0.86141  0.18894  0.19944  1.0000
  C   C242      1.0  0.81197  0.03167  0.05689  1.0000
  H   H291      1.0  0.97394  0.02903  0.29676  1.0000
  H   H292      1.0  0.96031  0.13288  0.03462  1.0000
  H   H293      1.0  0.94184  0.17717  0.07017  1.0000
  H   H294      1.0  0.96458  0.17155  0.26245  1.0000
  C   C243      1.0  0.82269  0.03224  0.22591  1.0000
  C   C244      1.0  0.83558  0.03042  0.25713  1.0000
  H   H295      1.0  0.93682  0.21748  0.05472  1.0000
  H   H296      1.0  0.82088  0.05526  0.21389  1.0000
  H   H297      1.0  0.74269  0.19298  0.19878  1.0000
  H   H298      1.0  0.90932  0.03795  0.23825  1.0000
  C   C245      1.0  0.80454  0.14615  0.07471  1.0000
  C   C246      1.0  0.81592  0.15802  0.10439  1.0000
  C   C247      1.0  0.83577  0.18504  0.10496  1.0000
  C   C248      1.0  0.84331  0.20058  0.07613  1.0000
  H   H299      1.0  0.78875  0.12558  0.07420  1.0000
  H   H300      1.0  0.84457  0.19449  0.12766  1.0000
  H   H301      1.0  0.90650  0.18768  0.04692  1.0000
  C   C249      1.0  0.93357  0.19147  0.04901  1.0000
  C   C250      1.0  0.76848  0.22293  0.31096  1.0000
  C   C251      1.0  0.79078  0.24487  0.29901  1.0000
  H   H302      1.0  0.80372  0.29495  0.29861  1.0000
  H   H303      1.0  0.81450  0.23887  0.16827  1.0000
  C   C252      1.0  0.93494  0.03475  0.23125  1.0000
  H   H304      1.0  0.77585  0.21257  0.13542  1.0000
  H   H305      1.0  0.99825  0.08235  0.21105  1.0000
  C   C253      1.0  0.83216  0.18854  0.04641  1.0000
  C   C254      1.0  0.78675  0.27769  0.30780  1.0000
  C   C255      1.0  0.81315  0.16093  0.04574  1.0000
  H   H306      1.0  0.71929  0.29296  0.26864  1.0000
  C   C256      1.0  0.81091  0.05457  0.03257  1.0000
  H   H307      1.0  0.77105  0.19767  0.30432  1.0000
  H   H308      1.0  0.73289  0.21407  0.14358  1.0000
  N   N18       1.0  0.95116  0.18187  0.01898  1.0000
  H   H309      1.0  0.78497  0.18911  0.18651  1.0000
  H   H310      1.0  0.80415  0.15166  0.02302  1.0000
  S   S73       1.0  0.84121  0.20954  0.01091  1.0000
  H   H311      1.0  0.77486  0.20947  0.22325  1.0000
  H   H312      1.0  0.80488  0.07966  0.03818  1.0000
  C   C257      1.0  0.98645  0.19026  0.02101  1.0000
  H   H313      1.0  0.93996  0.08626  0.22743  1.0000
  C   C258      1.0  0.98793  0.17042  0.24995  1.0000
  H   H314      1.0  0.66801  0.30932  0.23966  1.0000
  H   H315      1.0  0.99567  0.16805  0.06780  1.0000
  H   H316      1.0  0.80435  0.25609  0.20630  1.0000
  H   H317      1.0  0.79258  0.27729  0.17033  1.0000
  H   H318      1.0  0.66005  0.29282  0.18283  1.0000
  H   H319      1.0  0.70192  0.26029  0.15490  1.0000
  H   H320      1.0  0.92278  0.13916  0.01207  1.0000
  N   N19       1.0  0.76279  0.23648  0.18022  1.0000
  C   C259      1.0  0.75572  0.22819  0.14605  1.0000
  C   C260      1.0  0.79482  0.25296  0.18131  1.0000
  C   C261      1.0  0.76642  0.20577  0.19799  1.0000
  C   C262      1.0  0.73678  0.25715  0.19557  1.0000
  C   C263      1.0  0.70703  0.26695  0.17954  1.0000
  C   C264      1.0  0.74048  0.26743  0.22799  1.0000
  C   C265      1.0  0.68264  0.28570  0.19535  1.0000
  C   C266      1.0  0.71593  0.28594  0.24363  1.0000
  C   C267      1.0  0.68704  0.29507  0.22735  1.0000
  H   H321      1.0  0.75352  0.25014  0.13094  1.0000
  C   C268      1.0  0.98526  0.06047  0.21611  1.0000
  H   H322      1.0  0.80666  0.03919  0.08145  1.0000
  C   C269      1.0  0.74277  0.23368  0.33163  1.0000
  H   H323      1.0  0.80180  0.00580  0.18613  1.0000
  H   H324      1.0  0.75831  0.31374  0.33488  1.0000
  Fe  Fe37      1.0  0.65394  0.34899  0.45084  1.0000
  S   S74       1.0  0.63541  0.39613  0.43105  1.0000
  S   S75       1.0  0.63794  0.33692  0.50115  1.0000
  Fe  Fe38      1.0  0.68446  0.39790  0.40704  1.0000
  S   S76       1.0  0.70463  0.35228  0.43024  1.0000
  S   S77       1.0  0.63443  0.32034  0.40924  1.0000
  H   H325      1.0  0.67514  0.28784  0.46452  1.0000
  H   H326      1.0  0.54221  0.35055  0.57697  1.0000
  S   S78       1.0  0.72452  0.33875  0.62892  1.0000
  H   H327      1.0  0.66488  0.26497  0.51448  1.0000
  Fe  Fe39      1.0  0.68438  0.32662  0.38647  1.0000
  S   S79       1.0  0.71150  0.44453  0.41420  1.0000
  H   H328      1.0  0.72788  0.43191  0.49375  1.0000
  C   C270      1.0  0.69184  0.48099  0.40168  1.0000
  C   C271      1.0  0.66565  0.48110  0.37959  1.0000
  H   H329      1.0  0.65678  0.45849  0.37017  1.0000
  C   C272      1.0  0.66294  0.33824  0.53599  1.0000
  C   C273      1.0  0.64753  0.33776  0.56605  1.0000
  C   C274      1.0  0.66629  0.33813  0.59454  1.0000
  C   C275      1.0  0.70074  0.33863  0.59323  1.0000
  C   C276      1.0  0.71630  0.33903  0.56314  1.0000
  C   C277      1.0  0.69743  0.33890  0.53453  1.0000
  H   H330      1.0  0.62090  0.33690  0.56744  1.0000
  H   H331      1.0  0.65404  0.33760  0.61755  1.0000
  H   H332      1.0  0.74297  0.33924  0.56201  1.0000
  H   H333      1.0  0.70956  0.33872  0.51147  1.0000
  Fe  Fe40      1.0  0.61969  0.36795  0.38780  1.0000
  C   C278      1.0  0.53372  0.34678  0.49581  1.0000
  H   H334      1.0  0.73735  0.27936  0.43000  1.0000
  C   C279      1.0  0.53645  0.33422  0.39711  1.0000
  C   C280      1.0  0.53404  0.36348  0.38067  1.0000
  C   C281      1.0  0.68264  0.26313  0.45611  1.0000
  H   H335      1.0  0.76587  0.26804  0.46073  1.0000
  H   H336      1.0  0.74948  0.21222  0.46264  1.0000
  H   H337      1.0  0.56047  0.32338  0.40236  1.0000
  C   C282      1.0  0.68914  0.25933  0.52427  1.0000
  S   S80       1.0  0.56954  0.38312  0.36757  1.0000
  H   H338      1.0  0.77002  0.24066  0.50733  1.0000
  H   H339      1.0  0.64809  0.40803  0.52726  1.0000
  N   N20       1.0  0.71569  0.25323  0.46898  1.0000
  H   H340      1.0  0.69271  0.41642  0.47306  1.0000
  H   H341      1.0  0.71295  0.41116  0.61675  1.0000
  H   H342      1.0  0.72274  0.22013  0.42910  1.0000
  H   H343      1.0  0.70666  0.20251  0.46495  1.0000
  H   H344      1.0  0.66331  0.24610  0.46308  1.0000
  H   H345      1.0  0.68231  0.26363  0.42934  1.0000
  C   C283      1.0  0.64753  0.43277  0.51711  1.0000
  C   C284      1.0  0.71723  0.25283  0.50458  1.0000
  C   C285      1.0  0.73984  0.27619  0.45652  1.0000
  H   H346      1.0  0.73633  0.30037  0.46808  1.0000
  H   H347      1.0  0.63523  0.43055  0.49322  1.0000
  C   C286      1.0  0.54875  0.35054  0.52577  1.0000
  H   H348      1.0  0.53738  0.44926  0.38242  1.0000
  C   C287      1.0  0.72225  0.46136  0.60935  1.0000
  C   C288      1.0  0.73875  0.26648  0.34046  1.0000
  H   H349      1.0  0.73306  0.46473  0.63302  1.0000
  C   C289      1.0  0.50010  0.34029  0.49364  1.0000
  H   H350      1.0  0.57485  0.35538  0.52736  1.0000
  C   C290      1.0  0.53026  0.34787  0.55367  1.0000
  C   C291      1.0  0.67806  0.47551  0.49432  1.0000
  C   C292      1.0  0.72403  0.22058  0.45594  1.0000
  C   C293      1.0  0.74773  0.24626  0.52065  1.0000
  S   S81       1.0  0.66792  0.37281  0.36157  1.0000
  H   H351      1.0  0.67040  0.26633  0.57234  1.0000
  H   H352      1.0  0.72451  0.25675  0.59869  1.0000
  H   H353      1.0  0.70569  0.39928  0.51025  1.0000
  C   C294      1.0  0.69731  0.42667  0.56958  1.0000
  S   S82       1.0  0.70593  0.27831  0.36693  1.0000
  C   C295      1.0  0.70636  0.48267  0.55722  1.0000
  H   H354      1.0  0.77393  0.24336  0.56597  1.0000
  H   H355      1.0  0.70264  0.48575  0.48956  1.0000
  C   C296      1.0  0.71095  0.43124  0.60017  1.0000
  C   C297      1.0  0.52647  0.47356  0.38165  1.0000
  C   C298      1.0  0.69189  0.26017  0.55781  1.0000
  C   C299      1.0  0.72240  0.25475  0.57273  1.0000
  H   H356      1.0  0.68899  0.40285  0.56364  1.0000
  C   C300      1.0  0.69477  0.45213  0.54703  1.0000
  C   C301      1.0  0.75022  0.24751  0.55421  1.0000
  H   H357      1.0  0.70547  0.50354  0.54187  1.0000
  H   H358      1.0  0.66744  0.47006  0.47011  1.0000
  C   C302      1.0  0.70275  0.42240  0.49727  1.0000
  N   N21       1.0  0.68101  0.44614  0.51449  1.0000
  H   H359      1.0  0.54832  0.34867  0.47413  1.0000
  H   H360      1.0  0.50469  0.34599  0.65967  1.0000
  C   C303      1.0  0.50767  0.31840  0.40587  1.0000
  H   H361      1.0  0.63133  0.44842  0.53261  1.0000
  H   H362      1.0  0.50977  0.29545  0.41798  1.0000
  H   H363      1.0  0.66171  0.49445  0.50558  1.0000
  C   C304      1.0  0.50267  0.37717  0.37377  1.0000
  H   H364      1.0  0.57360  0.49614  0.38109  1.0000
  C   C305      1.0  0.71974  0.48707  0.58804  1.0000
  H   H365      1.0  0.69985  0.50070  0.66722  1.0000
  H   H366      1.0  0.50065  0.39962  0.36079  1.0000
  C   C306      1.0  0.54695  0.49993  0.38086  1.0000
  H   H367      1.0  0.72578  0.21641  0.34075  1.0000
  Fe  Fe41      1.0  0.68137  0.31394  0.74091  1.0000
  S   S83       1.0  0.63990  0.35048  0.75000  1.0000
  S   S84       1.0  0.69065  0.27786  0.78168  1.0000
  Fe  Fe42      1.0  0.62442  0.34230  0.69890  1.0000
  C   C307      1.0  0.67562  0.49876  0.75696  1.0000
  H   H368      1.0  0.94239  0.18925  0.96824  1.0000
  S   S85       1.0  0.67559  0.43269  0.75978  1.0000
  Fe  Fe43      1.0  0.83672  0.19326  0.88908  1.0000
  S   S86       1.0  0.85926  0.14362  0.87942  1.0000
  S   S87       1.0  0.82600  0.22640  0.84623  1.0000
  Fe  Fe44      1.0  0.84198  0.18421  0.96230  1.0000
  S   S88       1.0  0.86339  0.13397  0.95777  1.0000
  C   C308      1.0  0.57593  0.43893  0.76457  1.0000
  Fe  Fe45      1.0  0.89511  0.15426  0.91927  1.0000
  S   S89       1.0  0.94825  0.13558  0.92059  1.0000
  Fe  Fe46      1.0  0.82587  0.12752  0.91856  1.0000
  S   S90       1.0  0.79466  0.08334  0.91277  1.0000
  S   S91       1.0  0.87597  0.20515  0.92582  1.0000
  S   S92       1.0  0.80104  0.17655  0.92614  1.0000
  C   C309      1.0  0.69311  0.50012  0.69228  1.0000
  H   H369      1.0  0.61496  0.48158  0.69325  1.0000
  H   H370      1.0  0.75425  0.08432  0.84842  1.0000
  C   C310      1.0  0.98229  0.16089  0.91770  1.0000
  C   C311      1.0  0.97858  0.19346  0.90946  1.0000
  H   H371      1.0  0.68252  0.14145  0.82225  1.0000
  H   H372      1.0  0.95420  0.20395  0.90507  1.0000
  H   H373      1.0  0.77740  0.17585  0.79063  1.0000
  C   C312      1.0  0.81595  0.04567  0.90902  1.0000
  H   H374      1.0  0.74855  0.13085  0.88770  1.0000
  C   C313      1.0  0.85045  0.04366  0.90967  1.0000
  H   H375      1.0  0.73943  0.17055  0.87268  1.0000
  H   H376      1.0  0.86445  0.06538  0.91209  1.0000
  C   C314      1.0  0.78805  0.24155  0.82947  1.0000
  C   C315      1.0  0.75755  0.23645  0.84382  1.0000
  C   C316      1.0  0.72806  0.24818  0.82916  1.0000
  C   C317      1.0  0.72870  0.26565  0.80032  1.0000
  C   C318      1.0  0.75928  0.27162  0.78651  1.0000
  C   C319      1.0  0.78871  0.25942  0.80090  1.0000
  H   H377      1.0  0.75672  0.22358  0.86620  1.0000
  H   H378      1.0  0.70456  0.24347  0.84007  1.0000
  H   H379      1.0  0.76023  0.28487  0.76429  1.0000
  H   H380      1.0  0.81218  0.26373  0.78971  1.0000
  C   C320      1.0  0.53709  0.34629  0.70098  1.0000
  H   H381      1.0  0.68806  0.20985  0.74660  1.0000
  H   H382      1.0  0.71497  0.09543  0.83151  1.0000
  H   H383      1.0  0.65529  0.17606  0.78217  1.0000
  H   H384      1.0  0.75055  0.09203  0.80601  1.0000
  C   C321      1.0  0.68015  0.46962  0.73981  1.0000
  C   C322      1.0  0.59865  0.49681  0.70768  1.0000
  S   S93       1.0  0.71670  0.35091  0.72394  1.0000
  H   H385      1.0  0.60179  0.44449  0.77161  1.0000
  C   C323      1.0  0.68856  0.47036  0.70730  1.0000
  C   C324      1.0  0.59015  0.42875  0.70965  1.0000
  H   H386      1.0  0.58571  0.43437  0.68386  1.0000
  H   H387      1.0  0.70911  0.13997  0.87047  1.0000
  N   N22       1.0  0.74055  0.37426  0.82160  1.0000
  C   C325      1.0  0.71175  0.35720  0.80845  1.0000
  C   C326      1.0  0.72837  0.40120  0.84254  1.0000
  C   C327      1.0  0.75782  0.38868  0.79406  1.0000
  C   C328      1.0  0.76162  0.35135  0.84040  1.0000
  C   C329      1.0  0.74867  0.33586  0.86766  1.0000
  C   C330      1.0  0.79482  0.34299  0.83196  1.0000
  C   C331      1.0  0.76766  0.31342  0.88528  1.0000
  C   C332      1.0  0.81359  0.32052  0.84981  1.0000
  H   H388      1.0  0.98537  0.10250  0.85007  1.0000
  H   H389      1.0  0.69538  0.37343  0.79381  1.0000
  H   H390      1.0  0.72006  0.33663  0.79288  1.0000
  H   H391      1.0  0.69601  0.34706  0.82737  1.0000
  H   H392      1.0  0.71203  0.39289  0.86191  1.0000
  H   H393      1.0  0.71345  0.41943  0.82860  1.0000
  H   H394      1.0  0.74931  0.41382  0.85406  1.0000
  H   H395      1.0  0.76627  0.36986  0.77639  1.0000
  H   H396      1.0  0.74123  0.40573  0.78042  1.0000
  H   H397      1.0  0.77940  0.40266  0.80221  1.0000
  H   H398      1.0  0.72346  0.34045  0.87516  1.0000
  H   H399      1.0  0.80674  0.35291  0.81133  1.0000
  H   H400      1.0  0.53622  0.49914  0.76266  1.0000
  H   H401      1.0  0.83850  0.31361  0.84249  1.0000
  H   H402      1.0  0.58540  0.40257  0.71234  1.0000
  N   N23       1.0  0.74884  0.13466  0.83593  1.0000
  C   C333      1.0  0.78530  0.13738  0.83719  1.0000
  C   C334      1.0  0.73584  0.14445  0.86797  1.0000
  C   C335      1.0  0.74176  0.10017  0.83015  1.0000
  C   C336      1.0  0.73279  0.15475  0.81067  1.0000
  C   C337      1.0  0.75085  0.17413  0.78936  1.0000
  C   C338      1.0  0.69787  0.15554  0.80700  1.0000
  C   C339      1.0  0.73473  0.19319  0.76618  1.0000
  C   C340      1.0  0.68202  0.17506  0.78400  1.0000
  C   C341      1.0  0.70043  0.19393  0.76372  1.0000
  H   H403      1.0  0.79251  0.16257  0.84283  1.0000
  H   H404      1.0  0.79653  0.12174  0.85617  1.0000
  H   H405      1.0  0.61679  0.43164  0.71545  1.0000
  H   H406      1.0  0.98229  0.20292  0.82907  1.0000
  H   H407      1.0  0.79707  0.12945  0.81424  1.0000
  H   H408      1.0  0.74885  0.20858  0.75086  1.0000
  H   H409      1.0  0.56247  0.34719  0.74661  1.0000
  C   C342      1.0  0.53876  0.34865  0.73452  1.0000
  H   H410      1.0  0.52716  0.45088  0.69863  1.0000
  Fe  Fe47      1.0  0.67421  0.38664  0.73021  1.0000
  H   H411      1.0  0.69211  0.44806  0.69386  1.0000
  H   H412      1.0  0.75704  0.30128  0.90553  1.0000
  H   H413      1.0  0.52944  0.41572  0.72337  1.0000
  C   C343      1.0  0.80005  0.30578  0.87636  1.0000
  S   S94       1.0  0.65572  0.38137  0.67967  1.0000
  C   C344      1.0  0.79811  0.01724  0.90585  1.0000
  C   C345      1.0  0.50614  0.34788  0.68559  1.0000
  H   H414      1.0  0.95404  0.15283  0.84248  1.0000
  H   H415      1.0  0.99032  0.21364  0.97404  1.0000
  C   C346      1.0  0.57424  0.48417  0.72811  1.0000
  N   N24       1.0  0.56881  0.44912  0.73109  1.0000
  H   H416      1.0  0.81444  0.28764  0.88945  1.0000
  C   C347      1.0  0.86700  0.01343  0.90730  1.0000
  C   C348      1.0  0.81756  0.04519  0.00100  1.0000
  S   S95       1.0  0.66246  0.30229  0.69094  1.0000
  H   H417      1.0  0.51615  0.45332  0.74040  1.0000
  H   H418      1.0  0.66896  0.49835  0.78208  1.0000
  H   H419      1.0  0.57304  0.41245  0.76749  1.0000
  H   H420      1.0  0.96182  0.13842  0.99185  1.0000
  C   C349      1.0  0.99640  0.18038  0.83113  1.0000
  S   S96       1.0  0.57297  0.34200  0.67731  1.0000
  C   C350      1.0  0.53394  0.44211  0.72307  1.0000
  Fe  Fe48      1.0  0.69465  0.34211  0.67470  1.0000
  C   C351      1.0  0.50954  0.35253  0.75247  1.0000
  C   C352      1.0  0.82557  0.01292  0.99367  1.0000
  C   C353      1.0  0.98051  0.15211  0.83848  1.0000
  H   H421      1.0  0.55914  0.45110  0.78221  1.0000
  H   H422      1.0  0.93460  0.22457  0.99348  1.0000
  H   H423      1.0  0.77140  0.01865  0.90535  1.0000
  H   H424      1.0  0.51087  0.35410  0.77842  1.0000
  H   H425      1.0  0.83070  0.00691  0.96888  1.0000
  H   H426      1.0  0.81653  0.06300  0.98200  1.0000
  H   H427      1.0  0.89373  0.01210  0.90792  1.0000
  H   H428      1.0  0.90643  0.19220  0.99193  1.0000
  C   C354      1.0  0.93311  0.19783  0.99198  1.0000
  C   C355      1.0  0.99876  0.12327  0.84264  1.0000
  Fe  Fe49      1.0  0.81736  0.82064  0.23825  1.0000
  S   S97       1.0  0.86917  0.80597  0.22272  1.0000
  S   S98       1.0  0.77682  0.78462  0.24974  1.0000
  Fe  Fe50      1.0  0.82612  0.89094  0.21640  1.0000
  S   S99       1.0  0.87768  0.88110  0.19930  1.0000
  S   S100      1.0  0.80227  0.93930  0.20437  1.0000
  Fe  Fe51      1.0  0.85886  0.83534  0.17830  1.0000
  S   S101      1.0  0.87748  0.81841  0.12942  1.0000
  Fe  Fe52      1.0  0.88402  0.85330  0.24482  1.0000
  S   S102      1.0  0.93037  0.86560  0.27245  1.0000
  S   S103      1.0  0.80650  0.84706  0.19192  1.0000
  S   S104      1.0  0.83300  0.86618  0.26389  1.0000
  C   C356      1.0  0.81484  0.97408  0.22527  1.0000
  H   H429      1.0  0.99680  0.88460  0.28484  1.0000
  C   C357      1.0  0.82769  0.97225  0.25651  1.0000
  C   C358      1.0  0.77985  0.76543  0.10730  1.0000
  H   H430      1.0  0.82958  0.94919  0.26845  1.0000
  C   C359      1.0  0.85587  0.83043  0.09432  1.0000
  C   C360      1.0  0.82420  0.84477  0.09589  1.0000
  C   C361      1.0  0.80646  0.85159  0.06745  1.0000
  C   C362      1.0  0.82050  0.84474  0.03730  1.0000
  C   C363      1.0  0.85262  0.83145  0.03568  1.0000
  C   C364      1.0  0.87008  0.82398  0.06414  1.0000
  H   H431      1.0  0.81310  0.85001  0.11898  1.0000
  H   H432      1.0  0.78166  0.86198  0.06883  1.0000
  H   H433      1.0  0.83400  0.75908  0.10524  1.0000
  H   H434      1.0  0.89441  0.81256  0.06276  1.0000
  C   C365      1.0  0.96861  0.85041  0.25762  1.0000
  H   H435      1.0  0.82222  0.78694  0.15399  1.0000
  N   N25       1.0  0.74606  0.61029  0.33197  1.0000
  H   H436      1.0  0.94786  0.81324  0.22790  1.0000
  H   H437      1.0  0.99798  0.97955  0.21681  1.0000
  H   H438      1.0  0.86357  0.82597  0.01254  1.0000
  H   H439      1.0  0.95108  0.83090  0.03571  1.0000
  C   C366      1.0  0.73659  0.74724  0.28648  1.0000
  C   C367      1.0  0.76529  0.76565  0.28620  1.0000
  C   C368      1.0  0.78370  0.76833  0.31463  1.0000
  C   C369      1.0  0.83712  0.93285  0.03702  1.0000
  C   C370      1.0  0.78584  0.76868  0.03942  1.0000
  H   H440      1.0  0.72215  0.74490  0.26467  1.0000
  H   H441      1.0  0.84689  0.99901  0.29694  1.0000
  C   C371      1.0  0.80171  0.67385  0.29823  1.0000
  H   H442      1.0  0.81232  0.93137  0.04824  1.0000
  H   H443      1.0  0.78833  0.77134  0.01364  1.0000
  H   H444      1.0  0.97115  0.94047  0.24454  1.0000
  H   H445      1.0  0.83794  0.76170  0.04744  1.0000
  C   C372      1.0  0.75482  0.77137  0.05357  1.0000
  H   H446      1.0  0.82359  0.74343  0.15568  1.0000
  C   C373      1.0  0.96805  0.83571  0.08398  1.0000
  H   H447      1.0  0.73394  0.73426  0.14103  1.0000
  C   C374      1.0  0.97032  0.82418  0.23618  1.0000
  C   C375      1.0  0.75170  0.76932  0.08695  1.0000
  H   H448      1.0  0.73317  0.77565  0.03854  1.0000
  C   C376      1.0  0.90154  0.97441  0.21207  1.0000
  C   C377      1.0  0.82709  0.98892  0.01777  1.0000
  N   N26       1.0  0.77601  0.76500  0.14269  1.0000
  H   H449      1.0  0.90388  0.95314  0.27233  1.0000
  C   C378      1.0  0.91953  0.97423  0.26749  1.0000
  C   C379      1.0  0.81388  0.65876  0.27052  1.0000
  H   H450      1.0  0.68115  0.82667  0.27328  1.0000
  H   H451      1.0  0.80879  0.69825  0.30425  1.0000
  H   H452      1.0  0.88441  0.99535  0.21662  1.0000
  C   C380      1.0  0.80463  0.62749  0.26275  1.0000
  H   H453      1.0  0.88652  0.95260  0.21530  1.0000
  C   C381      1.0  0.81380  0.76339  0.05854  1.0000
  C   C382      1.0  0.72615  0.73211  0.31480  1.0000
  H   H454      1.0  0.95849  0.94139  0.20261  1.0000
  H   H455      1.0  0.75590  0.73427  0.17860  1.0000
  C   C383      1.0  0.75586  0.79361  0.15353  1.0000
  H   H456      1.0  0.72958  0.79256  0.14600  1.0000
  H   H457      1.0  0.75551  0.79601  0.18028  1.0000
  H   H458      1.0  0.76577  0.81623  0.14370  1.0000
  H   H459      1.0  0.72709  0.77140  0.09671  1.0000
  H   H460      1.0  0.81434  0.61577  0.24123  1.0000
  N   N27       1.0  0.93087  0.97429  0.23368  1.0000
  N   N28       1.0  0.83636  0.95506  0.00918  1.0000
  H   H461      1.0  0.64324  0.80295  0.31125  1.0000
  H   H462      1.0  0.85536  0.94023  0.05560  1.0000
  H   H463      1.0  0.90447  0.99625  0.27372  1.0000
  H   H464      1.0  0.77330  0.71338  0.14416  1.0000
  C   C384      1.0  0.72033  0.83162  0.30770  1.0000
  C   C385      1.0  0.94970  0.94343  0.22784  1.0000
  H   H465      1.0  0.94334  0.83488  0.09393  1.0000
  H   H466      1.0  0.80442  0.76663  0.18700  1.0000
  C   C386      1.0  0.81108  0.76190  0.09198  1.0000
  C   C387      1.0  0.99795  0.86438  0.26819  1.0000
  C   C388      1.0  0.78287  0.61127  0.28249  1.0000
  H   H467      1.0  0.80586  0.78227  0.31490  1.0000
  H   H468      1.0  0.83058  0.67136  0.25512  1.0000
  C   C389      1.0  0.80797  0.76547  0.16046  1.0000
  C   C390      1.0  0.75900  0.73542  0.15200  1.0000
  H   H469      1.0  0.70408  0.71811  0.31447  1.0000
  H   H470      1.0  0.77662  0.58719  0.27501  1.0000
  H   H471      1.0  0.94076  0.97303  0.28455  1.0000
  H   H472      1.0  0.82006  0.98281  0.06975  1.0000
  H   H473      1.0  0.73718  0.84152  0.29047  1.0000
  H   H474      1.0  0.88829  0.96456  0.01109  1.0000
  H   H475      1.0  0.84435  0.90771  0.02961  1.0000
  C   C391      1.0  0.76985  0.62611  0.31087  1.0000
  C   C392      1.0  0.99504  0.83855  0.10463  1.0000
  H   H476      1.0  0.90885  0.97524  0.18638  1.0000
  H   H477      1.0  0.70439  0.63396  0.30878  1.0000
  H   H478      1.0  0.93414  0.92213  0.23192  1.0000
  C   C393      1.0  0.78026  0.65775  0.31826  1.0000
  C   C394      1.0  0.81983  0.99923  0.04976  1.0000
  C   C395      1.0  0.83745  0.00045  0.27258  1.0000
  C   C396      1.0  0.66736  0.80940  0.31997  1.0000
  C   C397      1.0  0.68878  0.82306  0.29805  1.0000
  C   C398      1.0  0.73731  0.57732  0.32108  1.0000
  C   C399      1.0  0.97276  0.83350  0.05072  1.0000
  H   H479      1.0  0.99131  0.83986  0.13043  1.0000
  C   C400      1.0  0.98410  0.00210  0.21928  1.0000
  H   H480      1.0  0.72536  0.57766  0.29690  1.0000
  H   H481      1.0  0.75932  0.56056  0.32067  1.0000
  C   C401      1.0  0.71501  0.63016  0.33325  1.0000
  C   C402      1.0  0.95015  0.00350  0.22801  1.0000
  C   C403      1.0  0.81196  0.00420  0.21021  1.0000
  Fe  Fe53      1.0  0.65246  0.62333  0.39272  1.0000
  S   S105      1.0  0.64570  0.67117  0.36769  1.0000
  S   S106      1.0  0.64616  0.57656  0.36506  1.0000
  Fe  Fe54      1.0  0.66383  0.65413  0.45828  1.0000
  S   S107      1.0  0.65875  0.70449  0.43914  1.0000
  S   S108      1.0  0.67374  0.63547  0.50847  1.0000
  Fe  Fe55      1.0  0.61568  0.68552  0.41103  1.0000
  S   S109      1.0  0.56841  0.71565  0.40802  1.0000
  Fe  Fe56      1.0  0.68940  0.68677  0.39694  1.0000
  H   H482      1.0  0.53567  0.66028  0.48344  1.0000
  S   S110      1.0  0.61843  0.63658  0.43331  1.0000
  S   S111      1.0  0.69839  0.63764  0.41884  1.0000
  H   H483      1.0  0.71973  0.80826  0.38504  1.0000
  S   S112      1.0  0.64403  0.70887  0.64052  1.0000
  C   C404      1.0  0.66463  0.65660  0.54458  1.0000
  C   C405      1.0  0.65190  0.68840  0.54491  1.0000
  C   C406      1.0  0.64577  0.70438  0.57446  1.0000
  C   C407      1.0  0.65219  0.68863  0.60371  1.0000
  C   C408      1.0  0.66443  0.65674  0.60327  1.0000
  C   C409      1.0  0.67064  0.64085  0.57385  1.0000
  H   H484      1.0  0.64743  0.70080  0.52249  1.0000
  H   H485      1.0  0.63656  0.72916  0.57468  1.0000
  H   H486      1.0  0.66970  0.64441  0.62561  1.0000
  H   H487      1.0  0.68063  0.61633  0.57378  1.0000
  C   C410      1.0  0.53316  0.53112  0.37954  1.0000
  H   H488      1.0  0.57523  0.61914  0.59698  1.0000
  C   C411      1.0  0.53321  0.69311  0.39912  1.0000
  C   C412      1.0  0.53644  0.66057  0.39014  1.0000
  H   H489      1.0  0.53310  0.60862  0.59460  1.0000
  H   H490      1.0  0.56072  0.64918  0.38791  1.0000
  H   H491      1.0  0.52563  0.60415  0.65307  1.0000
  C   C413      1.0  0.66300  0.54007  0.38067  1.0000
  C   C414      1.0  0.70958  0.81253  0.36134  1.0000
  H   H492      1.0  0.67452  0.80880  0.41881  1.0000
  H   H493      1.0  0.57544  0.71697  0.55927  1.0000
  C   C415      1.0  0.54944  0.62935  0.59835  1.0000
  H   H494      1.0  0.66754  0.74086  0.36013  1.0000
  C   C416      1.0  0.68852  0.53995  0.40352  1.0000
  C   C417      1.0  0.74442  0.73509  0.34332  1.0000
  H   H495      1.0  0.78783  0.75546  0.36473  1.0000
  H   H496      1.0  0.72838  0.51056  0.59547  1.0000
  C   C418      1.0  0.76006  0.60752  0.36492  1.0000
  H   H497      1.0  0.75556  0.83243  0.34639  1.0000
  H   H498      1.0  0.76327  0.63149  0.37668  1.0000
  C   C419      1.0  0.62327  0.80956  0.37761  1.0000
  H   H499      1.0  0.78463  0.59470  0.36466  1.0000
  H   H500      1.0  0.74373  0.59385  0.38099  1.0000
  H   H501      1.0  0.68985  0.76856  0.40820  1.0000
  H   H502      1.0  0.54931  0.55154  0.37876  1.0000
  H   H503      1.0  0.62826  0.74457  0.38001  1.0000
  C   C420      1.0  0.55801  0.68701  0.52063  1.0000
  C   C421      1.0  0.66768  0.78523  0.40805  1.0000
  C   C422      1.0  0.53046  0.67565  0.50404  1.0000
  H   H504      1.0  0.60569  0.79956  0.39519  1.0000
  N   N29       1.0  0.65390  0.78912  0.37505  1.0000
  H   H505      1.0  0.69739  0.56250  0.41295  1.0000
  C   C423      1.0  0.57061  0.66910  0.63444  1.0000
  C   C424      1.0  0.55394  0.70787  0.54686  1.0000
  H   H506      1.0  0.72342  0.51059  0.43075  1.0000
  C   C425      1.0  0.51010  0.66279  0.62893  1.0000
  H   H507      1.0  0.52483  0.71102  0.64496  1.0000
  H   H508      1.0  0.64951  0.77464  0.42460  1.0000
  H   H509      1.0  0.71861  0.65434  0.34433  1.0000
  H   H510      1.0  0.59525  0.65657  0.63263  1.0000
  S   S113      1.0  0.73292  0.71635  0.37991  1.0000
  H   H511      1.0  0.51920  0.73399  0.57688  1.0000
  H   H512      1.0  0.54586  0.64599  0.57773  1.0000
  C   C426      1.0  0.50490  0.69583  0.63758  1.0000
  H   H513      1.0  0.58277  0.68000  0.51272  1.0000
  H   H514      1.0  0.63202  0.51047  0.35098  1.0000
  H   H515      1.0  0.57044  0.68842  0.61609  1.0000
  C   C427      1.0  0.64504  0.75667  0.36311  1.0000
  N   N30       1.0  0.54320  0.64653  0.62934  1.0000
  C   C428      1.0  0.52227  0.71735  0.55675  1.0000
  H   H516      1.0  0.60956  0.81126  0.35444  1.0000
  H   H517      1.0  0.51104  0.61761  0.37649  1.0000
  C   C429      1.0  0.77334  0.75310  0.34292  1.0000
  H   H518      1.0  0.62896  0.83454  0.38552  1.0000
  H   H519      1.0  0.56912  0.60974  0.65689  1.0000
  C   C430      1.0  0.50155  0.70772  0.40133  1.0000
  C   C431      1.0  0.65163  0.51057  0.36877  1.0000
  C   C432      1.0  0.70317  0.51050  0.41365  1.0000
  H   H520      1.0  0.56997  0.68052  0.65881  1.0000
  C   C433      1.0  0.67706  0.80375  0.35237  1.0000
  H   H521      1.0  0.69594  0.61842  0.34777  1.0000
  C   C434      1.0  0.54467  0.62274  0.65574  1.0000
  H   H522      1.0  0.63197  0.75746  0.33958  1.0000
  C   C435      1.0  0.50824  0.64272  0.38355  1.0000
  H   H523      1.0  0.71911  0.56640  0.33750  1.0000
  H   H524      1.0  0.77166  0.67045  0.33958  1.0000
  C   C436      1.0  0.73063  0.82647  0.33927  1.0000
  Fe  Fe57      1.0  0.67746  0.61396  0.71018  1.0000
  H   H525      1.0  0.67377  0.81682  0.81179  1.0000
  S   S114      1.0  0.69552  0.56588  0.68956  1.0000
  Fe  Fe58      1.0  0.68517  0.67473  0.75276  1.0000
  S   S115      1.0  0.63765  0.69779  0.73408  1.0000
  S   S116      1.0  0.71460  0.69143  0.79698  1.0000
  Fe  Fe59      1.0  0.61659  0.64863  0.73861  1.0000
  S   S117      1.0  0.56713  0.63591  0.75877  1.0000
  S   S118      1.0  0.66243  0.62623  0.76055  1.0000
  S   S119      1.0  0.70396  0.66047  0.70335  1.0000
  Fe  Fe60      1.0  0.88113  0.82965  0.91311  1.0000
  S   S120      1.0  0.87279  0.86997  0.94852  1.0000
  S   S121      1.0  0.92919  0.80031  0.91150  1.0000
  Fe  Fe61      1.0  0.81317  0.83871  0.88161  1.0000
  S   S122      1.0  0.79950  0.88105  0.91425  1.0000
  S   S123      1.0  0.78145  0.82391  0.83821  1.0000
  Fe  Fe62      1.0  0.85108  0.89766  0.90692  1.0000
  S   S124      1.0  0.87162  0.94769  0.90315  1.0000
  Fe  Fe63      1.0  0.82218  0.85074  0.95381  1.0000
  C   C437      1.0  0.65994  0.79524  0.81582  1.0000
  S   S125      1.0  0.86325  0.85839  0.87086  1.0000
  S   S126      1.0  0.83196  0.80720  0.92202  1.0000
  C   C438      1.0  0.96483  0.82204  0.90270  1.0000
  H   H526      1.0  0.67650  0.55087  0.75523  1.0000
  C   C439      1.0  0.96264  0.85510  0.89633  1.0000
  C   C440      1.0  0.87176  0.79955  0.80538  1.0000
  H   H527      1.0  0.93879  0.86761  0.89588  1.0000
  C   C441      1.0  0.81235  0.94243  0.98544  1.0000
  C   C442      1.0  0.84927  0.98496  0.90440  1.0000
  H   H528      1.0  0.78292  0.69094  0.75595  1.0000
  H   H529      1.0  0.80084  0.96514  0.90103  1.0000
  H   H530      1.0  0.87924  0.79979  0.77971  1.0000
  C   C443      1.0  0.73281  0.72863  0.80781  1.0000
  C   C444      1.0  0.73051  0.75590  0.78827  1.0000
  C   C445      1.0  0.74552  0.78476  0.79802  1.0000
  C   C446      1.0  0.76296  0.78682  0.82736  1.0000
  C   C447      1.0  0.76511  0.75959  0.84696  1.0000
  C   C448      1.0  0.75016  0.73073  0.83719  1.0000
  H   H531      1.0  0.71720  0.75475  0.76568  1.0000
  H   H532      1.0  0.74362  0.80566  0.78268  1.0000
  H   H533      1.0  0.77814  0.76076  0.86969  1.0000
  H   H534      1.0  0.75211  0.70981  0.85249  1.0000
  H   H535      1.0  0.81771  0.91655  0.97948  1.0000
  C   C449      1.0  0.67986  0.52854  0.74181  1.0000
  C   C450      1.0  0.53125  0.65692  0.74522  1.0000
  C   C451      1.0  0.53313  0.68604  0.72875  1.0000
  H   H536      1.0  0.92266  0.76665  0.82829  1.0000
  H   H537      1.0  0.89007  0.81402  0.81894  1.0000
  H   H538      1.0  0.55694  0.69592  0.72378  1.0000
  H   H539      1.0  0.66205  0.72966  0.86332  1.0000
  H   H540      1.0  0.59585  0.75538  0.78411  1.0000
  N   N31       1.0  0.60767  0.70740  0.83102  1.0000
  C   C452      1.0  0.59579  0.70656  0.86465  1.0000
  C   C453      1.0  0.57850  0.70321  0.80963  1.0000
  C   C454      1.0  0.63084  0.67952  0.82551  1.0000
  C   C455      1.0  0.62508  0.73776  0.82550  1.0000
  C   C456      1.0  0.61593  0.75970  0.80065  1.0000
  C   C457      1.0  0.65268  0.74578  0.84492  1.0000
  H   H541      1.0  0.69102  0.77954  0.85496  1.0000
  H   H542      1.0  0.78893  0.74733  0.73903  1.0000
  C   C458      1.0  0.99712  0.79851  0.99152  1.0000
  H   H543      1.0  0.61640  0.70624  0.88243  1.0000
  H   H544      1.0  0.57947  0.72801  0.87013  1.0000
  H   H545      1.0  0.58149  0.68454  0.86917  1.0000
  H   H546      1.0  0.55984  0.72328  0.81260  1.0000
  H   H547      1.0  0.56565  0.68042  0.81465  1.0000
  H   H548      1.0  0.58572  0.70145  0.78392  1.0000
  H   H549      1.0  0.65168  0.67869  0.84305  1.0000
  H   H550      1.0  0.61831  0.65601  0.82676  1.0000
  H   H551      1.0  0.64226  0.68086  0.80141  1.0000
  H   H552      1.0  0.62629  0.80410  0.77659  1.0000
  C   C459      1.0  0.68902  0.52926  0.70949  1.0000
  C   C460      1.0  0.90421  0.75142  0.81572  1.0000
  Fe  Fe64      1.0  0.65461  0.67968  0.68537  1.0000
  S   S127      1.0  0.62975  0.63247  0.68894  1.0000
  C   C461      1.0  0.63327  0.78796  0.79600  1.0000
  H   H553      1.0  0.78668  0.94432  0.99481  1.0000
  H   H554      1.0  0.83522  0.77868  0.85443  1.0000
  C   C462      1.0  0.80111  0.70586  0.76764  1.0000
  C   C463      1.0  0.84277  0.71311  0.80885  1.0000
  H   H555      1.0  0.81682  0.66900  0.80061  1.0000
  C   C464      1.0  0.99144  0.87214  0.89041  1.0000
  H   H556      1.0  0.84747  0.81276  0.80796  1.0000
  C   C465      1.0  0.66956  0.77425  0.84028  1.0000
  C   C466      1.0  0.84674  0.74578  0.80000  1.0000
  H   H557      1.0  0.87756  0.78417  0.86596  1.0000
  C   C467      1.0  0.81472  0.98692  0.90351  1.0000
  C   C468      1.0  0.82016  0.69360  0.79295  1.0000
  H   H558      1.0  0.82707  0.78230  0.76630  1.0000
  H   H559      1.0  0.85670  0.70258  0.82855  1.0000
  C   C469      1.0  0.86080  0.76841  0.85200  1.0000
  C   C470      1.0  0.80452  0.73769  0.75817  1.0000
  H   H560      1.0  0.86171  0.74467  0.86412  1.0000
  H   H561      1.0  0.91201  0.74833  0.79024  1.0000
  H   H562      1.0  0.90618  0.72740  0.82728  1.0000
  N   N32       1.0  0.87038  0.76610  0.81773  1.0000
  C   C471      1.0  0.82674  0.75758  0.77416  1.0000
  H   H563      1.0  0.87052  0.96709  0.97156  1.0000
  C   C472      1.0  0.56013  0.54009  0.74456  1.0000
  H   H564      1.0  0.54554  0.55710  0.75904  1.0000
  C   C473      1.0  0.98983  0.85615  0.98497  1.0000
  H   H565      1.0  0.58862  0.57723  0.72348  1.0000
  C   C474      1.0  0.99599  0.80618  0.90292  1.0000
  H   H566      1.0  0.98951  0.89766  0.88517  1.0000
  H   H567      1.0  0.50546  0.72572  0.70725  1.0000
  C   C475      1.0  0.60333  0.53005  0.70586  1.0000
  C   C476      1.0  0.58431  0.55158  0.72441  1.0000
  H   H568      1.0  0.81281  0.95544  0.96228  1.0000
  H   H569      1.0  0.99668  0.88052  0.99375  1.0000
  H   H570      1.0  0.62245  0.53917  0.69054  1.0000
  H   H571      1.0  0.99436  0.85534  0.95861  1.0000
  C   C477      1.0  0.50398  0.70285  0.71934  1.0000
  H   H572      1.0  0.96999  0.79660  0.99457  1.0000
  H   H573      1.0  0.96273  0.85394  0.98777  1.0000
  H   H574      1.0  0.87818  0.92866  0.98883  1.0000
  H   H575      1.0  0.54049  0.63481  0.67950  1.0000
  C   C478      1.0  0.50021  0.64440  0.75158  1.0000
  C   C479      1.0  0.86975  0.95383  0.99464  1.0000
  C   C480      1.0  0.55506  0.50690  0.74643  1.0000
  S   S128      1.0  0.79699  0.85244  0.00222  1.0000
  H   H576      1.0  0.99782  0.78049  0.90724  1.0000
