data_image0
_chemical_formula_structural       FeS2FeS2FeSFeHS2FeS2FeSHFeSFeS3H2C2H4CHC3H2CHCHNC6H4CHC3H3NC2HCH3CHCH4SH5CH3C2HCH5NCH2CHCHCHCHCHCH2CH3C2H2C4HC2HCHNCHC3HCHCHCHCHC5H2CHNH2CH5SCH4SHCHSH2C2H2C10SH3C2HCHNC2HNHC4HC2H4C2H2SHFeSCH2CHC2H2C2H7FeHCSCH3S2CH2CH2C2H2CSH3CH3CFeC3HNHCHC6NHCH2CH6C2NCH2CH6CS2CHCHSH4C4FeCFeS2FeS2FeSFeS3FeS2FeSCFeSFeHS2CHCH4C3HC2HC2HC6H4CH7C2HSH6C5HCHCHCHNC9H12C2H2C3HNCH3CH3C2HC2HC2HCHCHCHC4H3CH2CHC2H5CHCH2CFeS2CH2S2FeS2CHCHSFeS2H2S2FeS2C3SC2H4C7H3C9H8CHNHCHNHCFeHSH3SHC3HCH3C2HNH2CFeCH3CSFeCHC2FeHFeH4CFeSHFeCSH3CSNHCH2C3H3C3HSHCHFeS2HC3SHSNSHFeS2FeS2H2CSCSHSFeS2HCHSFeHC6H6C5HC2H3C2HCHNC9H15FeHFeCHFe2H2CH3CFeSHCHCH3CHNC6HCH2CH2S2CH4CSNCH3SCFeC5Fe2H3CH2CH3C2HCHCFeS2FeS2FeSFeHSHFeS2FeS2FeSFeS3HC3HCHSH2C6H4C2H2C4SHC3H3CH3CHCHCNHCH4C3H2CH3CH3C2HNH2CHCNHCH2C3HSH2C3H3CH2CHCHC2HCHC2H2CS2H2CSHCHSCH3C3HCH2CHCH7C3H2C2HNH3CH4CNCHCFeCHC4HCH3CHSCFeCHCHC2FeCHC2HSHC3HCS2C3HC2HC2HCH3CH2CH2C2H3C2H2CH2CHCFeC4HSH5CNH2C2SHC2H3CHNCH2CH3SHC2HC2HCH4CHC3HCH2FeS2FeS2FeSFeS3FeS2FeSCFeSFeS3CH8C6H4CHCHC2HC3H3C2H7CH3CH2C3NC6H2C2H3C2HCHC2HNC3HCNC2H4CHC2H2CH3C2NCHCH3CH2CHCH4C2HNH7SCH2CH3CH
_chemical_formula_sum              "Fe64 S128 H576 C480 N32"
_cell_length_a       44.9494
_cell_length_b       41.1316
_cell_length_c       39.6998
_cell_angle_alpha    89.8561
_cell_angle_beta     90.1152
_cell_angle_gamma    90.0095

_space_group_name_H-M_alt    "P 1"
_space_group_IT_number       1

loop_
  _space_group_symop_operation_xyz
  'x, y, z'

loop_
  _atom_site_type_symbol
  _atom_site_label
  _atom_site_symmetry_multiplicity
  _atom_site_fract_x
  _atom_site_fract_y
  _atom_site_fract_z
  _atom_site_occupancy
  Fe  Fe1       1.0  0.16505  0.38871  0.44126  1.0000
  S   S1        1.0  0.13917  0.35793  0.47771  1.0000
  S   S2        1.0  0.17535  0.44310  0.44480  1.0000
  Fe  Fe2       1.0  0.16253  0.33613  0.38547  1.0000
  S   S3        1.0  0.13595  0.30236  0.41837  1.0000
  S   S4        1.0  0.17724  0.31800  0.33361  1.0000
  Fe  Fe3       1.0  0.10916  0.34631  0.43361  1.0000
  S   S5        1.0  0.06033  0.36121  0.42798  1.0000
  Fe  Fe4       1.0  0.16853  0.31624  0.45963  1.0000
  H   H1        1.0  0.10729  0.45724  0.45759  1.0000
  S   S6        1.0  0.13416  0.37887  0.39790  1.0000
  S   S7        1.0  0.19627  0.34815  0.42584  1.0000
  Fe  Fe5       1.0  0.15469  0.35557  0.13427  1.0000
  S   S8        1.0  0.14914  0.30259  0.12274  1.0000
  S   S9        1.0  0.15165  0.37736  0.18731  1.0000
  Fe  Fe6       1.0  0.15186  0.37441  0.05877  1.0000
  S   S10       1.0  0.14458  0.32209  0.04312  1.0000
  H   H2        1.0  0.29666  0.26061  0.48279  1.0000
  Fe  Fe7       1.0  0.11299  0.31951  0.08719  1.0000
  S   S11       1.0  0.06785  0.29424  0.09152  1.0000
  Fe  Fe8       1.0  0.18144  0.31005  0.07959  1.0000
  S   S12       1.0  0.22301  0.27772  0.07096  1.0000
  S   S13       1.0  0.11752  0.37223  0.09992  1.0000
  S   S14       1.0  0.18973  0.36254  0.09404  1.0000
  H   H3        1.0  0.23992  0.22802  0.35286  1.0000
  H   H4        1.0  0.05856  0.34262  0.33148  1.0000
  C   C1        1.0  0.03308  0.31432  0.08685  1.0000
  C   C2        1.0  0.03105  0.34573  0.07352  1.0000
  H   H5        1.0  0.21440  0.27276  0.42846  1.0000
  H   H6        1.0  0.05108  0.35855  0.06628  1.0000
  H   H7        1.0  0.04131  0.29502  0.15952  1.0000
  H   H8        1.0  0.19263  0.38610  0.35329  1.0000
  C   C3        1.0  0.20348  0.43114  0.30299  1.0000
  H   H9        1.0  0.09417  0.27803  0.20009  1.0000
  C   C4        1.0  0.09312  0.30200  0.18712  1.0000
  C   C5        1.0  0.26985  0.24434  0.04159  1.0000
  C   C6        1.0  0.24072  0.25639  0.03699  1.0000
  H   H10       1.0  0.02423  0.45272  0.46438  1.0000
  H   H11       1.0  0.28116  0.24870  0.06522  1.0000
  C   C7        1.0  0.02466  0.34481  0.43773  1.0000
  H   H12       1.0  0.24949  0.14814  0.00800  1.0000
  C   C8        1.0  0.02091  0.31537  0.45493  1.0000
  H   H13       1.0  0.10332  0.31581  0.30842  1.0000
  N   N1        1.0  0.06647  0.32085  0.19742  1.0000
  C   C9        1.0  0.16796  0.33366  0.29305  1.0000
  C   C10       1.0  0.17825  0.31739  0.26417  1.0000
  C   C11       1.0  0.17256  0.32974  0.23156  1.0000
  C   C12       1.0  0.15687  0.35886  0.22748  1.0000
  C   C13       1.0  0.14611  0.37480  0.25634  1.0000
  C   C14       1.0  0.15137  0.36215  0.28890  1.0000
  H   H14       1.0  0.19107  0.29529  0.26700  1.0000
  H   H15       1.0  0.18111  0.31725  0.20965  1.0000
  H   H16       1.0  0.13388  0.39730  0.25349  1.0000
  H   H17       1.0  0.14279  0.37456  0.31074  1.0000
  C   C15       1.0  0.21935  0.26566  0.40209  1.0000
  H   H18       1.0  0.04020  0.30151  0.46266  1.0000
  C   C16       1.0  0.19842  0.45081  0.24473  1.0000
  C   C17       1.0  0.21478  0.18925  0.44294  1.0000
  C   C18       1.0  0.16725  0.44454  0.34614  1.0000
  H   H19       1.0  0.15370  0.46042  0.06448  1.0000
  H   H20       1.0  0.09294  0.29685  0.15959  1.0000
  H   H21       1.0  0.20268  0.23896  0.34274  1.0000
  N   N2        1.0  0.19889  0.43638  0.33954  1.0000
  C   C19       1.0  0.22647  0.25021  0.00624  1.0000
  C   C20       1.0  0.20642  0.40752  0.36043  1.0000
  H   H22       1.0  0.10839  0.30631  0.24857  1.0000
  C   C21       1.0  0.27670  0.14938  0.08871  1.0000
  H   H23       1.0  0.24887  0.28890  0.47133  1.0000
  H   H24       1.0  0.20238  0.41207  0.38768  1.0000
  H   H25       1.0  0.25692  0.17749  0.12867  1.0000
  C   C22       1.0  0.17484  0.46884  0.48083  1.0000
  H   H26       1.0  0.11405  0.31570  0.19212  1.0000
  C   C23       1.0  0.21747  0.34238  0.01247  1.0000
  H   H27       1.0  0.27968  0.07519  0.05751  1.0000
  H   H28       1.0  0.16267  0.44677  0.37362  1.0000
  H   H29       1.0  0.03744  0.27941  0.20158  1.0000
  H   H30       1.0  0.04874  0.42909  0.43950  1.0000
  S   S15       1.0  0.15556  0.40878  0.01343  1.0000
  H   H31       1.0  0.30688  0.21768  0.02010  1.0000
  H   H32       1.0  0.22218  0.38165  0.30535  1.0000
  H   H33       1.0  0.27623  0.15259  0.47597  1.0000
  H   H34       1.0  0.01893  0.31626  0.18885  1.0000
  H   H35       1.0  0.30783  0.09135  0.08505  1.0000
  C   C24       1.0  0.21572  0.40196  0.28967  1.0000
  H   H36       1.0  0.15217  0.42547  0.33601  1.0000
  H   H37       1.0  0.05428  0.47233  0.44245  1.0000
  H   H38       1.0  0.20397  0.25864  0.00224  1.0000
  C   C25       1.0  0.32851  0.13665  0.04294  1.0000
  C   C26       1.0  0.04794  0.45023  0.45700  1.0000
  H   H39       1.0  0.18644  0.47866  0.28762  1.0000
  C   C27       1.0  0.15400  0.47159  0.03979  1.0000
  H   H40       1.0  0.21519  0.46789  0.37885  1.0000
  H   H41       1.0  0.17172  0.23662  0.42738  1.0000
  H   H42       1.0  0.21282  0.18334  0.03322  1.0000
  H   H43       1.0  0.22159  0.15375  0.48232  1.0000
  H   H44       1.0  0.20703  0.28276  0.38539  1.0000
  N   N3        1.0  0.21056  0.23146  0.39592  1.0000
  C   C28       1.0  0.17791  0.22919  0.40129  1.0000
  H   H45       1.0  0.05792  0.39438  0.49146  1.0000
  H   H46       1.0  0.24340  0.27003  0.39772  1.0000
  C   C29       1.0  0.30136  0.08824  0.05826  1.0000
  H   H47       1.0  0.27134  0.22339  0.39751  1.0000
  C   C30       1.0  0.21884  0.39753  0.25494  1.0000
  H   H48       1.0  0.23033  0.40089  0.35826  1.0000
  C   C31       1.0  0.19547  0.45568  0.27942  1.0000
  H   H49       1.0  0.21122  0.41753  0.20558  1.0000
  C   C32       1.0  0.03770  0.34840  0.28293  1.0000
  H   H50       1.0  0.19928  0.35891  0.02045  1.0000
  C   C33       1.0  0.21638  0.22362  0.36005  1.0000
  H   H51       1.0  0.29440  0.14106  0.10504  1.0000
  C   C34       1.0  0.23204  0.16861  0.46310  1.0000
  H   H52       1.0  0.06866  0.34831  0.15110  1.0000
  H   H53       1.0  0.00802  0.27353  0.10592  1.0000
  C   C35       1.0  0.25177  0.15281  0.03465  1.0000
  H   H54       1.0  0.22716  0.37465  0.24522  1.0000
  H   H55       1.0  0.30066  0.18768  0.43396  1.0000
  H   H56       1.0  0.09714  0.41530  0.45668  1.0000
  C   C36       1.0  0.15464  0.45200  0.01105  1.0000
  C   C37       1.0  0.22806  0.20955  0.41807  1.0000
  H   H57       1.0  0.16956  0.20413  0.39665  1.0000
  H   H58       1.0  0.19133  0.46944  0.22708  1.0000
  C   C38       1.0  0.25534  0.17015  0.10253  1.0000
  C   C39       1.0  0.27575  0.14027  0.05423  1.0000
  C   C40       1.0  0.00298  0.36021  0.06842  1.0000
  C   C41       1.0  0.20988  0.42170  0.23252  1.0000
  H   H59       1.0  0.04676  0.36692  0.18317  1.0000
  C   C42       1.0  0.29497  0.11201  0.00367  1.0000
  C   C43       1.0  0.06708  0.35218  0.17885  1.0000
  H   H60       1.0  0.21122  0.19766  0.35468  1.0000
  C   C44       1.0  0.25955  0.20821  0.41525  1.0000
  H   H61       1.0  0.19117  0.18924  0.44785  1.0000
  N   N4        1.0  0.29954  0.11964  0.03985  1.0000
  C   C45       1.0  0.08806  0.31772  0.25687  1.0000
  H   H62       1.0  0.08661  0.36715  0.18657  1.0000
  C   C46       1.0  0.26284  0.16783  0.45953  1.0000
  C   C47       1.0  0.23037  0.17326  0.04885  1.0000
  C   C48       1.0  0.27658  0.18770  0.43578  1.0000
  H   H63       1.0  0.21631  0.19916  0.09299  1.0000
  C   C49       1.0  0.23230  0.18219  0.08258  1.0000
  H   H64       1.0  0.31846  0.07183  0.04702  1.0000
  C   C50       1.0  0.03988  0.30213  0.18654  1.0000
  H   H65       1.0  0.28182  0.33910  0.01492  1.0000
  C   C51       1.0  0.06040  0.33845  0.30456  1.0000
  H   H66       1.0  0.16545  0.24563  0.38391  1.0000
  C   C52       1.0  0.06506  0.32710  0.23414  1.0000
  H   H67       1.0  0.01818  0.36031  0.29318  1.0000
  C   C53       1.0  0.09789  0.43717  0.47316  1.0000
  C   C54       1.0  0.21774  0.46373  0.35120  1.0000
  C   C55       1.0  0.28451  0.22649  0.01604  1.0000
  C   C56       1.0  0.03996  0.34298  0.24824  1.0000
  C   C57       1.0  0.24918  0.26775  0.48753  1.0000
  H   H68       1.0  0.16050  0.46810  0.33479  1.0000
  H   H69       1.0  0.23397  0.34202  0.03335  1.0000
  C   C58       1.0  0.08552  0.32322  0.29153  1.0000
  H   H70       1.0  0.24169  0.45883  0.34620  1.0000
  N   N5        1.0  0.06795  0.44552  0.48642  1.0000
  H   H71       1.0  0.02182  0.35128  0.23250  1.0000
  H   H72       1.0  0.00169  0.38414  0.05713  1.0000
  C   C59       1.0  0.00673  0.29796  0.09584  1.0000
  H   H73       1.0  0.01438  0.29715  0.01502  1.0000
  H   H74       1.0  0.11386  0.43142  0.49380  1.0000
  H   H75       1.0  0.32788  0.16062  0.02983  1.0000
  H   H76       1.0  0.00179  0.38526  0.41466  1.0000
  H   H77       1.0  0.20804  0.31747  0.01067  1.0000
  S   S16       1.0  0.18725  0.27568  0.49430  1.0000
  C   C60       1.0  0.27644  0.25180  0.49439  1.0000
  H   H78       1.0  0.25896  0.38781  0.00481  1.0000
  H   H79       1.0  0.32129  0.30097  0.00023  1.0000
  H   H80       1.0  0.31039  0.22890  0.68406  1.0000
  H   H81       1.0  0.20785  0.30755  0.57067  1.0000
  S   S17       1.0  0.31321  0.20527  0.52299  1.0000
  H   H82       1.0  0.19416  0.27791  0.62269  1.0000
  C   C61       1.0  0.05722  0.41731  0.50634  1.0000
  H   H83       1.0  0.19448  0.33060  0.95221  1.0000
  S   S18       1.0  0.28741  0.19797  0.95172  1.0000
  H   H84       1.0  0.25674  0.19716  0.65101  1.0000
  H   H85       1.0  0.03377  0.42027  0.51462  1.0000
  C   C62       1.0  0.25354  0.31096  0.94047  1.0000
  C   C63       1.0  0.27981  0.32603  0.99145  1.0000
  H   H86       1.0  0.25369  0.39449  0.96043  1.0000
  H   H87       1.0  0.31814  0.26837  0.94813  1.0000
  C   C64       1.0  0.26755  0.25475  0.61802  1.0000
  C   C65       1.0  0.27648  0.28929  0.93259  1.0000
  C   C66       1.0  0.22449  0.29360  0.58429  1.0000
  C   C67       1.0  0.33142  0.02547  0.50334  1.0000
  C   C68       1.0  0.23800  0.25772  0.63026  1.0000
  C   C69       1.0  0.30095  0.28602  0.95389  1.0000
  C   C70       1.0  0.25345  0.29190  0.57209  1.0000
  C   C71       1.0  0.24255  0.38616  0.98392  1.0000
  C   C72       1.0  0.17762  0.47804  0.54138  1.0000
  C   C73       1.0  0.25145  0.21373  0.53096  1.0000
  S   S19       1.0  0.31935  0.03865  0.57055  1.0000
  H   H88       1.0  0.25195  0.19288  0.54758  1.0000
  H   H89       1.0  0.27294  0.24291  0.68578  1.0000
  H   H90       1.0  0.25918  0.30469  0.54908  1.0000
  C   C74       1.0  0.24110  0.23230  0.98075  1.0000
  C   C75       1.0  0.00520  0.25355  0.98709  1.0000
  H   H91       1.0  0.17769  0.43058  0.51776  1.0000
  C   C76       1.0  0.06773  0.47504  0.50776  1.0000
  H   H92       1.0  0.29631  0.27141  0.57654  1.0000
  N   N6        1.0  0.23046  0.35280  0.97994  1.0000
  C   C77       1.0  0.15515  0.46705  0.97914  1.0000
  C   C78       1.0  0.27471  0.27261  0.58837  1.0000
  H   H93       1.0  0.21375  0.36303  0.93002  1.0000
  N   N7        1.0  0.28914  0.23326  0.63543  1.0000
  H   H94       1.0  0.22462  0.40400  0.99001  1.0000
  C   C79       1.0  0.29365  0.24430  0.67063  1.0000
  C   C80       1.0  0.33331  0.01488  0.98379  1.0000
  C   C81       1.0  0.27748  0.19952  0.63608  1.0000
  C   C82       1.0  0.17647  0.45656  0.51369  1.0000
  H   H95       1.0  0.22973  0.22770  0.95720  1.0000
  C   C83       1.0  0.22413  0.22960  0.52395  1.0000
  C   C84       1.0  0.21680  0.27669  0.61344  1.0000
  H   H96       1.0  0.27256  0.19086  0.61009  1.0000
  H   H97       1.0  0.27497  0.27402  0.91040  1.0000
  H   H98       1.0  0.23506  0.31173  0.92313  1.0000
  H   H99       1.0  0.32310  0.02918  0.96400  1.0000
  C   C85       1.0  0.32394  0.01300  0.53501  1.0000
  C   C86       1.0  0.27788  0.22459  0.51604  1.0000
  H   H100      1.0  0.30170  0.26988  0.67131  1.0000
  H   H101      1.0  0.07113  0.41358  0.52926  1.0000
  S   S20       1.0  0.31010  0.13402  0.59450  1.0000
  H   H102      1.0  0.17964  0.46828  0.56661  1.0000
  Fe  Fe9       1.0  0.32954  0.16834  0.93752  1.0000
  S   S21       1.0  0.32195  0.11596  0.92238  1.0000
  C   C87       1.0  0.27021  0.22022  0.98535  1.0000
  H   H103      1.0  0.18814  0.37197  0.96310  1.0000
  H   H104      1.0  0.15561  0.45217  0.95673  1.0000
  C   C88       1.0  0.22264  0.25663  0.50204  1.0000
  H   H105      1.0  0.29372  0.18234  0.64777  1.0000
  C   C89       1.0  0.30260  0.30432  0.98327  1.0000
  C   C90       1.0  0.25454  0.33007  0.97030  1.0000
  H   H106      1.0  0.23091  0.24484  0.65260  1.0000
  H   H107      1.0  0.20393  0.22078  0.53559  1.0000
  C   C91       1.0  0.31879  0.23237  0.61900  1.0000
  C   C92       1.0  0.20576  0.35454  0.95504  1.0000
  H   H108      1.0  0.32933  0.25683  0.61826  1.0000
  H   H109      1.0  0.31729  0.22270  0.59288  1.0000
  H   H110      1.0  0.01969  0.47478  0.51621  1.0000
  H   H111      1.0  0.29517  0.13448  0.98792  1.0000
  H   H112      1.0  0.02835  0.24615  0.98630  1.0000
  H   H113      1.0  0.31294  0.09608  0.99375  1.0000
  H   H114      1.0  0.11575  0.48545  0.50741  1.0000
  Fe  Fe10      1.0  0.33345  0.16295  0.55416  1.0000
  H   H115      1.0  0.27370  0.09882  0.99936  1.0000
  C   C93       1.0  0.30158  0.74635  0.38639  1.0000
  S   S22       1.0  0.30495  0.85446  0.42264  1.0000
  C   C94       1.0  0.26058  0.75059  0.34802  1.0000
  H   H116      1.0  0.28959  0.86448  0.02918  1.0000
  H   H117      1.0  0.27639  0.80445  0.37985  1.0000
  H   H118      1.0  0.04976  0.53595  0.05993  1.0000
  S   S23       1.0  0.28876  0.77517  0.06630  1.0000
  S   S24       1.0  0.31246  0.86219  0.09919  1.0000
  C   C95       1.0  0.26975  0.75567  0.03210  1.0000
  H   H119      1.0  0.26238  0.72514  0.33882  1.0000
  H   H120      1.0  0.08285  0.57886  0.07822  1.0000
  C   C96       1.0  0.03246  0.54974  0.04751  1.0000
  H   H121      1.0  0.23924  0.73088  0.06525  1.0000
  H   H122      1.0  0.23752  0.75915  0.34329  1.0000
  C   C97       1.0  0.23458  0.85329  0.05278  1.0000
  C   C98       1.0  0.09044  0.57840  0.05159  1.0000
  H   H123      1.0  0.31006  0.74996  0.41256  1.0000
  H   H124      1.0  0.30702  0.79935  0.26026  1.0000
  C   C99       1.0  0.32081  0.82081  0.25825  1.0000
  S   S25       1.0  0.31333  0.77597  0.48493  1.0000
  H   H125      1.0  0.31455  0.76333  0.37016  1.0000
  H   H126      1.0  0.15414  0.52067  0.05898  1.0000
  H   H127      1.0  0.20307  0.76601  0.49018  1.0000
  C   C100      1.0  0.24547  0.68516  0.44486  1.0000
  H   H128      1.0  0.17219  0.51259  0.45090  1.0000
  H   H129      1.0  0.31597  0.69346  0.06008  1.0000
  H   H130      1.0  0.25677  0.91057  0.03918  1.0000
  C   C101      1.0  0.15421  0.50578  0.03656  1.0000
  Fe  Fe11      1.0  0.32454  0.81482  0.07392  1.0000
  C   C102      1.0  0.03828  0.57972  0.03080  1.0000
  C   C103      1.0  0.24565  0.73484  0.03932  1.0000
  C   C104      1.0  0.31779  0.69088  0.03312  1.0000
  H   H131      1.0  0.09042  0.64009  0.03792  1.0000
  N   N8        1.0  0.26912  0.75283  0.38410  1.0000
  H   H132      1.0  0.28716  0.70383  0.42991  1.0000
  C   C105      1.0  0.26407  0.78659  0.39566  1.0000
  H   H133      1.0  0.20078  0.67200  0.45864  1.0000
  C   C106      1.0  0.25086  0.73017  0.40448  1.0000
  C   C107      1.0  0.26347  0.70624  0.42616  1.0000
  C   C108      1.0  0.21930  0.73202  0.40341  1.0000
  C   C109      1.0  0.17347  0.50275  0.47615  1.0000
  C   C110      1.0  0.20155  0.71103  0.42251  1.0000
  C   C111      1.0  0.21461  0.68755  0.44305  1.0000
  N   N9        1.0  0.24276  0.86443  0.01834  1.0000
  H   H134      1.0  0.30709  0.72128  0.37808  1.0000
  C   C112      1.0  0.06767  0.62930  0.03727  1.0000
  H   H135      1.0  0.24028  0.79378  0.39471  1.0000
  H   H136      1.0  0.24764  0.86611  0.07259  1.0000
  C   C113      1.0  0.22417  0.75534  0.49729  1.0000
  H   H137      1.0  0.17752  0.71341  0.42210  1.0000
  H   H138      1.0  0.27510  0.76613  0.33183  1.0000
  H   H139      1.0  0.27654  0.66402  0.03191  1.0000
  H   H140      1.0  0.21056  0.85754  0.05785  1.0000
  H   H141      1.0  0.27187  0.78973  0.42206  1.0000
  H   H142      1.0  0.25548  0.66767  0.46193  1.0000
  C   C114      1.0  0.33118  0.97057  0.47933  1.0000
  C   C115      1.0  0.00375  0.53654  0.04845  1.0000
  N   N10       1.0  0.06844  0.59412  0.02875  1.0000
  C   C116      1.0  0.22963  0.71904  0.01333  1.0000
  H   H143      1.0  0.01668  0.61705  0.00006  1.0000
  H   H144      1.0  0.05554  0.64410  0.01818  1.0000
  C   C117      1.0  0.01386  0.59484  0.01429  1.0000
  H   H145      1.0  0.23934  0.82704  0.05699  1.0000
  H   H146      1.0  0.20810  0.75017  0.38832  1.0000
  H   H147      1.0  0.05706  0.63339  0.06219  1.0000
  H   H148      1.0  0.27589  0.82694  0.01299  1.0000
  H   H149      1.0  0.21194  0.48701  0.33854  1.0000
  H   H150      1.0  0.21123  0.70314  0.01944  1.0000
  C   C118      1.0  0.29481  0.67379  0.01722  1.0000
  S   S26       1.0  0.31720  0.82285  0.32752  1.0000
  S   S27       1.0  0.32020  0.92560  0.02639  1.0000
  C   C119      1.0  0.27350  0.85372  0.01111  1.0000
  H   H151      1.0  0.24999  0.79415  0.47480  1.0000
  C   C120      1.0  0.27852  0.75775  0.49673  1.0000
  H   H152      1.0  0.22616  0.80028  0.01158  1.0000
  S   S28       1.0  0.15568  0.56404  0.00246  1.0000
  H   H153      1.0  0.11247  0.59087  0.05064  1.0000
  H   H154      1.0  0.32476  0.81754  0.20392  1.0000
  H   H155      1.0  0.09527  0.55288  0.04398  1.0000
  H   H156      1.0  0.21973  0.91031  0.02220  1.0000
  C   C121      1.0  0.24258  0.90059  0.01855  1.0000
  C   C122      1.0  0.15490  0.52083  0.00466  1.0000
  C   C123      1.0  0.25089  0.77125  0.48814  1.0000
  C   C124      1.0  0.32880  0.83788  0.28761  1.0000
  Fe  Fe12      1.0  0.33202  0.81824  0.45246  1.0000
  C   C125      1.0  0.33082  0.83107  0.22623  1.0000
  Fe  Fe13      1.0  0.11031  0.63393  0.57871  1.0000
  S   S29       1.0  0.13218  0.60074  0.61647  1.0000
  S   S30       1.0  0.06164  0.62195  0.56759  1.0000
  Fe  Fe14      1.0  0.17080  0.66477  0.55820  1.0000
  S   S31       1.0  0.19615  0.63240  0.59395  1.0000
  S   S32       1.0  0.18963  0.70710  0.52616  1.0000
  Fe  Fe15      1.0  0.16618  0.59164  0.57598  1.0000
  S   S33       1.0  0.17961  0.53795  0.57241  1.0000
  Fe  Fe16      1.0  0.15991  0.64371  0.63149  1.0000
  S   S34       1.0  0.17525  0.66084  0.68365  1.0000
  S   S35       1.0  0.14335  0.62300  0.53742  1.0000
  S   S36       1.0  0.13558  0.67801  0.59654  1.0000
  Fe  Fe17      1.0  0.11146  0.65514  0.93772  1.0000
  S   S37       1.0  0.11682  0.60375  0.92033  1.0000
  S   S38       1.0  0.06679  0.67773  0.95235  1.0000
  Fe  Fe18      1.0  0.17979  0.66752  0.93894  1.0000
  S   S39       1.0  0.18913  0.61615  0.92126  1.0000
  C   C126      1.0  0.26151  0.74472  0.97235  1.0000
  Fe  Fe19      1.0  0.15120  0.62399  0.88429  1.0000
  S   S40       1.0  0.14694  0.60366  0.83053  1.0000
  Fe  Fe20      1.0  0.15388  0.60022  0.95834  1.0000
  H   H157      1.0  0.18202  0.86873  0.92176  1.0000
  S   S41       1.0  0.14366  0.67598  0.89977  1.0000
  S   S42       1.0  0.14682  0.65119  0.97785  1.0000
  C   C127      1.0  0.03054  0.66191  0.94479  1.0000
  H   H158      1.0  0.15771  0.53558  0.79217  1.0000
  C   C128      1.0  0.02600  0.63161  0.92966  1.0000
  H   H159      1.0  0.25276  0.69031  0.53908  1.0000
  H   H160      1.0  0.04483  0.61800  0.92030  1.0000
  H   H161      1.0  0.20351  0.56055  0.81395  1.0000
  H   H162      1.0  0.06522  0.60370  0.97544  1.0000
  C   C129      1.0  0.17395  0.52419  0.50388  1.0000
  C   C130      1.0  0.21280  0.51841  0.66724  1.0000
  C   C131      1.0  0.20970  0.86872  0.96627  1.0000
  H   H163      1.0  0.11316  0.53372  0.54207  1.0000
  C   C132      1.0  0.17183  0.53660  0.74017  1.0000
  C   C133      1.0  0.02727  0.64140  0.57669  1.0000
  H   H164      1.0  0.26784  0.74867  0.94638  1.0000
  C   C134      1.0  0.02560  0.67220  0.59147  1.0000
  C   C135      1.0  0.19855  0.80190  0.96829  1.0000
  H   H165      1.0  0.04584  0.68498  0.59797  1.0000
  C   C136      1.0  0.16553  0.64586  0.72444  1.0000
  C   C137      1.0  0.17882  0.65992  0.75308  1.0000
  C   C138      1.0  0.17255  0.64822  0.78582  1.0000
  C   C139      1.0  0.15298  0.62211  0.79034  1.0000
  C   C140      1.0  0.13931  0.60846  0.76170  1.0000
  C   C141      1.0  0.14548  0.62021  0.72898  1.0000
  H   H166      1.0  0.19429  0.67983  0.74999  1.0000
  H   H167      1.0  0.18335  0.65893  0.80750  1.0000
  H   H168      1.0  0.12400  0.58841  0.76486  1.0000
  H   H169      1.0  0.13474  0.60937  0.70737  1.0000
  C   C142      1.0  0.17650  0.51198  0.53669  1.0000
  H   H170      1.0  0.27674  0.83548  0.65465  1.0000
  H   H171      1.0  0.20997  0.49440  0.67984  1.0000
  H   H172      1.0  0.15859  0.52943  0.64159  1.0000
  H   H173      1.0  0.06508  0.55342  0.56386  1.0000
  H   H174      1.0  0.23911  0.56640  0.71451  1.0000
  H   H175      1.0  0.28239  0.84472  0.59336  1.0000
  H   H176      1.0  0.14315  0.54819  0.67810  1.0000
  C   C143      1.0  0.25199  0.71281  0.52497  1.0000
  C   C144      1.0  0.16074  0.53100  0.66954  1.0000
  H   H177      1.0  0.01867  0.52398  0.55063  1.0000
  S   S43       1.0  0.21828  0.70457  0.94538  1.0000
  H   H178      1.0  0.28061  0.86124  0.98539  1.0000
  H   H179      1.0  0.31614  0.68227  0.93588  1.0000
  H   H180      1.0  0.19281  0.57203  0.63519  1.0000
  H   H181      1.0  0.08078  0.56471  0.98619  1.0000
  H   H182      1.0  0.25785  0.80788  0.55283  1.0000
  H   H183      1.0  0.21040  0.51463  0.63951  1.0000
  C   C145      1.0  0.09290  0.52049  0.53616  1.0000
  C   C146      1.0  0.23748  0.72380  0.97956  1.0000
  C   C147      1.0  0.26914  0.82450  0.60251  1.0000
  C   C148      1.0  0.22441  0.72593  0.51562  1.0000
  C   C149      1.0  0.21656  0.81621  0.99288  1.0000
  H   H184      1.0  0.00027  0.67464  0.78629  1.0000
  C   C150      1.0  0.22417  0.56422  0.76517  1.0000
  H   H185      1.0  0.21355  0.89450  0.96360  1.0000
  C   C151      1.0  0.17558  0.54136  0.77480  1.0000
  H   H186      1.0  0.18065  0.59278  0.67253  1.0000
  C   C152      1.0  0.32412  0.95800  0.51110  1.0000
  H   H187      1.0  0.15569  0.51244  0.95123  1.0000
  N   N11       1.0  0.21825  0.74266  0.63931  1.0000
  C   C153      1.0  0.19344  0.75382  0.66100  1.0000
  C   C154      1.0  0.20518  0.72199  0.61246  1.0000
  C   C155      1.0  0.23842  0.72176  0.65960  1.0000
  C   C156      1.0  0.23498  0.77103  0.62621  1.0000
  C   C157      1.0  0.24918  0.79287  0.64877  1.0000
  C   C158      1.0  0.23819  0.77758  0.59122  1.0000
  C   C159      1.0  0.26597  0.81919  0.63699  1.0000
  C   C160      1.0  0.25525  0.80377  0.57970  1.0000
  C   C161      1.0  0.15515  0.50125  0.97591  1.0000
  H   H188      1.0  0.17987  0.73296  0.67044  1.0000
  H   H189      1.0  0.20135  0.76703  0.68367  1.0000
  H   H190      1.0  0.17821  0.77029  0.64682  1.0000
  H   H191      1.0  0.18876  0.73564  0.59680  1.0000
  H   H192      1.0  0.19302  0.70085  0.62325  1.0000
  H   H193      1.0  0.22256  0.71181  0.59555  1.0000
  H   H194      1.0  0.24691  0.73427  0.68243  1.0000
  H   H195      1.0  0.22690  0.69943  0.66875  1.0000
  H   H196      1.0  0.25793  0.71387  0.64442  1.0000
  H   H197      1.0  0.24753  0.78962  0.67572  1.0000
  H   H198      1.0  0.22784  0.76281  0.57214  1.0000
  H   H199      1.0  0.15578  0.50626  0.67940  1.0000
  C   C162      1.0  0.19159  0.85416  0.94185  1.0000
  C   C163      1.0  0.00071  0.62521  0.56828  1.0000
  H   H200      1.0  0.24416  0.57553  0.77499  1.0000
  H   H201      1.0  0.21906  0.58320  0.66641  1.0000
  C   C164      1.0  0.19611  0.57389  0.66290  1.0000
  C   C165      1.0  0.19428  0.54596  0.71684  1.0000
  C   C166      1.0  0.20147  0.55554  0.78721  1.0000
  H   H202      1.0  0.27583  0.65844  0.97008  1.0000
  N   N12       1.0  0.19082  0.54227  0.67990  1.0000
  C   C167      1.0  0.27874  0.72856  0.51548  1.0000
  H   H203      1.0  0.31433  0.96930  0.56307  1.0000
  H   H204      1.0  0.17224  0.80951  0.92377  1.0000
  H   H205      1.0  0.29985  0.71792  0.52260  1.0000
  C   C168      1.0  0.22086  0.55922  0.73053  1.0000
  H   H206      1.0  0.00172  0.60144  0.55675  1.0000
  H   H207      1.0  0.23607  0.52651  0.67164  1.0000
  H   H208      1.0  0.10218  0.60106  0.99135  1.0000
  C   C169      1.0  0.18603  0.82084  0.94288  1.0000
  C   C170      1.0  0.00563  0.67948  0.95611  1.0000
  H   H209      1.0  0.00885  0.70298  0.96774  1.0000
  C   C171      1.0  0.32016  0.97918  0.53868  1.0000
  C   C172      1.0  0.06582  0.53167  0.54851  1.0000
  H   H210      1.0  0.30367  0.97400  0.97742  1.0000
  C   C173      1.0  0.03970  0.51496  0.54103  1.0000
  C   C174      1.0  0.31705  0.68422  0.96310  1.0000
  H   H211      1.0  0.15079  0.52647  0.73238  1.0000
  C   C175      1.0  0.27762  0.76039  0.99830  1.0000
  H   H212      1.0  0.32135  0.93205  0.51433  1.0000
  C   C176      1.0  0.09401  0.49260  0.51609  1.0000
  H   H213      1.0  0.29607  0.77607  0.99197  1.0000
  C   C177      1.0  0.07950  0.59068  0.99391  1.0000
  H   H214      1.0  0.19459  0.77583  0.96868  1.0000
  C   C178      1.0  0.29437  0.67058  0.98232  1.0000
  C   C179      1.0  0.22254  0.85012  0.99284  1.0000
  C   C180      1.0  0.32234  0.98356  0.99148  1.0000
  C   C181      1.0  0.04055  0.48696  0.52112  1.0000
  H   H215      1.0  0.25229  0.91094  0.99506  1.0000
  H   H216      1.0  0.17312  0.55020  0.49981  1.0000
  H   H217      1.0  0.34002  0.01437  0.45114  1.0000
  C   C182      1.0  0.55645  0.02737  0.00849  1.0000
  H   H218      1.0  0.38871  0.01835  0.04195  1.0000
  H   H219      1.0  0.39610  0.02807  0.48680  1.0000
  C   C183      1.0  0.37025  0.00865  0.02764  1.0000
  H   H220      1.0  0.60565  0.25059  0.48075  1.0000
  C   C184      1.0  0.58194  0.00876  0.01374  1.0000
  C   C185      1.0  0.66453  0.26442  0.46781  1.0000
  H   H221      1.0  0.43406  0.04099  0.48203  1.0000
  H   H222      1.0  0.60366  0.01952  0.00931  1.0000
  H   H223      1.0  0.64912  0.25042  0.45280  1.0000
  H   H224      1.0  0.50875  0.02855  0.01060  1.0000
  H   H225      1.0  0.64135  0.20544  0.48768  1.0000
  C   C186      1.0  0.35731  0.02762  0.00195  1.0000
  H   H226      1.0  0.34695  0.12220  0.03166  1.0000
  C   C187      1.0  0.52854  0.01387  0.01455  1.0000
  H   H227      1.0  0.33497  0.14107  0.06953  1.0000
  H   H228      1.0  0.55838  0.05241  0.99992  1.0000
  C   C188      1.0  0.33466  0.00440  0.47564  1.0000
  Fe  Fe21      1.0  0.39403  0.12839  0.56855  1.0000
  S   S44       1.0  0.37392  0.09848  0.60998  1.0000
  S   S45       1.0  0.44151  0.11064  0.56011  1.0000
  C   C189      1.0  0.64521  0.14485  0.74283  1.0000
  H   H229      1.0  0.62105  0.18236  0.76897  1.0000
  H   H230      1.0  0.50081  0.08607  0.56443  1.0000
  S   S46       1.0  0.37318  0.17457  0.58723  1.0000
  S   S47       1.0  0.35670  0.11895  0.53172  1.0000
  Fe  Fe22      1.0  0.39723  0.16196  0.92276  1.0000
  S   S48       1.0  0.39343  0.10966  0.90779  1.0000
  S   S49       1.0  0.44208  0.18784  0.91870  1.0000
  C   C190      1.0  0.64216  0.21176  0.51484  1.0000
  H   H231      1.0  0.61908  0.23885  0.57003  1.0000
  C   C191      1.0  0.52267  0.16403  0.71860  1.0000
  H   H232      1.0  0.45998  0.00099  0.56191  1.0000
  S   S50       1.0  0.36947  0.15642  0.96963  1.0000
  Fe  Fe23      1.0  0.60979  0.15370  0.58128  1.0000
  S   S51       1.0  0.61045  0.11312  0.61888  1.0000
  S   S52       1.0  0.56826  0.18054  0.56351  1.0000
  H   H233      1.0  0.60368  0.09011  0.75012  1.0000
  H   H234      1.0  0.35801  0.17028  0.80275  1.0000
  S   S53       1.0  0.64060  0.18448  0.61208  1.0000
  S   S54       1.0  0.64700  0.13388  0.54904  1.0000
  Fe  Fe24      1.0  0.61346  0.13416  0.95448  1.0000
  S   S55       1.0  0.63715  0.08976  0.93525  1.0000
  S   S56       1.0  0.56460  0.12226  0.96448  1.0000
  C   C192      1.0  0.63792  0.25209  0.55791  1.0000
  C   C193      1.0  0.45054  0.10385  0.65866  1.0000
  C   C194      1.0  0.65381  0.01572  0.54405  1.0000
  S   S57       1.0  0.63725  0.16842  0.91912  1.0000
  C   C195      1.0  0.58117  0.06624  0.87037  1.0000
  C   C196      1.0  0.58372  0.09138  0.76542  1.0000
  H   H235      1.0  0.41153  0.05635  0.51580  1.0000
  H   H236      1.0  0.60800  0.09046  0.81135  1.0000
  H   H237      1.0  0.60209  0.12578  0.85798  1.0000
  H   H238      1.0  0.60552  0.28375  0.51023  1.0000
  C   C197      1.0  0.47609  0.16908  0.93082  1.0000
  C   C198      1.0  0.50329  0.18447  0.92327  1.0000
  C   C199      1.0  0.53067  0.17057  0.93323  1.0000
  C   C200      1.0  0.53104  0.14131  0.95129  1.0000
  C   C201      1.0  0.50389  0.12583  0.95854  1.0000
  C   C202      1.0  0.47660  0.13949  0.94823  1.0000
  C   C203      1.0  0.49281  0.15559  0.71325  1.0000
  H   H239      1.0  0.55136  0.18278  0.92750  1.0000
  H   H240      1.0  0.47072  0.02842  0.52812  1.0000
  H   H241      1.0  0.45588  0.12741  0.95427  1.0000
  C   C204      1.0  0.48239  0.14646  0.68074  1.0000
  C   C205      1.0  0.43742  0.16011  0.65009  1.0000
  C   C206      1.0  0.53322  0.15548  0.65980  1.0000
  C   C207      1.0  0.47624  0.13106  0.56162  1.0000
  C   C208      1.0  0.50234  0.11231  0.56380  1.0000
  C   C209      1.0  0.53054  0.12720  0.56515  1.0000
  C   C210      1.0  0.53301  0.16106  0.56360  1.0000
  C   C211      1.0  0.50691  0.17986  0.56144  1.0000
  C   C212      1.0  0.47861  0.16498  0.56075  1.0000
  H   H242      1.0  0.42736  0.09493  0.65505  1.0000
  H   H243      1.0  0.63614  0.16406  0.82625  1.0000
  H   H244      1.0  0.66395  0.20314  0.52485  1.0000
  H   H245      1.0  0.42983  0.16017  0.71629  1.0000
  H   H246      1.0  0.43860  0.18540  0.65991  1.0000
  H   H247      1.0  0.49711  0.14111  0.62873  1.0000
  H   H248      1.0  0.44094  0.11830  0.72370  1.0000
  H   H249      1.0  0.46248  0.08588  0.67474  1.0000
  C   C213      1.0  0.43220  0.13571  0.70462  1.0000
  H   H250      1.0  0.51160  0.09779  0.81818  1.0000
  N   N13       1.0  0.45118  0.13675  0.67399  1.0000
  H   H251      1.0  0.44835  0.15983  0.62499  1.0000
  C   C214      1.0  0.50348  0.14708  0.65418  1.0000
  H   H252      1.0  0.56605  0.17007  0.69623  1.0000
  N   N14       1.0  0.63831  0.24703  0.52087  1.0000
  H   H253      1.0  0.50310  0.20742  0.90991  1.0000
  C   C215      1.0  0.64372  0.15092  0.80435  1.0000
  Fe  Fe25      1.0  0.66290  0.12442  0.90255  1.0000
  H   H254      1.0  0.53031  0.17079  0.74356  1.0000
  S   S58       1.0  0.35789  0.17871  0.89145  1.0000
  H   H255      1.0  0.54890  0.15569  0.63897  1.0000
  H   H256      1.0  0.55042  0.11242  0.56667  1.0000
  H   H257      1.0  0.52117  0.07188  0.86963  1.0000
  S   S59       1.0  0.65042  0.03949  0.58133  1.0000
  H   H258      1.0  0.53767  0.09249  0.90433  1.0000
  C   C216      1.0  0.53450  0.09367  0.87653  1.0000
  C   C217      1.0  0.55600  0.09310  0.74987  1.0000
  C   C218      1.0  0.45181  0.01966  0.54380  1.0000
  H   H259      1.0  0.33731  0.07725  0.76002  1.0000
  C   C219      1.0  0.53035  0.09513  0.76942  1.0000
  H   H260      1.0  0.56692  0.14666  0.85904  1.0000
  H   H261      1.0  0.58110  0.12691  0.89602  1.0000
  H   H262      1.0  0.44453  0.04081  0.55923  1.0000
  C   C220      1.0  0.63525  0.16129  0.77180  1.0000
  C   C221      1.0  0.35427  0.15504  0.78096  1.0000
  H   H263      1.0  0.45873  0.17970  0.55886  1.0000
  N   N15       1.0  0.56343  0.09450  0.85843  1.0000
  H   H264      1.0  0.50390  0.10315  0.97241  1.0000
  H   H265      1.0  0.50880  0.09644  0.75720  1.0000
  C   C222      1.0  0.56032  0.09361  0.82129  1.0000
  Fe  Fe26      1.0  0.36310  0.10448  0.95258  1.0000
  C   C223      1.0  0.53231  0.09567  0.80461  1.0000
  H   H266      1.0  0.65717  0.21185  0.86396  1.0000
  H   H267      1.0  0.57153  0.04297  0.86116  1.0000
  H   H268      1.0  0.52107  0.11601  0.87183  1.0000
  C   C224      1.0  0.57908  0.12477  0.86819  1.0000
  S   S60       1.0  0.64632  0.14251  0.99656  1.0000
  Fe  Fe27      1.0  0.35067  0.14368  0.62667  1.0000
  C   C225      1.0  0.66220  0.12380  0.80830  1.0000
  H   H269      1.0  0.46087  0.10334  0.63321  1.0000
  C   C226      1.0  0.54286  0.16374  0.69199  1.0000
  C   C227      1.0  0.35083  0.14899  0.71954  1.0000
  Fe  Fe28      1.0  0.33584  0.09093  0.57409  1.0000
  H   H270      1.0  0.50860  0.20607  0.56017  1.0000
  Fe  Fe29      1.0  0.64986  0.09473  0.58897  1.0000
  H   H271      1.0  0.55450  0.09305  0.72259  1.0000
  H   H272      1.0  0.60479  0.06737  0.86207  1.0000
  H   H273      1.0  0.58204  0.06505  0.89843  1.0000
  H   H274      1.0  0.41352  0.15440  0.64560  1.0000
  C   C228      1.0  0.58594  0.09158  0.80055  1.0000
  Fe  Fe30      1.0  0.64363  0.14264  0.64833  1.0000
  S   S61       1.0  0.63383  0.15925  0.70252  1.0000
  H   H275      1.0  0.40909  0.12766  0.69865  1.0000
  Fe  Fe31      1.0  0.35288  0.12582  0.87857  1.0000
  C   C229      1.0  0.66360  0.11770  0.74682  1.0000
  S   S62       1.0  0.35284  0.16727  0.67885  1.0000
  H   H276      1.0  0.47837  0.15651  0.73493  1.0000
  H   H277      1.0  0.65925  0.01967  0.96601  1.0000
  H   H278      1.0  0.36093  0.19390  0.74510  1.0000
  C   C230      1.0  0.66408  0.00616  0.98878  1.0000
  S   S63       1.0  0.34408  0.10410  0.82625  1.0000
  N   N16       1.0  0.42715  0.00701  0.52258  1.0000
  H   H279      1.0  0.39483  0.01824  0.56117  1.0000
  C   C231      1.0  0.66230  0.26520  0.50349  1.0000
  H   H280      1.0  0.63528  0.27822  0.56436  1.0000
  H   H281      1.0  0.38271  0.98884  0.53138  1.0000
  C   C232      1.0  0.40255  0.99747  0.54542  1.0000
  C   C233      1.0  0.35587  0.16836  0.74818  1.0000
  C   C234      1.0  0.34266  0.10272  0.75681  1.0000
  H   H282      1.0  0.59028  0.24464  0.52143  1.0000
  H   H283      1.0  0.65863  0.24265  0.57002  1.0000
  H   H284      1.0  0.62432  0.19734  0.52737  1.0000
  C   C235      1.0  0.60876  0.25705  0.50767  1.0000
  C   C236      1.0  0.34445  0.11598  0.72402  1.0000
  C   C237      1.0  0.34742  0.12212  0.78553  1.0000
  H   H285      1.0  0.34048  0.10070  0.70233  1.0000
  S   S64       1.0  0.37102  0.06763  0.99506  1.0000
  H   H286      1.0  0.33455  0.21624  0.63278  1.0000
  C   C238      1.0  0.41678  0.03416  0.50081  1.0000
  H   H287      1.0  0.33419  0.05140  0.50004  1.0000
  Fe  Fe32      1.0  0.39174  0.84273  0.42118  1.0000
  S   S65       1.0  0.36749  0.87960  0.38969  1.0000
  S   S66       1.0  0.44014  0.84025  0.40359  1.0000
  H   H288      1.0  0.36493  0.70050  0.07871  1.0000
  C   C239      1.0  0.47607  0.83531  0.46083  1.0000
  C   C240      1.0  0.34136  0.70507  0.01424  1.0000
  C   C241      1.0  0.53483  0.92916  0.07837  1.0000
  S   S67       1.0  0.35949  0.80309  0.40759  1.0000
  H   H289      1.0  0.55532  0.85074  0.33041  1.0000
  S   S68       1.0  0.36472  0.80718  0.10764  1.0000
  N   N17       1.0  0.54824  0.92829  0.04428  1.0000
  S   S69       1.0  0.35112  0.83898  0.03318  1.0000
  H   H290      1.0  0.48620  0.89905  0.27498  1.0000
  Fe  Fe33      1.0  0.39041  0.83501  0.06845  1.0000
  S   S70       1.0  0.43451  0.81610  0.04803  1.0000
  S   S71       1.0  0.38254  0.88407  0.09141  1.0000
  Fe  Fe34      1.0  0.60974  0.84282  0.45407  1.0000
  S   S72       1.0  0.61400  0.88131  0.41418  1.0000
  S   S73       1.0  0.56538  0.83249  0.47963  1.0000
  H   H291      1.0  0.58808  0.90846  0.02199  1.0000
  H   H292      1.0  0.54855  0.94415  0.09580  1.0000
  C   C242      1.0  0.36405  0.72524  0.06736  1.0000
  S   S74       1.0  0.63678  0.80570  0.42601  1.0000
  C   C243      1.0  0.47120  0.93689  0.48321  1.0000
  S   S75       1.0  0.64202  0.80451  0.12705  1.0000
  H   H293      1.0  0.50010  0.84337  0.38024  1.0000
  S   S76       1.0  0.62826  0.83316  0.05206  1.0000
  Fe  Fe35      1.0  0.60708  0.83669  0.10303  1.0000
  S   S77       1.0  0.55900  0.84158  0.12111  1.0000
  S   S78       1.0  0.63071  0.88329  0.11527  1.0000
  H   H294      1.0  0.39248  0.97425  0.47674  1.0000
  C   C244      1.0  0.36490  0.75789  0.01744  1.0000
  H   H295      1.0  0.37029  0.89740  0.25057  1.0000
  S   S79       1.0  0.36702  0.85531  0.46893  1.0000
  Fe  Fe36      1.0  0.34106  0.89051  0.43652  1.0000
  H   H296      1.0  0.62032  0.89639  0.20657  1.0000
  C   C245      1.0  0.46911  0.82463  0.06784  1.0000
  C   C246      1.0  0.47062  0.84056  0.09889  1.0000
  C   C247      1.0  0.49837  0.84578  0.11455  1.0000
  C   C248      1.0  0.52493  0.83531  0.09936  1.0000
  C   C249      1.0  0.52355  0.82010  0.06793  1.0000
  C   C250      1.0  0.49574  0.81467  0.05235  1.0000
  H   H297      1.0  0.45034  0.84849  0.11101  1.0000
  H   H298      1.0  0.49917  0.85795  0.13862  1.0000
  H   H299      1.0  0.54379  0.81188  0.05596  1.0000
  H   H300      1.0  0.49480  0.80234  0.02833  1.0000
  H   H301      1.0  0.52663  0.88339  0.02999  1.0000
  H   H302      1.0  0.49311  0.92584  0.48467  1.0000
  C   C251      1.0  0.35958  0.97717  0.03497  1.0000
  C   C252      1.0  0.47448  0.83870  0.42580  1.0000
  C   C253      1.0  0.50106  0.84082  0.40728  1.0000
  C   C254      1.0  0.52897  0.83955  0.42346  1.0000
  C   C255      1.0  0.53063  0.83570  0.45843  1.0000
  H   H303      1.0  0.35250  0.87931  0.30686  1.0000
  C   C256      1.0  0.50844  0.88884  0.27594  1.0000
  C   C257      1.0  0.39497  0.70952  0.02111  1.0000
  H   H304      1.0  0.54922  0.84110  0.40888  1.0000
  H   H305      1.0  0.59900  0.84486  0.18583  1.0000
  H   H306      1.0  0.34331  0.73758  0.07588  1.0000
  C   C258      1.0  0.44990  0.92357  0.46174  1.0000
  C   C259      1.0  0.57687  0.91038  0.04692  1.0000
  H   H307      1.0  0.56255  0.83220  0.19863  1.0000
  C   C260      1.0  0.42172  0.93743  0.45973  1.0000
  H   H308      1.0  0.59314  0.82991  0.22756  1.0000
  N   N18       1.0  0.42724  0.81653  0.30102  1.0000
  C   C261      1.0  0.43999  0.79735  0.32935  1.0000
  C   C262      1.0  0.42020  0.84940  0.31398  1.0000
  C   C263      1.0  0.39911  0.80027  0.29090  1.0000
  C   C264      1.0  0.44735  0.81943  0.27162  1.0000
  C   C265      1.0  0.47708  0.80753  0.27185  1.0000
  C   C266      1.0  0.43742  0.83479  0.24150  1.0000
  C   C267      1.0  0.49513  0.80983  0.24324  1.0000
  C   C268      1.0  0.45557  0.83678  0.21301  1.0000
  C   C269      1.0  0.48430  0.82411  0.21379  1.0000
  H   H309      1.0  0.45995  0.80937  0.34040  1.0000
  H   H310      1.0  0.42391  0.79496  0.35060  1.0000
  H   H311      1.0  0.44594  0.77226  0.32146  1.0000
  H   H312      1.0  0.44059  0.86207  0.32300  1.0000
  H   H313      1.0  0.40462  0.84822  0.33576  1.0000
  H   H314      1.0  0.40949  0.86507  0.29463  1.0000
  H   H315      1.0  0.40344  0.77560  0.28059  1.0000
  H   H316      1.0  0.38343  0.79777  0.31251  1.0000
  H   H317      1.0  0.38674  0.81404  0.27134  1.0000
  H   H318      1.0  0.48693  0.79627  0.29380  1.0000
  H   H319      1.0  0.41536  0.84521  0.23952  1.0000
  H   H320      1.0  0.51763  0.80036  0.24389  1.0000
  H   H321      1.0  0.44705  0.84797  0.19011  1.0000
  H   H322      1.0  0.49818  0.82530  0.19151  1.0000
  H   H323      1.0  0.58745  0.85168  0.28123  1.0000
  Fe  Fe37      1.0  0.64363  0.84537  0.38744  1.0000
  H   H324      1.0  0.50534  0.91873  0.02107  1.0000
  Fe  Fe38      1.0  0.65413  0.87800  0.06587  1.0000
  C   C270      1.0  0.34890  0.85863  0.22326  1.0000
  H   H325      1.0  0.54346  0.88438  0.17933  1.0000
  Fe  Fe39      1.0  0.35468  0.85647  0.12950  1.0000
  Fe  Fe40      1.0  0.65483  0.89631  0.44361  1.0000
  H   H326      1.0  0.34297  0.76919  0.02299  1.0000
  H   H327      1.0  0.55861  0.92207  0.19591  1.0000
  C   C271      1.0  0.57969  0.97655  0.02495  1.0000
  H   H328      1.0  0.51726  0.90127  0.22526  1.0000
  H   H329      1.0  0.57982  0.89709  0.16794  1.0000
  H   H330      1.0  0.36978  0.96292  0.05480  1.0000
  C   C272      1.0  0.50404  0.83364  0.47700  1.0000
  Fe  Fe41      1.0  0.33416  0.84086  0.37857  1.0000
  S   S80       1.0  0.64940  0.85949  0.48496  1.0000
  H   H331      1.0  0.59250  0.92229  0.06484  1.0000
  C   C273      1.0  0.51875  0.87486  0.30577  1.0000
  H   H332      1.0  0.50386  0.97262  0.03075  1.0000
  C   C274      1.0  0.52849  0.90925  0.02169  1.0000
  H   H333      1.0  0.61671  0.88171  0.24839  1.0000
  H   H334      1.0  0.50474  0.87455  0.32797  1.0000
  H   H335      1.0  0.39610  0.68355  0.02899  1.0000
  C   C275      1.0  0.64554  0.81818  0.26557  1.0000
  H   H336      1.0  0.60041  0.91991  0.23747  1.0000
  N   N19       1.0  0.57630  0.87843  0.21867  1.0000
  C   C276      1.0  0.60453  0.89481  0.22818  1.0000
  C   C277      1.0  0.58304  0.84492  0.20732  1.0000
  C   C278      1.0  0.56382  0.89640  0.18936  1.0000
  C   C279      1.0  0.55607  0.87711  0.24809  1.0000
  C   C280      1.0  0.52669  0.89001  0.24742  1.0000
  C   C281      1.0  0.56555  0.86238  0.27873  1.0000
  H   H337      1.0  0.60041  0.96372  0.02852  1.0000
  C   C282      1.0  0.54719  0.86150  0.30710  1.0000
  H   H338      1.0  0.38283  0.73940  0.07838  1.0000
  H   H339      1.0  0.45583  0.83362  0.47543  1.0000
  C   C283      1.0  0.34651  0.86567  0.28458  1.0000
  H   H340      1.0  0.45521  0.90244  0.44664  1.0000
  H   H341      1.0  0.53300  0.90434  0.08949  1.0000
  S   S81       1.0  0.36398  0.87165  0.18409  1.0000
  S   S82       1.0  0.63788  0.82591  0.33360  1.0000
  C   C284      1.0  0.55152  0.96199  0.03140  1.0000
  H   H342      1.0  0.40504  0.92699  0.44313  1.0000
  H   H343      1.0  0.63158  0.79695  0.26871  1.0000
  H   H344      1.0  0.57366  0.88506  0.05637  1.0000
  H   H345      1.0  0.38248  0.77319  0.02936  1.0000
  C   C285      1.0  0.35653  0.87589  0.25261  1.0000
  S   S83       1.0  0.33655  0.94549  0.44344  1.0000
  N   N20       1.0  0.36577  0.72396  0.03000  1.0000
  C   C286      1.0  0.66187  0.97444  0.48739  1.0000
  H   H346      1.0  0.41371  0.72272  0.03349  1.0000
  H   H347      1.0  0.64954  0.81208  0.21156  1.0000
  H   H348      1.0  0.51197  0.93949  0.07810  1.0000
  S   S84       1.0  0.65403  0.91294  0.02123  1.0000
  C   C287      1.0  0.33545  0.96449  0.01702  1.0000
  Fe  Fe42      1.0  0.34107  0.88612  0.05956  1.0000
  C   C288      1.0  0.41470  0.96461  0.47919  1.0000
  C   C289      1.0  0.66324  0.95488  0.02028  1.0000
  C   C290      1.0  0.65298  0.83706  0.29388  1.0000
  C   C291      1.0  0.65561  0.82673  0.23310  1.0000
  C   C292      1.0  0.52601  0.98175  0.02595  1.0000
  Fe  Fe43      1.0  0.66635  0.85123  0.13719  1.0000
  Fe  Fe44      1.0  0.66594  0.80511  0.07646  1.0000
  H   H349      1.0  0.39949  0.71065  0.99364  1.0000
  H   H350      1.0  0.53707  0.90936  0.99540  1.0000
  H   H351      1.0  0.64637  0.96104  0.96976  1.0000
  C   C293      1.0  0.34026  0.70116  0.97870  1.0000
  H   H352      1.0  0.50510  0.83061  0.50406  1.0000
  H   H353      1.0  0.40939  0.97733  0.56253  1.0000
  C   C294      1.0  0.64403  0.98319  0.54458  1.0000
  H   H354      1.0  0.48195  0.97313  0.51891  1.0000
  H   H355      1.0  0.63345  0.97374  0.56702  1.0000
  H   H356      1.0  0.35702  0.71179  0.96262  1.0000
  C   C295      1.0  0.65690  0.97287  0.99096  1.0000
  C   C296      1.0  0.46438  0.96414  0.50288  1.0000
  H   H357      1.0  0.36845  0.75963  0.98982  1.0000
  C   C297      1.0  0.64760  0.96282  0.51631  1.0000
  H   H358      1.0  0.63948  0.93808  0.51706  1.0000
  C   C298      1.0  0.43569  0.97878  0.50153  1.0000
  Fe  Fe45      1.0  0.88680  0.33013  0.44626  1.0000
  S   S85       1.0  0.87882  0.38043  0.42579  1.0000
  S   S86       1.0  0.93052  0.30592  0.46204  1.0000
  Fe  Fe46      1.0  0.82044  0.31140  0.44371  1.0000
  S   S87       1.0  0.80782  0.36024  0.42191  1.0000
  S   S88       1.0  0.78648  0.26957  0.44968  1.0000
  Fe  Fe47      1.0  0.84809  0.35587  0.38835  1.0000
  S   S89       1.0  0.84996  0.37815  0.33519  1.0000
  Fe  Fe48      1.0  0.83918  0.38185  0.46026  1.0000
  H   H359      1.0  0.84488  0.23960  0.44329  1.0000
  S   S90       1.0  0.85857  0.30538  0.40693  1.0000
  H   H360      1.0  0.69548  0.01546  0.06603  1.0000
  Fe  Fe49      1.0  0.83258  0.32296  0.06201  1.0000
  S   S91       1.0  0.80788  0.35554  0.09803  1.0000
  S   S92       1.0  0.81621  0.27830  0.03194  1.0000
  Fe  Fe50      1.0  0.89383  0.35264  0.08237  1.0000
  S   S93       1.0  0.87287  0.38567  0.12054  1.0000
  S   S94       1.0  0.94200  0.36206  0.06656  1.0000
  Fe  Fe51      1.0  0.84408  0.34331  0.13554  1.0000
  S   S95       1.0  0.83217  0.32038  0.18647  1.0000
  Fe  Fe52      1.0  0.83869  0.39566  0.08013  1.0000
  S   S96       1.0  0.82904  0.45004  0.07490  1.0000
  S   S97       1.0  0.86777  0.30926  0.10023  1.0000
  S   S98       1.0  0.86068  0.36410  0.04134  1.0000
  H   H361      1.0  0.77856  0.15883  0.47114  1.0000
  C   C299      1.0  0.86545  0.22753  0.45281  1.0000
  C   C300      1.0  0.99734  0.28231  0.00316  1.0000
  C   C301      1.0  0.90482  0.28127  0.02985  1.0000
  H   H362      1.0  0.78388  0.26645  0.18249  1.0000
  C   C302      1.0  0.78108  0.26334  0.01695  1.0000
  H   H363      1.0  0.91208  0.22269  0.49188  1.0000
  S   S99       1.0  0.68915  0.06309  0.01345  1.0000
  H   H364      1.0  0.74074  0.22065  0.45055  1.0000
  H   H365      1.0  0.81973  0.41968  0.38049  1.0000
  C   C303      1.0  0.84574  0.36098  0.29418  1.0000
  C   C304      1.0  0.83625  0.32896  0.28905  1.0000
  C   C305      1.0  0.83237  0.31694  0.25599  1.0000
  C   C306      1.0  0.83818  0.33659  0.22762  1.0000
  C   C307      1.0  0.84796  0.36850  0.23277  1.0000
  C   C308      1.0  0.85156  0.38061  0.26581  1.0000
  H   H366      1.0  0.83161  0.31355  0.31053  1.0000
  H   H367      1.0  0.82478  0.29224  0.25241  1.0000
  H   H368      1.0  0.85245  0.38398  0.21131  1.0000
  H   H369      1.0  0.85889  0.40541  0.26936  1.0000
  C   C309      1.0  0.75577  0.28305  0.01425  1.0000
  C   C310      1.0  0.72093  0.20905  0.07199  1.0000
  H   H370      1.0  0.87039  0.43371  0.37159  1.0000
  H   H371      1.0  0.80507  0.48396  0.34484  1.0000
  C   C311      1.0  0.86296  0.47308  0.48742  1.0000
  C   C312      1.0  0.74521  0.22686  0.47653  1.0000
  C   C313      1.0  0.68719  0.28099  0.45082  1.0000
  C   C314      1.0  0.73719  0.23330  0.08847  1.0000
  S   S100      1.0  0.82126  0.42320  0.49285  1.0000
  H   H372      1.0  0.75693  0.30821  0.02199  1.0000
  C   C315      1.0  0.82669  0.47468  0.03825  1.0000
  C   C316      1.0  0.97663  0.34386  0.07727  1.0000
  C   C317      1.0  0.97864  0.31274  0.09141  1.0000
  H   H373      1.0  0.79816  0.21508  0.00831  1.0000
  H   H374      1.0  0.95858  0.29969  0.09799  1.0000
  H   H375      1.0  0.90848  0.25653  0.04050  1.0000
  C   C318      1.0  0.96654  0.32144  0.45232  1.0000
  H   H376      1.0  0.77943  0.22363  0.17840  1.0000
  H   H377      1.0  0.70439  0.21558  0.05317  1.0000
  H   H378      1.0  0.95108  0.36472  0.42737  1.0000
  C   C319      1.0  0.94265  0.44816  0.02754  1.0000
  H   H379      1.0  0.68264  0.01629  0.46459  1.0000
  C   C320      1.0  0.74749  0.16776  0.10295  1.0000
  H   H380      1.0  0.77383  0.28881  0.09443  1.0000
  C   C321      1.0  0.81702  0.44222  0.39561  1.0000
  N   N21       1.0  0.83623  0.46894  0.38295  1.0000
  H   H381      1.0  0.73234  0.25802  0.08107  1.0000
  C   C322      1.0  0.96754  0.29186  0.00458  1.0000
  H   H382      1.0  0.88331  0.47451  0.37249  1.0000
  H   H383      1.0  0.82256  0.26475  0.13692  1.0000
  H   H384      1.0  0.68892  0.27951  0.42363  1.0000
  H   H385      1.0  0.86865  0.20431  0.43899  1.0000
  C   C323      1.0  0.97037  0.35089  0.43516  1.0000
  C   C324      1.0  0.81946  0.46190  0.00666  1.0000
  C   C325      1.0  0.76899  0.28417  0.12157  1.0000
  H   H386      1.0  0.81570  0.43605  0.00400  1.0000
  H   H387      1.0  0.96258  0.31417  0.01763  1.0000
  C   C326      1.0  0.76370  0.19180  0.11984  1.0000
  H   H388      1.0  0.81336  0.24676  0.09694  1.0000
  H   H389      1.0  0.87521  0.45732  0.47075  1.0000
  H   H390      1.0  0.89629  0.44602  0.04070  1.0000
  C   C327      1.0  0.70825  0.29877  0.46877  1.0000
  H   H391      1.0  0.82273  0.43567  0.42207  1.0000
  H   H392      1.0  0.71369  0.15772  0.06583  1.0000
  H   H393      1.0  0.78220  0.30220  0.13627  1.0000
  C   C328      1.0  0.79461  0.16834  0.48900  1.0000
  C   C329      1.0  0.67813  0.02170  0.01577  1.0000
  H   H394      1.0  0.81946  0.19169  0.45086  1.0000
  N   N22       1.0  0.77664  0.25031  0.13134  1.0000
  H   H395      1.0  0.79953  0.48306  0.43896  1.0000
  H   H396      1.0  0.78002  0.18389  0.13811  1.0000
  C   C330      1.0  0.76689  0.25065  0.48381  1.0000
  H   H397      1.0  0.74520  0.28976  0.12660  1.0000
  C   C331      1.0  0.75908  0.22537  0.11313  1.0000
  N   N23       1.0  0.86411  0.22226  0.48983  1.0000
  H   H398      1.0  0.74756  0.24971  0.17431  1.0000
  C   C332      1.0  0.77161  0.24728  0.16817  1.0000
  H   H399      1.0  0.88431  0.24379  0.44562  1.0000
  H   H400      1.0  0.81720  0.22195  0.13393  1.0000
  C   C333      1.0  0.82824  0.47465  0.34715  1.0000
  C   C334      1.0  0.72615  0.17638  0.07906  1.0000
  C   C335      1.0  0.68451  0.00366  0.04508  1.0000
  H   H401      1.0  0.75148  0.14225  0.10829  1.0000
  S   S101      1.0  0.84930  0.33331  0.48398  1.0000
  H   H402      1.0  0.91801  0.29858  0.04538  1.0000
  H   H403      1.0  0.82972  0.45174  0.33215  1.0000
  C   C336      1.0  0.86750  0.45745  0.38464  1.0000
  C   C337      1.0  0.80879  0.24564  0.12449  1.0000
  C   C338      1.0  0.90429  0.47980  0.00002  1.0000
  H   H404      1.0  0.79302  0.44865  0.39428  1.0000
  H   H405      1.0  0.87472  0.45410  0.41124  1.0000
  H   H406      1.0  0.72636  0.31076  0.45563  1.0000
  C   C339      1.0  0.91288  0.45697  0.02430  1.0000
  H   H407      1.0  0.71293  0.19261  0.49626  1.0000
  H   H408      1.0  0.89548  0.18285  0.48967  1.0000
  C   C340      1.0  0.72901  0.27043  0.00064  1.0000
  H   H409      1.0  0.94917  0.43026  0.04629  1.0000
  C   C341      1.0  0.81841  0.18736  0.47767  1.0000
  H   H410      1.0  0.98709  0.45522  0.00925  1.0000
  C   C342      1.0  0.67163  0.00698  0.48681  1.0000
  C   C343      1.0  0.99200  0.30381  0.46221  1.0000
  H   H411      1.0  0.98933  0.28103  0.47553  1.0000
  C   C344      1.0  0.77889  0.23072  0.00634  1.0000
  H   H412      1.0  0.88095  0.28748  0.03354  1.0000
  C   C345      1.0  0.96395  0.46230  0.00663  1.0000
  C   C346      1.0  0.99923  0.36249  0.42801  1.0000
  H   H413      1.0  0.87908  0.27157  0.49723  1.0000
  H   H414      1.0  0.83929  0.26570  0.49936  1.0000
  C   C347      1.0  0.71164  0.18135  0.77397  1.0000
  S   S102      1.0  0.68345  0.12192  0.62119  1.0000
  S   S103      1.0  0.71599  0.19886  0.57055  1.0000
  H   H415      1.0  0.71779  0.15816  0.76303  1.0000
  H   H416      1.0  0.91741  0.31948  0.95541  1.0000
  C   C348      1.0  0.77230  0.25836  0.51760  1.0000
  S   S104      1.0  0.69954  0.13052  0.94121  1.0000
  H   H417      1.0  0.68406  0.25472  0.75074  1.0000
  C   C349      1.0  0.69419  0.24049  0.80192  1.0000
  H   H418      1.0  0.78861  0.27671  0.52382  1.0000
  S   S105      1.0  0.69241  0.22361  0.97231  1.0000
  C   C350      1.0  0.70094  0.20603  0.75318  1.0000
  H   H419      1.0  0.93750  0.22725  0.96226  1.0000
  H   H420      1.0  0.89674  0.26160  0.94759  1.0000
  H   H421      1.0  0.80123  0.47409  0.53653  1.0000
  C   C351      1.0  0.67396  0.23001  0.87237  1.0000
  C   C352      1.0  0.86122  0.25464  0.50576  1.0000
  C   C353      1.0  0.69245  0.23564  0.76709  1.0000
  H   H422      1.0  0.88500  0.32384  0.98164  1.0000
  C   C354      1.0  0.75200  0.21796  0.99321  1.0000
  H   H423      1.0  0.89189  0.23632  0.98479  1.0000
  H   H424      1.0  0.89481  0.20560  0.52823  1.0000
  C   C355      1.0  0.70404  0.21545  0.82399  1.0000
  H   H425      1.0  0.72394  0.31286  0.51764  1.0000
  C   C356      1.0  0.73481  0.21851  0.53630  1.0000
  H   H426      1.0  0.68543  0.28423  0.54821  1.0000
  H   H427      1.0  0.76103  0.24844  0.56954  1.0000
  H   H428      1.0  0.71277  0.19601  0.90812  1.0000
  H   H429      1.0  0.98955  0.21182  0.95995  1.0000
  H   H430      1.0  0.67267  0.23174  0.90039  1.0000
  H   H431      1.0  0.69874  0.20191  0.72628  1.0000
  H   H432      1.0  0.68621  0.08619  0.78211  1.0000
  C   C357      1.0  0.68441  0.28326  0.52107  1.0000
  C   C358      1.0  0.98327  0.23426  0.97234  1.0000
  C   C359      1.0  0.72683  0.23781  0.98998  1.0000
  H   H433      1.0  0.73635  0.18377  0.87445  1.0000
  H   H434      1.0  0.72614  0.25129  0.89738  1.0000
  C   C360      1.0  0.75645  0.24232  0.54355  1.0000
  C   C361      1.0  0.72520  0.24721  0.86958  1.0000
  H   H435      1.0  0.90130  0.48218  0.91765  1.0000
  N   N24       1.0  0.70421  0.22069  0.86092  1.0000
  H   H436      1.0  0.71871  0.27077  0.85797  1.0000
  H   H437      1.0  0.69796  0.17066  0.87557  1.0000
  H   H438      1.0  0.80974  0.47276  0.95452  1.0000
  C   C362      1.0  0.83676  0.46189  0.50243  1.0000
  H   H439      1.0  0.86835  0.27032  0.97796  1.0000
  H   H440      1.0  0.86285  0.25367  0.53364  1.0000
  H   H441      1.0  0.75084  0.19282  0.98537  1.0000
  H   H442      1.0  0.84909  0.20458  0.55444  1.0000
  C   C363      1.0  0.94455  0.27275  0.99015  1.0000
  N   N25       1.0  0.91304  0.28270  0.99379  1.0000
  C   C364      1.0  0.71324  0.19145  0.88045  1.0000
  H   H443      1.0  0.74812  0.24136  0.86091  1.0000
  C   C365      1.0  0.95558  0.48529  0.98229  1.0000
  Fe  Fe53      1.0  0.67817  0.16245  0.58271  1.0000
  C   C366      1.0  0.71310  0.18573  0.80886  1.0000
  H   H444      1.0  0.72052  0.16499  0.82337  1.0000
  C   C367      1.0  0.81601  0.48280  0.97868  1.0000
  C   C368      1.0  0.90889  0.31657  0.98154  1.0000
  C   C369      1.0  0.89179  0.26173  0.97504  1.0000
  C   C370      1.0  0.67197  0.10724  0.77937  1.0000
  H   H445      1.0  0.67517  0.05248  0.51402  1.0000
  C   C371      1.0  0.95332  0.24352  0.97383  1.0000
  H   H446      1.0  0.67136  0.10475  0.72483  1.0000
  H   H447      1.0  0.68726  0.26384  0.81150  1.0000
  H   H448      1.0  0.80655  0.17232  0.57318  1.0000
  C   C372      1.0  0.82147  0.48255  0.52469  1.0000
  H   H449      1.0  0.92039  0.33476  0.99771  1.0000
  S   S106      1.0  0.67380  0.10943  0.84855  1.0000
  C   C373      1.0  0.81034  0.17604  0.54648  1.0000
  Fe  Fe54      1.0  0.67279  0.17298  0.95990  1.0000
  C   C374      1.0  0.83447  0.19468  0.53544  1.0000
  H   H450      1.0  0.77122  0.14937  0.53203  1.0000
  C   C375      1.0  0.79043  0.16294  0.52330  1.0000
  H   H451      1.0  0.66689  0.25412  0.86261  1.0000
  C   C376      1.0  0.70684  0.29991  0.50377  1.0000
  C   C377      1.0  0.72922  0.21098  0.50248  1.0000
  Fe  Fe55      1.0  0.67098  0.09962  0.97534  1.0000
  C   C378      1.0  0.66737  0.02761  0.51480  1.0000
  H   H452      1.0  0.70979  0.28613  0.99833  1.0000
  C   C379      1.0  0.89282  0.20765  0.50041  1.0000
  C   C380      1.0  0.83910  0.20123  0.50067  1.0000
  H   H453      1.0  0.68540  0.73591  0.37851  1.0000
  S   S107      1.0  0.68485  0.86369  0.41312  1.0000
  H   H454      1.0  0.81719  0.60510  0.04283  1.0000
  C   C381      1.0  0.77309  0.74453  0.03331  1.0000
  C   C382      1.0  0.81180  0.53168  0.44842  1.0000
  C   C383      1.0  0.84936  0.55564  0.41297  1.0000
  H   H455      1.0  0.72736  0.81278  0.38838  1.0000
  C   C384      1.0  0.72184  0.80628  0.36183  1.0000
  S   S108      1.0  0.68330  0.76123  0.04560  1.0000
  S   S109      1.0  0.69255  0.85009  0.08833  1.0000
  C   C385      1.0  0.71880  0.74734  0.03055  1.0000
  C   C386      1.0  0.74583  0.75837  0.04394  1.0000
  C   C387      1.0  0.77402  0.71983  0.00872  1.0000
  H   H456      1.0  0.81620  0.74052  0.34614  1.0000
  C   C388      1.0  0.67347  0.85423  0.22858  1.0000
  C   C389      1.0  0.83003  0.55787  0.44022  1.0000
  H   H457      1.0  0.67019  0.64565  0.04444  1.0000
  C   C390      1.0  0.74597  0.63559  0.05067  1.0000
  C   C391      1.0  0.74360  0.75329  0.36988  1.0000
  H   H458      1.0  0.76076  0.57874  0.07841  1.0000
  C   C392      1.0  0.79984  0.62233  0.05169  1.0000
  H   H459      1.0  0.83680  0.51849  0.06565  1.0000
  H   H460      1.0  0.77383  0.67071  0.07817  1.0000
  H   H461      1.0  0.74059  0.81473  0.34584  1.0000
  C   C393      1.0  0.82847  0.52918  0.01315  1.0000
  H   H462      1.0  0.70186  0.82059  0.35417  1.0000
  H   H463      1.0  0.96709  0.59386  0.00269  1.0000
  C   C394      1.0  0.74503  0.73600  0.40095  1.0000
  H   H464      1.0  0.74288  0.86786  0.03351  1.0000
  H   H465      1.0  0.74573  0.77691  0.06320  1.0000
  C   C395      1.0  0.81332  0.50279  0.43002  1.0000
  C   C396      1.0  0.87305  0.50501  0.49361  1.0000
  H   H466      1.0  0.70786  0.73679  0.31872  1.0000
  H   H467      1.0  0.95798  0.54224  0.03361  1.0000
  H   H468      1.0  0.80070  0.62214  0.07971  1.0000
  C   C397      1.0  0.75166  0.66340  0.07094  1.0000
  C   C398      1.0  0.77017  0.75473  0.35061  1.0000
  H   H469      1.0  0.80676  0.64680  0.04242  1.0000
  H   H470      1.0  0.83237  0.55495  0.01577  1.0000
  C   C399      1.0  0.79615  0.73897  0.36121  1.0000
  H   H471      1.0  0.66938  0.77460  0.36846  1.0000
  H   H472      1.0  0.86383  0.57596  0.40710  1.0000
  C   C400      1.0  0.77103  0.61381  0.00170  1.0000
  H   H473      1.0  0.79369  0.75298  0.04437  1.0000
  C   C401      1.0  0.70964  0.76348  0.32279  1.0000
  Fe  Fe56      1.0  0.67700  0.82550  0.45309  1.0000
  C   C402      1.0  0.76654  0.75964  0.48858  1.0000
  C   C403      1.0  0.76342  0.57976  0.05054  1.0000
  C   C404      1.0  0.83114  0.50842  0.04131  1.0000
  C   C405      1.0  0.69926  0.67704  0.07229  1.0000
  H   H474      1.0  0.81682  0.70981  0.39985  1.0000
  S   S110      1.0  0.66964  0.94892  0.45223  1.0000
  H   H475      1.0  0.69555  0.89385  0.25385  1.0000
  H   H476      1.0  0.72653  0.73482  0.41825  1.0000
  H   H477      1.0  0.77169  0.70751  0.43524  1.0000
  H   H478      1.0  0.77902  0.76879  0.46731  1.0000
  H   H479      1.0  0.72647  0.77335  0.30507  1.0000
  C   C406      1.0  0.85076  0.52704  0.39404  1.0000
  N   N26       1.0  0.76979  0.61342  0.03902  1.0000
  H   H480      1.0  0.78155  0.56261  0.04365  1.0000
  H   H481      1.0  0.77124  0.76862  0.32752  1.0000
  C   C407      1.0  0.98019  0.55248  0.03261  1.0000
  C   C408      1.0  0.71587  0.62971  0.04153  1.0000
  S   S111      1.0  0.68558  0.86685  0.18799  1.0000
  H   H482      1.0  0.68193  0.95694  0.07019  1.0000
  C   C409      1.0  0.79658  0.72170  0.39144  1.0000
  C   C410      1.0  0.68972  0.76254  0.37857  1.0000
  H   H483      1.0  0.86630  0.52638  0.37334  1.0000
  H   H484      1.0  0.84327  0.49244  0.33477  1.0000
  H   H485      1.0  0.71717  0.90674  0.46718  1.0000
  C   C411      1.0  0.67687  0.97047  0.04749  1.0000
  H   H486      1.0  0.68298  0.84974  0.00961  1.0000
  N   N27       1.0  0.71658  0.77089  0.35859  1.0000
  C   C412      1.0  0.77111  0.72029  0.41127  1.0000
  H   H487      1.0  0.89285  0.51377  0.48111  1.0000
  H   H488      1.0  0.68816  0.77472  0.31472  1.0000
  C   C413      1.0  0.83313  0.49950  0.40231  1.0000
  H   H489      1.0  0.73334  0.70514  0.09636  1.0000
  H   H490      1.0  0.70969  0.82035  0.02443  1.0000
  H   H491      1.0  0.69171  0.77091  0.40510  1.0000
  S   S112      1.0  0.72090  0.79783  0.46348  1.0000
  H   H492      1.0  0.82981  0.57955  0.45573  1.0000
  C   C414      1.0  0.67133  0.86419  0.28951  1.0000
  C   C415      1.0  0.73692  0.77000  0.49324  1.0000
  H   H493      1.0  0.67726  0.87898  0.31101  1.0000
  C   C416      1.0  0.68162  0.87260  0.25704  1.0000
  C   C417      1.0  0.70143  0.83343  0.00173  1.0000
  H   H494      1.0  0.79743  0.53324  0.47027  1.0000
  C   C418      1.0  0.72851  0.68355  0.08170  1.0000
  H   H495      1.0  0.75473  0.89206  0.46954  1.0000
  H   H496      1.0  0.71622  0.89455  0.01504  1.0000
  H   H497      1.0  0.72403  0.86600  0.47968  1.0000
  H   H498      1.0  0.78591  0.85110  0.00706  1.0000
  C   C419      1.0  0.71975  0.72298  0.00559  1.0000
  H   H499      1.0  0.74287  0.56965  0.03901  1.0000
  C   C420      1.0  0.73263  0.89118  0.48208  1.0000
  C   C421      1.0  0.73508  0.87796  0.00898  1.0000
  C   C422      1.0  0.98528  0.58149  0.01539  1.0000
  H   H500      1.0  0.70988  0.60942  0.02569  1.0000
  C   C423      1.0  0.69295  0.65022  0.05220  1.0000
  H   H501      1.0  0.68159  0.69349  0.07975  1.0000
  H   H502      1.0  0.99975  0.51378  0.06155  1.0000
  Fe  Fe57      1.0  0.82414  0.66825  0.57658  1.0000
  S   S113      1.0  0.81770  0.61508  0.59027  1.0000
  S   S114      1.0  0.78078  0.69811  0.56915  1.0000
  Fe  Fe58      1.0  0.89221  0.66288  0.58940  1.0000
  S   S115      1.0  0.88945  0.61034  0.60352  1.0000
  S   S116      1.0  0.93626  0.68955  0.59653  1.0000
  Fe  Fe59      1.0  0.85863  0.60540  0.55913  1.0000
  S   S117      1.0  0.86953  0.56686  0.51950  1.0000
  Fe  Fe60      1.0  0.84922  0.62465  0.63361  1.0000
  S   S118      1.0  0.84475  0.60244  0.68636  1.0000
  S   S119      1.0  0.86352  0.65800  0.54290  1.0000
  S   S120      1.0  0.85348  0.67778  0.62204  1.0000
  Fe  Fe61      1.0  0.88863  0.63387  0.93665  1.0000
  S   S121      1.0  0.86498  0.60315  0.89809  1.0000
  S   S122      1.0  0.93699  0.61624  0.93935  1.0000
  Fe  Fe62      1.0  0.82869  0.66578  0.95903  1.0000
  S   S123      1.0  0.80217  0.63626  0.92185  1.0000
  C   C424      1.0  0.73926  0.68150  0.72569  1.0000
  Fe  Fe63      1.0  0.83112  0.59418  0.93860  1.0000
  S   S124      1.0  0.81582  0.54177  0.94580  1.0000
  Fe  Fe64      1.0  0.83886  0.64760  0.88466  1.0000
  S   S125      1.0  0.83091  0.66785  0.83153  1.0000
  S   S126      1.0  0.85556  0.62262  0.97787  1.0000
  S   S127      1.0  0.86428  0.67950  0.92100  1.0000
  C   C425      1.0  0.71421  0.86753  0.95450  1.0000
  H   H503      1.0  0.95846  0.67306  0.82671  1.0000
  H   H504      1.0  0.81784  0.82841  0.58040  1.0000
  H   H505      1.0  0.72282  0.72759  0.56550  1.0000
  H   H506      1.0  0.73105  0.69879  0.77615  1.0000
  H   H507      1.0  0.82287  0.88834  0.58033  1.0000
  H   H508      1.0  0.76211  0.94314  0.50464  1.0000
  H   H509      1.0  0.72858  0.70274  0.71522  1.0000
  H   H510      1.0  0.89446  0.65987  0.69470  1.0000
  C   C426      1.0  0.84258  0.62153  0.72648  1.0000
  C   C427      1.0  0.84448  0.60218  0.75570  1.0000
  C   C428      1.0  0.84192  0.61603  0.78808  1.0000
  C   C429      1.0  0.83691  0.64942  0.79159  1.0000
  C   C430      1.0  0.83542  0.66883  0.76236  1.0000
  C   C431      1.0  0.83850  0.65508  0.73002  1.0000
  H   H511      1.0  0.84769  0.57621  0.75330  1.0000
  H   H512      1.0  0.84307  0.60075  0.81027  1.0000
  H   H513      1.0  0.83158  0.69468  0.76478  1.0000
  H   H514      1.0  0.83727  0.67042  0.70793  1.0000
  C   C432      1.0  0.85751  0.52585  0.51549  1.0000
  H   H515      1.0  0.89373  0.56551  0.95196  1.0000
  C   C433      1.0  0.80393  0.87714  0.56799  1.0000
  H   H516      1.0  0.74711  0.69071  0.97559  1.0000
  C   C434      1.0  0.90204  0.54713  0.97026  1.0000
  C   C435      1.0  0.76469  0.72569  0.53914  1.0000
  H   H517      1.0  0.91228  0.65684  0.65498  1.0000
  C   C436      1.0  0.75759  0.88239  0.53545  1.0000
  C   C437      1.0  0.97659  0.66671  0.95302  1.0000
  C   C438      1.0  0.97221  0.63591  0.93904  1.0000
  H   H518      1.0  0.75285  0.89351  0.99796  1.0000
  H   H519      1.0  0.72122  0.62193  0.66073  1.0000
  H   H520      1.0  0.91850  0.55951  0.98677  1.0000
  C   C439      1.0  0.97278  0.63963  0.57426  1.0000
  C   C440      1.0  0.97107  0.67062  0.58852  1.0000
  H   H521      1.0  0.96052  0.63473  0.64820  1.0000
  H   H522      1.0  0.95260  0.62692  0.56735  1.0000
  H   H523      1.0  0.69911  0.71408  0.99502  1.0000
  H   H524      1.0  0.69839  0.87106  0.53400  1.0000
  H   H525      1.0  0.88517  0.52177  0.91049  1.0000
  H   H526      1.0  0.68761  0.91084  0.52094  1.0000
  H   H527      1.0  0.74369  0.71073  0.66184  1.0000
  C   C441      1.0  0.72137  0.75828  0.52126  1.0000
  H   H528      1.0  0.73690  0.83544  0.52466  1.0000
  H   H529      1.0  0.70588  0.90516  0.56080  1.0000
  H   H530      1.0  0.95694  0.54459  0.94610  1.0000
  C   C442      1.0  0.83189  0.51425  0.53146  1.0000
  H   H531      1.0  0.94425  0.58928  0.70691  1.0000
  H   H532      1.0  0.71165  0.68379  0.66089  1.0000
  C   C443      1.0  0.76715  0.78005  0.94689  1.0000
  C   C444      1.0  0.74046  0.67955  0.76089  1.0000
  C   C445      1.0  0.80114  0.84338  0.56814  1.0000
  N   N28       1.0  0.93922  0.64037  0.69660  1.0000
  C   C446      1.0  0.99708  0.61850  0.92734  1.0000
  C   C447      1.0  0.92803  0.60645  0.69537  1.0000
  C   C448      1.0  0.91633  0.66226  0.68201  1.0000
  C   C449      1.0  0.94509  0.64966  0.73203  1.0000
  C   C450      1.0  0.75533  0.84795  0.53646  1.0000
  C   C451      1.0  0.73545  0.68645  0.65375  1.0000
  H   H533      1.0  0.69130  0.81483  0.98502  1.0000
  H   H534      1.0  0.89942  0.64220  0.74894  1.0000
  C   C452      1.0  0.77685  0.82883  0.55245  1.0000
  C   C453      1.0  0.75026  0.82899  0.97671  1.0000
  H   H535      1.0  0.99653  0.71074  0.60830  1.0000
  H   H536      1.0  0.75002  0.60529  0.98989  1.0000
  H   H537      1.0  0.70409  0.84979  0.93680  1.0000
  C   C454      1.0  0.73519  0.73642  0.54401  1.0000
  C   C455      1.0  0.95478  0.66664  0.80053  1.0000
  H   H538      1.0  0.69643  0.88558  0.96051  1.0000
  C   C456      1.0  0.74480  0.80238  0.95480  1.0000
  H   H539      1.0  0.80301  0.72987  0.50707  1.0000
  C   C457      1.0  0.82048  0.51652  0.98177  1.0000
  C   C458      1.0  0.80177  0.80942  0.98183  1.0000
  H   H540      1.0  0.97455  0.66752  0.67260  1.0000
  N   N29       1.0  0.91541  0.51887  0.95284  1.0000
  C   C459      1.0  0.93980  0.53137  0.93114  1.0000
  C   C460      1.0  0.79556  0.78355  0.96039  1.0000
  C   C461      1.0  0.97366  0.65926  0.74386  1.0000
  H   H541      1.0  0.73220  0.88063  0.94081  1.0000
  C   C462      1.0  0.76689  0.62875  0.75726  1.0000
  N   N30       1.0  0.73470  0.90189  0.51768  1.0000
  C   C463      1.0  0.96585  0.64221  0.67451  1.0000
  C   C464      1.0  0.78253  0.89653  0.55195  1.0000
  H   H542      1.0  0.77470  0.80252  0.55251  1.0000
  H   H543      1.0  0.77833  0.60876  0.76959  1.0000
  H   H544      1.0  0.79373  0.68845  0.67000  1.0000
  H   H545      1.0  0.75914  0.60828  0.65702  1.0000
  C   C465      1.0  0.92170  0.64915  0.75603  1.0000
  H   H546      1.0  0.92339  0.68817  0.68348  1.0000
  C   C466      1.0  0.75444  0.65336  0.77662  1.0000
  C   C467      1.0  0.77958  0.83193  0.98998  1.0000
  H   H547      1.0  0.88270  0.54026  0.98595  1.0000
  H   H548      1.0  0.95775  0.68028  0.96245  1.0000
  C   C468      1.0  0.97829  0.66750  0.77769  1.0000
  H   H549      1.0  0.73646  0.68696  0.62565  1.0000
  H   H550      1.0  0.75624  0.65243  0.80387  1.0000
  H   H551      1.0  0.78742  0.66823  0.63063  1.0000
  C   C469      1.0  0.78506  0.66576  0.65833  1.0000
  C   C470      1.0  0.78028  0.73755  0.51117  1.0000
  N   N31       1.0  0.75381  0.65965  0.66800  1.0000
  C   C471      1.0  0.75227  0.65702  0.70518  1.0000
  H   H552      1.0  0.79994  0.64557  0.66612  1.0000
  C   C472      1.0  0.76610  0.63056  0.72212  1.0000
  H   H553      1.0  0.69866  0.76598  0.52542  1.0000
  H   H554      1.0  0.77764  0.61171  0.70841  1.0000
  H   H555      1.0  0.74101  0.94768  0.54337  1.0000
  C   C473      1.0  0.92650  0.65759  0.78968  1.0000
  H   H556      1.0  0.93142  0.54941  0.91233  1.0000
  H   H557      1.0  0.74312  0.63116  0.62390  1.0000
  C   C474      1.0  0.74382  0.62894  0.65191  1.0000
  H   H558      1.0  0.81963  0.53000  0.54821  1.0000
  C   C475      1.0  0.70545  0.89695  0.53410  1.0000
  H   H559      1.0  0.78894  0.59766  0.99192  1.0000
  H   H560      1.0  0.72300  0.79823  0.94414  1.0000
  H   H561      1.0  0.92375  0.59839  0.66903  1.0000
  H   H562      1.0  0.76231  0.75939  0.93086  1.0000
  C   C476      1.0  0.74074  0.93744  0.51744  1.0000
  C   C477      1.0  0.89262  0.50431  0.93033  1.0000
  H   H563      1.0  0.81262  0.76567  0.95486  1.0000
  N   N32       1.0  0.72590  0.85173  0.98543  1.0000
  H   H564      1.0  0.77537  0.63888  0.99219  1.0000
  H   H565      1.0  0.90810  0.65712  0.80742  1.0000
  H   H566      1.0  0.95060  0.51152  0.91666  1.0000
  H   H567      1.0  0.78606  0.92248  0.55276  1.0000
  H   H568      1.0  0.97322  0.49535  0.96707  1.0000
  H   H569      1.0  0.90656  0.60343  0.70886  1.0000
  H   H570      1.0  0.99400  0.59464  0.91651  1.0000
  S   S128      1.0  0.80938  0.70265  0.99731  1.0000
  C   C478      1.0  0.74705  0.70945  0.99462  1.0000
  H   H571      1.0  0.82384  0.81164  0.99266  1.0000
  H   H572      1.0  0.98391  0.62576  0.68331  1.0000
  C   C479      1.0  0.92529  0.49463  0.97816  1.0000
  H   H573      1.0  0.87206  0.49731  0.94401  1.0000
  H   H574      1.0  0.72305  0.95111  0.50356  1.0000
  H   H575      1.0  0.99280  0.66066  0.72752  1.0000
  C   C480      1.0  0.99761  0.68675  0.59724  1.0000
  H   H576      1.0  0.88094  0.48579  0.99857  1.0000
