data_image0
_chemical_formula_structural       FeS2FeS2FeSFeS5HSCH2FeSHFeS2FeS2FeSFeS3FeCFeCSH2SHCHCH2CHCSCHC6H7CH5C8H4C6H4C2SFeHCFeCHCH3CHC2HNHC2HC2H4C2HCHNHCH4C2H2CH2CH2CHNH2CHC3HCHCFeHC2H3SC2H2C2H2CH2SNH3N2HC2HCH2CH2C6HCH5CH2C2H2CH2CHCH2C3HCH2C2H2CHC2HC2HC4SCSH3C2HCH2C4HC2H4SHC2SFeSHSFeSFeHSFeHFeS2FeS2CHCH2C4HCH2C6H4CHCHC6H4SH2CH2FeH2CHCH2FeSCH3CS2H4CHCHCH2CH4CHCH3SH2C2HCH2CNCH2C8H3SHSH4SHNC4HC2HCHNHCHCHC3H3NH2FeHCHC2HCHCHNCHFeHCHC2H2CH3CHCHCHCHCNH2C4H3C2HCSHCSCFeCFeC2FeCSFeH2FeHS2HSCHC2HCNH3C6H2CH2CSCH2C2SH5CHSC3H2FeH5CH2C2H2C2SH4NC7H5CFeH2NH2SHC4H4SC2H8SHC3HC2SH2SHSCFeHFeSCHCFeC2H2FeHSFeSFeCS2CH2CHCSH3SHSH2C4SHC2HCH2CSC3HCH4C4SH2FeC4HCHNHNHC4H2SCSHSHC2H2CH2C2FeC2HC2H5FeH3CH6SHSFeSFeS2FeS2FeSFeS3HFeS2FeS2FeSFeS3HC4H2C3H2CHCH2C6H4C3SC7H5C6H5CHNCH3CH3NCH3SH2CH4C2HC2H4C2H2C2HCHCH5C4NC9H14NCH6C4HNC4NH7CH8FeC3HCH3C2HCHCH4CH2CHC2HCH2CH8SC2NHC4HSHCFeS2FeS2FeSFeS4HSCFeSFeSHFeS2FeS2FeSFeS3C2FeCSHCSCSHC7HCH2C6H5C6H2CHC6H4C6H4CHCHFeHC2H2C2H3C2NSHCHCH5SC2H3SH2CH2FeNC3HCH4NC9H14NC4HCH12CNH2NHC9H5CH7CHCH7C4H5C3H2CH3C2HC2H2CH2C3HCFeCSHC4H5CH2CH2SCNC2SFeS2FeS2FeSFeS3FeHSFeSH4SFeS2FeS2FeSFeS4HSCFeSFeSHC2H2C3HCHC2H3C2H3C6H4CHC4HCHCSH3CHC4H2C6H4C6H4CNH2CH2C2HC2HCNC7HCH12CFeC2H3CHN2C4H15CH3C3H2NCH3SH3CH2C3HC3NC5H2CH2C2H4CHCH3CH2CSC2H5CHCNH3C2HCH2C3HCH2CFeCHC3HC2SCSCFeSFeS2HS2FeS2FeHFeHS2C5SH3CH2C8H5CH2C6H4CHCH2C2H2S2HCH3CH3CSC2HFeC2H2CHC5NSHFeH3CFeCH3NCHC2HCHNH4CH4CNH4CSHCH2CH4C2H3FeC4H3CHFeHCHCSHNHC4HC4H2CHC2H2SHSCH2CH3C2HNH2CHSH3SHFeSFeH2CSHFeSFeH3SCHC2H2CH9CHSH2CFeC3HCH3CH2C3H2CNH3CSC3SH3C2SNC2HCSCHSHFeHCNH2NHCHC2H3CFeSHCSCH2C5HCSFeC4SHFeCH2C4HC2HCHCH2CHFeHCNHCSH4CHCHC2H3CH2FeCH2SCSHSHFeHFeSCH3C2HS2HSFeSFeSHCNH3C7H2SC2HCH3C5H5C2HCHCH2SCH3C4H3S2CHCH4CHCHC2H2SH4CSH4C2HC2H2CNCHC4H5CHFeH3CS2CSFeS2FeS2FeSFeS3HFeS2FeS2FeSFeS3HCHCH2C6H4CHC2H2CH3C3H2C7H5C7H6CH2CNC9H15C4H6C4SHC3HNH3C3HCHCHC3HCHCH7NH2CH2CHCHCFeCH3C2FeSCFeNHCH2NCNCHCH5C3H3C4H2C2H4CHC2H4C2HCH3FeS2FeS2FeSFeS3FeCSFeSFeHCSFeS2FeS2FeSFeS3FeCSFeSH2S2NHCHC2HSC6H4C3H2C6H4CHCH2C6H4C2H3C6H4C6H3NC9H14CHCH2C3NC6SCH3CH3N2C2H5CHC2H4CH2CH2CH2CHCH2SCH2C2H4CH2NCH3CH4NH2CH4C2H3C2HC5HCH3CHCH3CHCHCHSHSCH2SCH7C
_chemical_formula_sum              "Fe128 S256 H1152 C960 N64"
_cell_length_a       46.1167
_cell_length_b       57.7178
_cell_length_c       57.3056
_cell_angle_alpha    89.019
_cell_angle_beta     90.919
_cell_angle_gamma    91.3328

_space_group_name_H-M_alt    "P 1"
_space_group_IT_number       1

loop_
  _space_group_symop_operation_xyz
  'x, y, z'

loop_
  _atom_site_type_symbol
  _atom_site_label
  _atom_site_symmetry_multiplicity
  _atom_site_fract_x
  _atom_site_fract_y
  _atom_site_fract_z
  _atom_site_occupancy
  Fe  Fe1       1.0  0.41577  0.22961  0.11386  1.0000
  S   S1        1.0  0.41743  0.25650  0.14148  1.0000
  S   S2        1.0  0.45424  0.21003  0.10059  1.0000
  Fe  Fe2       1.0  0.34991  0.23527  0.10443  1.0000
  S   S3        1.0  0.34692  0.26321  0.13160  1.0000
  S   S4        1.0  0.31783  0.22575  0.07482  1.0000
  Fe  Fe3       1.0  0.38913  0.27716  0.11685  1.0000
  S   S5        1.0  0.40549  0.31349  0.10778  1.0000
  Fe  Fe4       1.0  0.37567  0.24033  0.15432  1.0000
  S   S6        1.0  0.37424  0.22667  0.19207  1.0000
  S   S7        1.0  0.39026  0.25113  0.08854  1.0000
  S   S8        1.0  0.37584  0.21162  0.12792  1.0000
  S   S9        1.0  0.16960  0.17000  0.00111  1.0000
  S   S10       1.0  0.13719  0.06519  0.00880  1.0000
  H   H1        1.0  0.22681  0.21551  0.48607  1.0000
  S   S11       1.0  0.14109  0.12735  0.03253  1.0000
  C   C1        1.0  0.46049  0.25120  0.20622  1.0000
  H   H2        1.0  0.02279  0.10712  0.02811  1.0000
  H   H3        1.0  0.26673  0.24456  0.42544  1.0000
  Fe  Fe5       1.0  0.18518  0.14484  0.02865  1.0000
  S   S12       1.0  0.20969  0.15525  0.06199  1.0000
  H   H4        1.0  0.23708  0.10031  0.44856  1.0000
  Fe  Fe6       1.0  0.41639  0.23538  0.34908  1.0000
  S   S13       1.0  0.40556  0.27182  0.33913  1.0000
  S   S14       1.0  0.46022  0.22363  0.33644  1.0000
  Fe  Fe7       1.0  0.35509  0.22606  0.36949  1.0000
  S   S15       1.0  0.34052  0.26214  0.36029  1.0000
  S   S16       1.0  0.33094  0.19980  0.39311  1.0000
  Fe  Fe8       1.0  0.36317  0.25683  0.32593  1.0000
  S   S17       1.0  0.34772  0.27122  0.29063  1.0000
  Fe  Fe9       1.0  0.38443  0.27354  0.37400  1.0000
  S   S18       1.0  0.39841  0.30177  0.39901  1.0000
  S   S19       1.0  0.37476  0.21994  0.33416  1.0000
  S   S20       1.0  0.39816  0.23793  0.38497  1.0000
  Fe  Fe10      1.0  0.12482  0.14799  0.47861  1.0000
  C   C2        1.0  0.17775  0.00746  0.47969  1.0000
  Fe  Fe11      1.0  0.17943  0.16199  0.44984  1.0000
  C   C3        1.0  0.33270  0.27460  0.45778  1.0000
  S   S21       1.0  0.19741  0.18328  0.41897  1.0000
  H   H5        1.0  0.15152  0.19807  0.05278  1.0000
  H   H6        1.0  0.11543  0.00283  0.47155  1.0000
  S   S22       1.0  0.14577  0.13285  0.44726  1.0000
  H   H7        1.0  0.41000  0.27157  0.25676  1.0000
  C   C4        1.0  0.29739  0.14821  0.36655  1.0000
  H   H8        1.0  0.39142  0.20329  0.02802  1.0000
  C   C5        1.0  0.47773  0.31734  0.41592  1.0000
  H   H9        1.0  0.18564  0.02899  0.44915  1.0000
  H   H10       1.0  0.47418  0.19954  0.18936  1.0000
  C   C6        1.0  0.30444  0.15065  0.01628  1.0000
  H   H11       1.0  0.36517  0.24159  0.43772  1.0000
  C   C7        1.0  0.03624  0.14826  0.07266  1.0000
  S   S23       1.0  0.07773  0.14996  0.49033  1.0000
  C   C8        1.0  0.26803  0.15324  0.36679  1.0000
  H   H12       1.0  0.49362  0.31297  0.01431  1.0000
  C   C9        1.0  0.29376  0.19702  0.40091  1.0000
  C   C10       1.0  0.27162  0.20791  0.38819  1.0000
  C   C11       1.0  0.24229  0.20374  0.39408  1.0000
  C   C12       1.0  0.23475  0.18901  0.41299  1.0000
  C   C13       1.0  0.25697  0.17891  0.42626  1.0000
  C   C14       1.0  0.28622  0.18267  0.42009  1.0000
  H   H13       1.0  0.27700  0.21893  0.37334  1.0000
  H   H14       1.0  0.22531  0.21175  0.38373  1.0000
  H   H15       1.0  0.25162  0.16804  0.44116  1.0000
  H   H16       1.0  0.30313  0.17424  0.43013  1.0000
  H   H17       1.0  0.50918  0.26518  0.26011  1.0000
  H   H18       1.0  0.39620  0.18414  0.08891  1.0000
  H   H19       1.0  0.25907  0.07563  0.40433  1.0000
  C   C15       1.0  0.37479  0.31805  0.41576  1.0000
  H   H20       1.0  0.32607  0.16002  0.07182  1.0000
  H   H21       1.0  0.45464  0.31823  0.41896  1.0000
  H   H22       1.0  0.28673  0.32160  0.48665  1.0000
  H   H23       1.0  0.05977  0.13398  0.44350  1.0000
  H   H24       1.0  0.34803  0.30817  0.08617  1.0000
  C   C16       1.0  0.18090  0.02886  0.46758  1.0000
  C   C17       1.0  0.48416  0.30166  0.02746  1.0000
  C   C18       1.0  0.36510  0.23935  0.21898  1.0000
  C   C19       1.0  0.36759  0.22587  0.23958  1.0000
  C   C20       1.0  0.36199  0.23528  0.26157  1.0000
  C   C21       1.0  0.35349  0.25828  0.26321  1.0000
  C   C22       1.0  0.35046  0.27167  0.24257  1.0000
  C   C23       1.0  0.35647  0.26234  0.22057  1.0000
  H   H25       1.0  0.37409  0.20803  0.23854  1.0000
  H   H26       1.0  0.36415  0.22470  0.27723  1.0000
  H   H27       1.0  0.34382  0.28947  0.24362  1.0000
  H   H28       1.0  0.35440  0.27292  0.20489  1.0000
  C   C24       1.0  0.28771  0.20609  0.07184  1.0000
  C   C25       1.0  0.27770  0.19217  0.09038  1.0000
  C   C26       1.0  0.25378  0.17680  0.08704  1.0000
  C   C27       1.0  0.23968  0.17501  0.06514  1.0000
  C   C28       1.0  0.24974  0.18886  0.04656  1.0000
  C   C29       1.0  0.27358  0.20431  0.04993  1.0000
  H   H29       1.0  0.28825  0.19336  0.10734  1.0000
  H   H30       1.0  0.24619  0.16619  0.10155  1.0000
  H   H31       1.0  0.23921  0.18767  0.02962  1.0000
  H   H32       1.0  0.28122  0.21492  0.03545  1.0000
  C   C30       1.0  0.04061  0.13669  0.45366  1.0000
  C   C31       1.0  0.04349  0.14488  0.47645  1.0000
  S   S24       1.0  0.20879  0.14209  0.47385  1.0000
  Fe  Fe12      1.0  0.12681  0.15039  0.00285  1.0000
  H   H33       1.0  0.14776  0.15347  0.07663  1.0000
  C   C32       1.0  0.49390  0.23013  0.35053  1.0000
  Fe  Fe13      1.0  0.15494  0.10252  0.00505  1.0000
  C   C33       1.0  0.46300  0.27281  0.06320  1.0000
  H   H34       1.0  0.47590  0.23965  0.38333  1.0000
  C   C34       1.0  0.34484  0.31809  0.41143  1.0000
  H   H35       1.0  0.05748  0.11829  0.08665  1.0000
  H   H36       1.0  0.32155  0.33328  0.05770  1.0000
  H   H37       1.0  0.38984  0.32666  0.01428  1.0000
  C   C35       1.0  0.49471  0.26127  0.24564  1.0000
  H   H38       1.0  0.25638  0.12689  0.44159  1.0000
  C   C36       1.0  0.48955  0.22180  0.10574  1.0000
  C   C37       1.0  0.31844  0.25986  0.42046  1.0000
  H   H39       1.0  0.47511  0.25267  0.12208  1.0000
  N   N1        1.0  0.45011  0.25856  0.27146  1.0000
  H   H40       1.0  0.25986  0.28586  0.47463  1.0000
  C   C38       1.0  0.46443  0.25713  0.24857  1.0000
  C   C39       1.0  0.18212  0.03634  0.99669  1.0000
  H   H41       1.0  0.11356  0.04459  0.46796  1.0000
  C   C40       1.0  0.32879  0.15888  0.00438  1.0000
  C   C41       1.0  0.49749  0.32910  0.43034  1.0000
  H   H42       1.0  0.07025  0.12500  0.01728  1.0000
  H   H43       1.0  0.42472  0.23639  0.29444  1.0000
  H   H44       1.0  0.48048  0.28268  0.28761  1.0000
  H   H45       1.0  0.39750  0.29666  0.01996  1.0000
  C   C42       1.0  0.17815  0.05003  0.47912  1.0000
  C   C43       1.0  0.13779  0.01761  0.00985  1.0000
  H   H46       1.0  0.37141  0.17365  0.00677  1.0000
  C   C44       1.0  0.30424  0.15096  0.04055  1.0000
  H   H47       1.0  0.28556  0.14411  0.00671  1.0000
  N   N2        1.0  0.37953  0.17734  0.05417  1.0000
  H   H48       1.0  0.41067  0.16409  0.03017  1.0000
  C   C45       1.0  0.28907  0.11692  0.39447  1.0000
  H   H49       1.0  0.33755  0.21925  0.43908  1.0000
  H   H50       1.0  0.42474  0.16921  0.05886  1.0000
  H   H51       1.0  0.45369  0.22230  0.28030  1.0000
  H   H52       1.0  0.10986  0.19954  0.10889  1.0000
  C   C46       1.0  0.35806  0.32414  0.07979  1.0000
  C   C47       1.0  0.40387  0.31471  0.02466  1.0000
  H   H53       1.0  0.37265  0.15924  0.08701  1.0000
  H   H54       1.0  0.31601  0.28825  0.45714  1.0000
  C   C48       1.0  0.43688  0.23569  0.27781  1.0000
  H   H55       1.0  0.33553  0.30777  0.39751  1.0000
  H   H56       1.0  0.41533  0.27744  0.28675  1.0000
  C   C49       1.0  0.26899  0.24046  0.44383  1.0000
  H   H57       1.0  0.13849  0.16326  0.10536  1.0000
  H   H58       1.0  0.39796  0.31755  0.04306  1.0000
  C   C50       1.0  0.14356  0.16899  0.08722  1.0000
  H   H59       1.0  0.35265  0.28223  0.44965  1.0000
  N   N3        1.0  0.32229  0.25345  0.44551  1.0000
  H   H60       1.0  0.50075  0.20463  0.15246  1.0000
  H   H61       1.0  0.16467  0.17880  0.08814  1.0000
  C   C51       1.0  0.02646  0.17010  0.00388  1.0000
  H   H62       1.0  0.33903  0.26685  0.41286  1.0000
  C   C52       1.0  0.34519  0.23581  0.44709  1.0000
  C   C53       1.0  0.25213  0.10881  0.43582  1.0000
  C   C54       1.0  0.24560  0.22385  0.47803  1.0000
  H   H63       1.0  0.12880  0.17528  0.04113  1.0000
  C   C55       1.0  0.43967  0.31906  0.99502  1.0000
  H   H64       1.0  0.23469  0.22895  0.99644  1.0000
  C   C56       1.0  0.35304  0.16747  0.01675  1.0000
  Fe  Fe14      1.0  0.17412  0.11379  0.47330  1.0000
  H   H65       1.0  0.19629  0.10726  0.42487  1.0000
  C   C57       1.0  0.45432  0.30281  0.03305  1.0000
  C   C58       1.0  0.25918  0.12208  0.39577  1.0000
  H   H66       1.0  0.29825  0.10296  0.40473  1.0000
  H   H67       1.0  0.31206  0.24456  0.40982  1.0000
  H   H68       1.0  0.27280  0.09942  0.43761  1.0000
  S   S25       1.0  0.15540  0.17910  0.47854  1.0000
  C   C59       1.0  0.50428  0.31371  0.09584  1.0000
  C   C60       1.0  0.24910  0.14054  0.38122  1.0000
  H   H69       1.0  0.22689  0.14610  0.38114  1.0000
  H   H70       1.0  0.30197  0.27349  0.41785  1.0000
  C   C61       1.0  0.29550  0.24401  0.45647  1.0000
  C   C62       1.0  0.42696  0.27600  0.26996  1.0000
  H   H71       1.0  0.42479  0.24802  0.22898  1.0000
  H   H72       1.0  0.49974  0.25555  0.18672  1.0000
  C   C63       1.0  0.35352  0.16821  0.04152  1.0000
  H   H73       1.0  0.42122  0.22932  0.26438  1.0000
  H   H74       1.0  0.31215  0.15880  0.35609  1.0000
  S   S26       1.0  0.18286  0.07643  0.46295  1.0000
  N   N4        1.0  0.23996  0.10851  0.41166  1.0000
  H   H75       1.0  0.33843  0.27116  0.47638  1.0000
  H   H76       1.0  0.45838  0.26650  0.30769  1.0000
  H   H77       1.0  0.04299  0.07473  0.47837  1.0000
  N   N5        1.0  0.43525  0.31948  0.02067  1.0000
  N   N6        1.0  0.12008  0.18319  0.07670  1.0000
  H   H78       1.0  0.21027  0.13573  0.41853  1.0000
  C   C64       1.0  0.06684  0.18233  0.06628  1.0000
  C   C65       1.0  0.30788  0.13000  0.38025  1.0000
  H   H79       1.0  0.42266  0.28895  0.05835  1.0000
  C   C66       1.0  0.21009  0.11750  0.41252  1.0000
  H   H80       1.0  0.22304  0.07353  0.41541  1.0000
  H   H81       1.0  0.26009  0.16771  0.35640  1.0000
  C   C67       1.0  0.24449  0.23058  0.45458  1.0000
  H   H82       1.0  0.35188  0.23181  0.46539  1.0000
  H   H83       1.0  0.11603  0.01877  0.01645  1.0000
  C   C68       1.0  0.09158  0.17083  0.07537  1.0000
  C   C69       1.0  0.15395  0.03810  0.00509  1.0000
  C   C70       1.0  0.06013  0.13630  0.08127  1.0000
  C   C71       1.0  0.12912  0.19038  0.05288  1.0000
  C   C72       1.0  0.49560  0.23736  0.37370  1.0000
  C   C73       1.0  0.23770  0.08416  0.40393  1.0000
  H   H84       1.0  0.48715  0.25231  0.29410  1.0000
  C   C74       1.0  0.02364  0.12459  0.02098  1.0000
  H   H85       1.0  0.35801  0.18806  0.08511  1.0000
  H   H86       1.0  0.22473  0.22739  0.44444  1.0000
  H   H87       1.0  0.33082  0.12633  0.38010  1.0000
  H   H88       1.0  0.19879  0.11668  0.39525  1.0000
  H   H89       1.0  0.22892  0.08320  0.38575  1.0000
  C   C75       1.0  0.37633  0.17711  0.07991  1.0000
  H   H90       1.0  0.11448  0.20333  0.04471  1.0000
  H   H91       1.0  0.13914  0.21342  0.09316  1.0000
  C   C76       1.0  0.40501  0.16319  0.04893  1.0000
  C   C77       1.0  0.11778  0.20418  0.09111  1.0000
  H   H92       1.0  0.10265  0.21697  0.08330  1.0000
  H   H93       1.0  0.47210  0.29445  0.38702  1.0000
  C   C78       1.0  0.49007  0.25586  0.20385  1.0000
  H   H94       1.0  0.09781  0.10495  0.47661  1.0000
  H   H95       1.0  0.10505  0.13688  0.08923  1.0000
  C   C79       1.0  0.01832  0.14819  0.48939  1.0000
  H   H96       1.0  0.36661  0.21268  0.04947  1.0000
  C   C80       1.0  0.05214  0.15764  0.00666  1.0000
  H   H97       1.0  0.02109  0.18015  0.05772  1.0000
  H   H98       1.0  0.40433  0.20945  0.05682  1.0000
  C   C81       1.0  0.32710  0.33233  0.42458  1.0000
  C   C82       1.0  0.38575  0.20168  0.04672  1.0000
  C   C83       1.0  0.47008  0.26538  0.29089  1.0000
  H   H99       1.0  0.40086  0.14464  0.05370  1.0000
  C   C84       1.0  0.32822  0.15973  0.05309  1.0000
  H   H100      1.0  0.28507  0.14479  0.04975  1.0000
  H   H101      1.0  0.06842  0.19993  0.05964  1.0000
  C   C85       1.0  0.08747  0.14730  0.08265  1.0000
  C   C86       1.0  0.49363  0.24308  0.11674  1.0000
  H   H102      1.0  0.49336  0.30126  0.10728  1.0000
  H   H103      1.0  0.43593  0.29346  0.26516  1.0000
  C   C87       1.0  0.48766  0.30400  0.39782  1.0000
  H   H104      1.0  0.09133  0.07947  0.46002  1.0000
  C   C88       1.0  0.38566  0.33091  0.08797  1.0000
  C   C89       1.0  0.03962  0.17119  0.06508  1.0000
  H   H105      1.0  0.45502  0.26186  0.07741  1.0000
  C   C90       1.0  0.44448  0.28837  0.05184  1.0000
  C   C91       1.0  0.49772  0.20057  0.18967  1.0000
  H   H106      1.0  0.44707  0.24728  0.19097  1.0000
  C   C92       1.0  0.05060  0.13472  0.01493  1.0000
  C   C93       1.0  0.09981  0.08575  0.47712  1.0000
  C   C94       1.0  0.49184  0.27147  0.05665  1.0000
  C   C95       1.0  0.44786  0.25171  0.22819  1.0000
  S   S27       1.0  0.20013  0.11827  0.00339  1.0000
  C   C96       1.0  0.29567  0.23732  0.48045  1.0000
  S   S28       1.0  0.08583  0.17144  0.00036  1.0000
  H   H107      1.0  0.31506  0.23924  0.49114  1.0000
  H   H108      1.0  0.12345  0.08232  0.47844  1.0000
  H   H109      1.0  0.30403  0.33271  0.42093  1.0000
  C   C97       1.0  0.50249  0.28604  0.03898  1.0000
  C   C98       1.0  0.25378  0.29462  0.49033  1.0000
  H   H110      1.0  0.50610  0.25945  0.06566  1.0000
  C   C99       1.0  0.50718  0.26066  0.22353  1.0000
  H   H111      1.0  0.40988  0.33210  0.43690  1.0000
  H   H112      1.0  0.01066  0.12618  0.42617  1.0000
  C   C100      1.0  0.01274  0.13226  0.44389  1.0000
  C   C101      1.0  0.27107  0.22737  0.49098  1.0000
  C   C102      1.0  0.38676  0.33199  0.43344  1.0000
  C   C103      1.0  0.48914  0.33236  0.08643  1.0000
  H   H113      1.0  0.50114  0.19748  0.22697  1.0000
  C   C104      1.0  0.10133  0.03646  0.48192  1.0000
  C   C105      1.0  0.10265  0.01231  0.48376  1.0000
  H   H114      1.0  0.05127  0.10105  0.49356  1.0000
  H   H115      1.0  0.02754  0.18792  0.99781  1.0000
  H   H116      1.0  0.01515  0.13960  0.07127  1.0000
  H   H117      1.0  0.46649  0.33425  0.09085  1.0000
  S   S29       1.0  0.20577  0.15016  0.94281  1.0000
  H   H118      1.0  0.03988  0.07606  0.50968  1.0000
  C   C106      1.0  0.05207  0.31489  0.71117  1.0000
  C   C107      1.0  0.02596  0.22330  0.57545  1.0000
  S   S30       1.0  0.20603  0.17604  0.53258  1.0000
  Fe  Fe15      1.0  0.11497  0.31559  0.63552  1.0000
  S   S31       1.0  0.12472  0.27907  0.64594  1.0000
  H   H119      1.0  0.14118  0.16600  0.89919  1.0000
  S   S32       1.0  0.19007  0.28753  0.62502  1.0000
  Fe  Fe16      1.0  0.14612  0.27639  0.61128  1.0000
  S   S33       1.0  0.13102  0.24910  0.58552  1.0000
  Fe  Fe17      1.0  0.16732  0.29375  0.65923  1.0000
  H   H120      1.0  0.04908  0.31647  0.69188  1.0000
  S   S34       1.0  0.13329  0.31207  0.59990  1.0000
  Fe  Fe18      1.0  0.16653  0.30571  0.83063  1.0000
  H   H121      1.0  0.06445  0.32694  0.86190  1.0000
  Fe  Fe19      1.0  0.17960  0.26573  0.86477  1.0000
  S   S35       1.0  0.15642  0.28164  0.89414  1.0000
  S   S36       1.0  0.20473  0.23277  0.86809  1.0000
  Fe  Fe20      1.0  0.12190  0.28994  0.86708  1.0000
  S   S37       1.0  0.14402  0.27158  0.83813  1.0000
  S   S38       1.0  0.20458  0.29816  0.85448  1.0000
  C   C108      1.0  0.10436  0.28929  0.77788  1.0000
  H   H122      1.0  0.03901  0.19059  0.52722  1.0000
  C   C109      1.0  0.06733  0.18465  0.92502  1.0000
  H   H123      1.0  0.17229  0.32691  0.70960  1.0000
  H   H124      1.0  0.21969  0.27044  0.49730  1.0000
  C   C110      1.0  0.17809  0.29220  0.72275  1.0000
  C   C111      1.0  0.18027  0.27826  0.74307  1.0000
  C   C112      1.0  0.17776  0.28783  0.76543  1.0000
  C   C113      1.0  0.17326  0.31157  0.76772  1.0000
  H   H125      1.0  0.25556  0.25136  0.89211  1.0000
  C   C114      1.0  0.09621  0.08499  0.51876  1.0000
  H   H126      1.0  0.18394  0.25991  0.74149  1.0000
  H   H127      1.0  0.17957  0.27687  0.78085  1.0000
  C   C115      1.0  0.18530  0.19618  0.54766  1.0000
  C   C116      1.0  0.15588  0.19882  0.54230  1.0000
  C   C117      1.0  0.13966  0.21495  0.55430  1.0000
  C   C118      1.0  0.15259  0.22859  0.57181  1.0000
  C   C119      1.0  0.18204  0.22603  0.57726  1.0000
  C   C120      1.0  0.19835  0.20984  0.56518  1.0000
  H   H128      1.0  0.14551  0.18827  0.52903  1.0000
  H   H129      1.0  0.11697  0.21688  0.54988  1.0000
  H   H130      1.0  0.19217  0.23631  0.59088  1.0000
  H   H131      1.0  0.22107  0.20776  0.56953  1.0000
  C   C121      1.0  0.16909  0.02816  0.51510  1.0000
  H   H132      1.0  0.26378  0.29210  0.95366  1.0000
  C   C122      1.0  0.26049  0.22366  0.93269  1.0000
  H   H133      1.0  0.15885  0.17793  0.86128  1.0000
  C   C123      1.0  0.20342  0.17403  0.92316  1.0000
  C   C124      1.0  0.18872  0.19446  0.92787  1.0000
  C   C125      1.0  0.18834  0.21288  0.91116  1.0000
  C   C126      1.0  0.20313  0.21087  0.89003  1.0000
  C   C127      1.0  0.21804  0.19061  0.88581  1.0000
  C   C128      1.0  0.21805  0.17235  0.90212  1.0000
  H   H134      1.0  0.17823  0.19615  0.94445  1.0000
  H   H135      1.0  0.17684  0.22853  0.91462  1.0000
  H   H136      1.0  0.22959  0.18890  0.86965  1.0000
  H   H137      1.0  0.22968  0.15679  0.89840  1.0000
  S   S39       1.0  0.15172  0.12754  0.50454  1.0000
  H   H138      1.0  0.11968  0.01068  0.90253  1.0000
  H   H139      1.0  0.09531  0.22379  0.93697  1.0000
  C   C129      1.0  0.03439  0.02411  0.93848  1.0000
  H   H140      1.0  0.43757  0.30111  0.98832  1.0000
  H   H141      1.0  0.29576  0.27855  0.94325  1.0000
  Fe  Fe21      1.0  0.18144  0.14264  0.97603  1.0000
  H   H142      1.0  0.01217  0.32901  0.66245  1.0000
  H   H143      1.0  0.05885  0.04512  0.52921  1.0000
  C   C130      1.0  0.04309  0.29376  0.86716  1.0000
  H   H144      1.0  0.16199  0.26351  0.53923  1.0000
  C   C131      1.0  0.25406  0.24606  0.94090  1.0000
  H   H145      1.0  0.08414  0.07929  0.53453  1.0000
  H   H146      1.0  0.17014  0.06565  0.51213  1.0000
  Fe  Fe22      1.0  0.17939  0.31467  0.88248  1.0000
  S   S40       1.0  0.18103  0.27917  0.69500  1.0000
  C   C132      1.0  0.03724  0.31329  0.60972  1.0000
  H   H147      1.0  0.05581  0.20060  0.91956  1.0000
  H   H148      1.0  0.27818  0.30082  0.92643  1.0000
  H   H149      1.0  0.23270  0.32688  0.54597  1.0000
  C   C133      1.0  0.26124  0.32592  0.51727  1.0000
  S   S41       1.0  0.07501  0.27813  0.87357  1.0000
  S   S42       1.0  0.17039  0.32463  0.79545  1.0000
  H   H150      1.0  0.32882  0.15862  0.98547  1.0000
  H   H151      1.0  0.26241  0.18700  0.94048  1.0000
  H   H152      1.0  0.07671  0.23777  0.61692  1.0000
  H   H153      1.0  0.07552  0.03808  0.94834  1.0000
  C   C134      1.0  0.01843  0.00534  0.92963  1.0000
  H   H154      1.0  0.10291  0.16268  0.95379  1.0000
  C   C135      1.0  0.07965  0.00274  0.93512  1.0000
  H   H155      1.0  0.06393  0.21658  0.55445  1.0000
  C   C136      1.0  0.01041  0.30817  0.59864  1.0000
  H   H156      1.0  0.03437  0.26192  0.62065  1.0000
  H   H157      1.0  0.21425  0.30008  0.57133  1.0000
  C   C137      1.0  0.01607  0.28194  0.86775  1.0000
  H   H158      1.0  0.06110  0.17088  0.91238  1.0000
  H   H159      1.0  0.02029  0.15417  0.50713  1.0000
  H   H160      1.0  0.16466  0.02801  0.53358  1.0000
  H   H161      1.0  0.09978  0.20321  0.96036  1.0000
  C   C138      1.0  0.06431  0.22636  0.60462  1.0000
  H   H162      1.0  0.29139  0.25625  0.90481  1.0000
  C   C139      1.0  0.05528  0.25868  0.57846  1.0000
  H   H163      1.0  0.27185  0.22186  0.50919  1.0000
  H   H164      1.0  0.21562  0.01318  0.98642  1.0000
  H   H165      1.0  0.09386  0.29976  0.68495  1.0000
  S   S43       1.0  0.14240  0.32470  0.85821  1.0000
  H   H166      1.0  0.25293  0.32701  0.88280  1.0000
  H   H167      1.0  0.11354  0.28013  0.74328  1.0000
  C   C140      1.0  0.12600  0.02141  0.94831  1.0000
  C   C141      1.0  0.09702  0.29658  0.70403  1.0000
  H   H168      1.0  0.16756  0.31323  0.52001  1.0000
  C   C142      1.0  0.24447  0.24735  0.96428  1.0000
  H   H169      1.0  0.10243  0.23582  0.85933  1.0000
  H   H170      1.0  0.22718  0.33488  0.81553  1.0000
  C   C143      1.0  0.06456  0.02295  0.94128  1.0000
  N   N7        1.0  0.09930  0.18828  0.92602  1.0000
  C   C144      1.0  0.03806  0.32075  0.63281  1.0000
  H   H171      1.0  0.13585  0.16866  0.93880  1.0000
  H   H172      1.0  0.22714  0.29196  0.91014  1.0000
  C   C145      1.0  0.11023  0.19425  0.90245  1.0000
  C   C146      1.0  0.09997  0.21412  0.89021  1.0000
  C   C147      1.0  0.13147  0.18108  0.89118  1.0000
  C   C148      1.0  0.11044  0.22046  0.86821  1.0000
  C   C149      1.0  0.14188  0.18769  0.86920  1.0000
  C   C150      1.0  0.13155  0.20741  0.85782  1.0000
  C   C151      1.0  0.01776  0.32956  0.85882  1.0000
  C   C152      1.0  0.17123  0.32554  0.74742  1.0000
  H   H173      1.0  0.08407  0.22521  0.89762  1.0000
  H   H174      1.0  0.13008  0.21152  0.94248  1.0000
  H   H175      1.0  0.23848  0.26368  0.97156  1.0000
  S   S44       1.0  0.15675  0.33078  0.65034  1.0000
  H   H176      1.0  0.05721  0.31220  0.60021  1.0000
  S   S45       1.0  0.07120  0.32829  0.64712  1.0000
  H   H177      1.0  0.21606  0.28137  0.93807  1.0000
  H   H178      1.0  0.17305  0.27125  0.51050  1.0000
  H   H179      1.0  0.08066  0.21929  0.59276  1.0000
  H   H180      1.0  0.04072  0.29862  0.71694  1.0000
  S   S46       1.0  0.13767  0.12479  0.97553  1.0000
  H   H181      1.0  0.14036  0.21282  0.84111  1.0000
  N   N8        1.0  0.19623  0.28964  0.53782  1.0000
  C   C153      1.0  0.18128  0.26850  0.52866  1.0000
  C   C154      1.0  0.20551  0.28447  0.56223  1.0000
  C   C155      1.0  0.17460  0.30829  0.53803  1.0000
  C   C156      1.0  0.08630  0.31093  0.74352  1.0000
  H   H182      1.0  0.07210  0.25284  0.56637  1.0000
  C   C157      1.0  0.11191  0.16687  0.93627  1.0000
  C   C158      1.0  0.22671  0.27628  0.92172  1.0000
  H   H183      1.0  0.10708  0.15153  0.92524  1.0000
  C   C159      1.0  0.10636  0.20754  0.94213  1.0000
  H   H184      1.0  0.19573  0.25328  0.52929  1.0000
  N   N9        1.0  0.04143  0.23919  0.59172  1.0000
  H   H185      1.0  0.03892  0.26842  0.56800  1.0000
  C   C160      1.0  0.25801  0.20400  0.94722  1.0000
  H   H186      1.0  0.18700  0.27786  0.57290  1.0000
  C   C161      1.0  0.17203  0.04956  0.50295  1.0000
  H   H187      1.0  0.09565  0.10433  0.51831  1.0000
  C   C162      1.0  0.04384  0.31760  0.86232  1.0000
  C   C163      1.0  0.22160  0.29745  0.52396  1.0000
  C   C164      1.0  0.10209  0.29231  0.75364  1.0000
  H   H188      1.0  0.08771  0.27902  0.70792  1.0000
  H   H189      1.0  0.12089  0.29633  0.70699  1.0000
  H   H190      1.0  0.11924  0.07999  0.52141  1.0000
  N   N10       1.0  0.25617  0.26728  0.92601  1.0000
  H   H191      1.0  0.21247  0.26299  0.91313  1.0000
  H   H192      1.0  0.11717  0.02535  0.96571  1.0000
  Fe  Fe23      1.0  0.17655  0.32378  0.61517  1.0000
  H   H193      1.0  0.04064  0.32976  0.71851  1.0000
  C   C165      1.0  0.07107  0.03653  0.51609  1.0000
  H   H194      1.0  0.27123  0.27974  0.89240  1.0000
  C   C166      1.0  0.26925  0.26336  0.90290  1.0000
  C   C167      1.0  0.17356  0.31593  0.72506  1.0000
  H   H195      1.0  0.05860  0.17930  0.94239  1.0000
  C   C168      1.0  0.23799  0.31746  0.53054  1.0000
  H   H196      1.0  0.11711  0.27531  0.78522  1.0000
  C   C169      1.0  0.04105  0.21309  0.55694  1.0000
  H   H197      1.0  0.19486  0.05192  0.99300  1.0000
  N   N11       1.0  0.08327  0.31470  0.71796  1.0000
  C   C170      1.0  0.07271  0.01238  0.51782  1.0000
  H   H198      1.0  0.15498  0.30293  0.54806  1.0000
  Fe  Fe24      1.0  0.18322  0.15784  0.50251  1.0000
  H   H199      1.0  0.01260  0.23595  0.62105  1.0000
  C   C171      1.0  0.27422  0.28535  0.93790  1.0000
  H   H200      1.0  0.22256  0.27113  0.56293  1.0000
  C   C172      1.0  0.23048  0.28599  0.50354  1.0000
  C   C173      1.0  0.02701  0.19804  0.54132  1.0000
  H   H201      1.0  0.02329  0.03965  0.94325  1.0000
  H   H202      1.0  0.26684  0.22069  0.91495  1.0000
  C   C174      1.0  0.09130  0.30467  0.79271  1.0000
  H   H203      1.0  0.06679  0.27112  0.59028  1.0000
  H   H204      1.0  0.12370  0.03696  0.93674  1.0000
  H   H205      1.0  0.09367  0.30247  0.81148  1.0000
  C   C175      1.0  0.26899  0.31465  0.49708  1.0000
  H   H206      1.0  0.01529  0.26346  0.87122  1.0000
  C   C176      1.0  0.07586  0.32318  0.78338  1.0000
  H   H207      1.0  0.05491  0.21149  0.61479  1.0000
  C   C177      1.0  0.08547  0.04937  0.49814  1.0000
  H   H208      1.0  0.18325  0.32427  0.54649  1.0000
  C   C178      1.0  0.07337  0.32635  0.75916  1.0000
  H   H209      1.0  0.14973  0.01897  0.95114  1.0000
  C   C179      1.0  0.17195  0.00698  0.50358  1.0000
  N   N12       1.0  0.08382  0.07498  0.49700  1.0000
  H   H210      1.0  0.46105  0.32656  0.98976  1.0000
  H   H211      1.0  0.02407  0.21609  0.96123  1.0000
  C   C180      1.0  0.19380  0.01434  0.99292  1.0000
  C   C181      1.0  0.01185  0.32286  0.64474  1.0000
  C   C182      1.0  0.02227  0.24943  0.60924  1.0000
  C   C183      1.0  0.24872  0.20592  0.97009  1.0000
  H   H212      1.0  0.42371  0.32991  0.98530  1.0000
  H   H213      1.0  0.25079  0.33476  0.84082  1.0000
  H   H214      1.0  0.24624  0.19050  0.98104  1.0000
  C   C184      1.0  0.24203  0.22756  0.97863  1.0000
  C   C185      1.0  0.05311  0.08185  0.49456  1.0000
  H   H215      1.0  0.06204  0.00295  0.53192  1.0000
  C   C186      1.0  0.40115  0.39412  0.40502  1.0000
  S   S47       1.0  0.31718  0.36539  0.45729  1.0000
  H   H216      1.0  0.34556  0.44945  0.00894  1.0000
  C   C187      1.0  0.43282  0.66046  0.42045  1.0000
  S   S48       1.0  0.38422  0.61660  0.46273  1.0000
  C   C188      1.0  0.31642  0.64492  0.11767  1.0000
  Fe  Fe25      1.0  0.40982  0.64583  0.47975  1.0000
  C   C189      1.0  0.28995  0.63605  0.12555  1.0000
  Fe  Fe26      1.0  0.34946  0.64292  0.45486  1.0000
  C   C190      1.0  0.38963  0.37492  0.39341  1.0000
  C   C191      1.0  0.26721  0.40226  0.00696  1.0000
  Fe  Fe27      1.0  0.35552  0.64925  0.03773  1.0000
  C   C192      1.0  0.33564  0.45044  0.02646  1.0000
  S   S49       1.0  0.46306  0.65879  0.01768  1.0000
  Fe  Fe28      1.0  0.41746  0.64270  0.01783  1.0000
  H   H217      1.0  0.41971  0.65664  0.43620  1.0000
  H   H218      1.0  0.33695  0.43289  0.03473  1.0000
  Fe  Fe29      1.0  0.37352  0.60222  0.01816  1.0000
  H   H219      1.0  0.38774  0.48079  0.01364  1.0000
  S   S50       1.0  0.39222  0.62522  0.04667  1.0000
  S   S51       1.0  0.35271  0.47430  0.47839  1.0000
  H   H220      1.0  0.40351  0.36083  0.38879  1.0000
  S   S52       1.0  0.33668  0.37687  0.03535  1.0000
  C   C193      1.0  0.35796  0.52183  0.47392  1.0000
  H   H221      1.0  0.32955  0.63485  0.10621  1.0000
  C   C194      1.0  0.33930  0.34667  0.44189  1.0000
  C   C195      1.0  0.25087  0.61755  0.43924  1.0000
  H   H222      1.0  0.47418  0.61124  0.03298  1.0000
  C   C196      1.0  0.38088  0.49702  0.00596  1.0000
  N   N13       1.0  0.30547  0.45865  0.02442  1.0000
  H   H223      1.0  0.46831  0.61746  0.45471  1.0000
  H   H224      1.0  0.42411  0.39492  0.40940  1.0000
  H   H225      1.0  0.27829  0.64916  0.05273  1.0000
  C   C197      1.0  0.30325  0.58824  0.44742  1.0000
  C   C198      1.0  0.48869  0.62621  0.45885  1.0000
  C   C199      1.0  0.50299  0.34851  0.07159  1.0000
  C   C200      1.0  0.38145  0.51732  0.01940  1.0000
  C   C201      1.0  0.29617  0.66456  0.41572  1.0000
  C   C202      1.0  0.48895  0.64654  0.47178  1.0000
  H   H226      1.0  0.36154  0.55917  0.46960  1.0000
  H   H227      1.0  0.29937  0.40579  0.42506  1.0000
  C   C203      1.0  0.28078  0.66521  0.39429  1.0000
  H   H228      1.0  0.37873  0.35728  0.45971  1.0000
  H   H229      1.0  0.39358  0.42628  0.42057  1.0000
  C   C204      1.0  0.35617  0.35888  0.05490  1.0000
  S   S53       1.0  0.33506  0.62531  0.01121  1.0000
  C   C205      1.0  0.30659  0.48227  0.01363  1.0000
  H   H230      1.0  0.22749  0.65854  0.06248  1.0000
  H   H231      1.0  0.33035  0.44264  0.37763  1.0000
  C   C206      1.0  0.32572  0.66710  0.12395  1.0000
  C   C207      1.0  0.23590  0.63834  0.43832  1.0000
  S   S54       1.0  0.37773  0.41308  0.47398  1.0000
  H   H232      1.0  0.30219  0.45250  0.39622  1.0000
  H   H233      1.0  0.22912  0.64576  0.42164  1.0000
  H   H234      1.0  0.29571  0.44452  0.05875  1.0000
  H   H235      1.0  0.33306  0.46440  0.42709  1.0000
  H   H236      1.0  0.31663  0.48219  0.99609  1.0000
  C   C208      1.0  0.38394  0.36544  0.06283  1.0000
  H   H237      1.0  0.39389  0.38148  0.05656  1.0000
  S   S55       1.0  0.32410  0.64408  0.42033  1.0000
  C   C209      1.0  0.39834  0.35174  0.07969  1.0000
  C   C210      1.0  0.35842  0.54489  0.48181  1.0000
  C   C211      1.0  0.26067  0.60776  0.46078  1.0000
  H   H238      1.0  0.25271  0.57062  0.43206  1.0000
  H   H239      1.0  0.29699  0.56112  0.48492  1.0000
  Fe  Fe30      1.0  0.34129  0.38845  0.48310  1.0000
  H   H240      1.0  0.30063  0.42367  0.38584  1.0000
  H   H241      1.0  0.26495  0.38467  0.01380  1.0000
  H   H242      1.0  0.45502  0.65404  0.42434  1.0000
  H   H243      1.0  0.36390  0.45832  0.40964  1.0000
  H   H244      1.0  0.36062  0.51859  0.45556  1.0000
  C   C212      1.0  0.49501  0.64259  0.02020  1.0000
  H   H245      1.0  0.49007  0.36269  0.06518  1.0000
  H   H246      1.0  0.25522  0.60949  0.42283  1.0000
  C   C213      1.0  0.37326  0.53880  0.00961  1.0000
  C   C214      1.0  0.35434  0.50294  0.48959  1.0000
  H   H247      1.0  0.31877  0.38843  0.39197  1.0000
  H   H248      1.0  0.36037  0.44656  0.43887  1.0000
  C   C215      1.0  0.36912  0.34629  0.44642  1.0000
  C   C216      1.0  0.44243  0.34306  0.02903  1.0000
  S   S56       1.0  0.37232  0.56345  0.02788  1.0000
  H   H249      1.0  0.28608  0.65320  0.38080  1.0000
  H   H250      1.0  0.41944  0.35727  0.08627  1.0000
  H   H251      1.0  0.28461  0.48971  0.01185  1.0000
  H   H252      1.0  0.31608  0.57214  0.44787  1.0000
  N   N14       1.0  0.33301  0.42977  0.41301  1.0000
  C   C217      1.0  0.31279  0.42087  0.43109  1.0000
  C   C218      1.0  0.34836  0.45062  0.42240  1.0000
  C   C219      1.0  0.31584  0.43743  0.39226  1.0000
  C   C220      1.0  0.35280  0.41112  0.40654  1.0000
  C   C221      1.0  0.34174  0.39098  0.39524  1.0000
  C   C222      1.0  0.38317  0.41207  0.41143  1.0000
  C   C223      1.0  0.36001  0.37340  0.38848  1.0000
  H   H253      1.0  0.35107  0.35809  0.38002  1.0000
  H   H254      1.0  0.31751  0.60241  0.45430  1.0000
  H   H255      1.0  0.32483  0.41482  0.44691  1.0000
  H   H256      1.0  0.29773  0.43439  0.43678  1.0000
  H   H257      1.0  0.38841  0.51644  0.03751  1.0000
  C   C224      1.0  0.25457  0.62017  0.48133  1.0000
  Fe  Fe31      1.0  0.36071  0.39174  0.00430  1.0000
  H   H258      1.0  0.23674  0.56535  0.46009  1.0000
  H   H259      1.0  0.48964  0.33911  0.44471  1.0000
  N   N15       1.0  0.27638  0.58563  0.46122  1.0000
  H   H260      1.0  0.30548  0.47450  0.05829  1.0000
  H   H261      1.0  0.32021  0.49460  0.02411  1.0000
  S   S57       1.0  0.32624  0.63756  0.48863  1.0000
  H   H262      1.0  0.27032  0.46523  0.04741  1.0000
  C   C225      1.0  0.27255  0.64942  0.13958  1.0000
  C   C226      1.0  0.29368  0.46078  0.04822  1.0000
  C   C227      1.0  0.28309  0.41881  0.01965  1.0000
  C   C228      1.0  0.28764  0.44175  0.01089  1.0000
  H   H263      1.0  0.34963  0.46231  0.03709  1.0000
  H   H264      1.0  0.26840  0.54998  0.45177  1.0000
  H   H265      1.0  0.21983  0.66670  0.45775  1.0000
  H   H266      1.0  0.29264  0.41318  0.03609  1.0000
  S   S58       1.0  0.39791  0.41760  0.00415  1.0000
  C   C229      1.0  0.49463  0.61975  0.02874  1.0000
  C   C230      1.0  0.25774  0.56712  0.45080  1.0000
  H   H267      1.0  0.46495  0.34857  0.02458  1.0000
  H   H268      1.0  0.24865  0.65783  0.18282  1.0000
  H   H269      1.0  0.25224  0.64172  0.14526  1.0000
  H   H270      1.0  0.29971  0.59039  0.49382  1.0000
  H   H271      1.0  0.44044  0.34392  0.04827  1.0000
  H   H272      1.0  0.42778  0.35622  0.02104  1.0000
  H   H273      1.0  0.28274  0.61883  0.12044  1.0000
  H   H274      1.0  0.29886  0.59266  0.42877  1.0000
  S   S59       1.0  0.45664  0.65959  0.48066  1.0000
  H   H275      1.0  0.42364  0.64967  0.40616  1.0000
  C   C231      1.0  0.23997  0.64116  0.48015  1.0000
  C   C232      1.0  0.28490  0.57762  0.48510  1.0000
  C   C233      1.0  0.27392  0.66470  0.06224  1.0000
  H   H276      1.0  0.50420  0.37542  0.49401  1.0000
  C   C234      1.0  0.23065  0.65021  0.45870  1.0000
  C   C235      1.0  0.34317  0.33832  0.06358  1.0000
  S   S60       1.0  0.36665  0.47239  0.96565  1.0000
  H   H277      1.0  0.25024  0.43471  0.95901  1.0000
  H   H278      1.0  0.22804  0.38599  0.87768  1.0000
  S   S61       1.0  0.36492  0.37359  0.51393  1.0000
  H   H279      1.0  0.21036  0.37350  0.79948  1.0000
  S   S62       1.0  0.38067  0.42734  0.52923  1.0000
  C   C236      1.0  0.25506  0.38014  0.84705  1.0000
  Fe  Fe32      1.0  0.35590  0.43876  0.49683  1.0000
  H   H280      1.0  0.50881  0.44423  0.54446  1.0000
  Fe  Fe33      1.0  0.34357  0.40117  0.53428  1.0000
  S   S63       1.0  0.32780  0.38894  0.57016  1.0000
  C   C237      1.0  0.25969  0.33746  0.89744  1.0000
  H   H281      1.0  0.20777  0.35294  0.86024  1.0000
  C   C238      1.0  0.27518  0.44709  0.98861  1.0000
  Fe  Fe34      1.0  0.35612  0.66545  0.50273  1.0000
  C   C239      1.0  0.25849  0.35499  0.60013  1.0000
  C   C240      1.0  0.24169  0.37104  0.56328  1.0000
  H   H282      1.0  0.25437  0.34541  0.61617  1.0000
  H   H283      1.0  0.32723  0.39662  0.84666  1.0000
  Fe  Fe35      1.0  0.35810  0.38672  0.95137  1.0000
  H   H284      1.0  0.26573  0.57440  0.49633  1.0000
  S   S64       1.0  0.33579  0.36641  0.92170  1.0000
  Fe  Fe36      1.0  0.41724  0.39426  0.97755  1.0000
  S   S65       1.0  0.46259  0.37967  0.98347  1.0000
  Fe  Fe37      1.0  0.37448  0.43391  0.97338  1.0000
  C   C241      1.0  0.47247  0.37707  0.56722  1.0000
  S   S66       1.0  0.38121  0.36729  0.98010  1.0000
  S   S67       1.0  0.39601  0.41194  0.94653  1.0000
  C   C242      1.0  0.49566  0.39196  0.97292  1.0000
  H   H285      1.0  0.23259  0.36431  0.94431  1.0000
  H   H286      1.0  0.35807  0.55604  0.97833  1.0000
  C   C243      1.0  0.24903  0.38825  0.86975  1.0000
  H   H287      1.0  0.26593  0.40421  0.90107  1.0000
  C   C244      1.0  0.36331  0.51931  0.97285  1.0000
  S   S68       1.0  0.40089  0.61876  0.98988  1.0000
  H   H288      1.0  0.30374  0.36193  0.60844  1.0000
  H   H289      1.0  0.41689  0.42037  0.59966  1.0000
  H   H290      1.0  0.31572  0.40908  0.88641  1.0000
  S   S69       1.0  0.31744  0.41465  0.50361  1.0000
  H   H291      1.0  0.41750  0.35559  0.56442  1.0000
  S   S70       1.0  0.20130  0.33839  0.90938  1.0000
  H   H292      1.0  0.08595  0.35221  0.71904  1.0000
  H   H293      1.0  0.41680  0.38234  0.54754  1.0000
  C   C245      1.0  0.29853  0.35775  0.91937  1.0000
  C   C246      1.0  0.27793  0.36477  0.93530  1.0000
  C   C247      1.0  0.24837  0.35848  0.93209  1.0000
  C   C248      1.0  0.47920  0.40075  0.51161  1.0000
  S   S71       1.0  0.34885  0.65663  0.94961  1.0000
  H   H294      1.0  0.28476  0.37538  0.94986  1.0000
  C   C249      1.0  0.45576  0.38806  0.58433  1.0000
  C   C250      1.0  0.28372  0.38402  0.83889  1.0000
  H   H295      1.0  0.42061  0.38438  0.62209  1.0000
  C   C251      1.0  0.48066  0.42041  0.52557  1.0000
  H   H296      1.0  0.35588  0.52018  0.95485  1.0000
  H   H297      1.0  0.46088  0.42824  0.53108  1.0000
  C   C252      1.0  0.49667  0.41201  0.95887  1.0000
  S   S72       1.0  0.19983  0.34737  0.58839  1.0000
  C   C253      1.0  0.22715  0.38208  0.81087  1.0000
  C   C254      1.0  0.36454  0.53972  0.98612  1.0000
  C   C255      1.0  0.25914  0.43041  0.97612  1.0000
  H   H298      1.0  0.24322  0.39508  0.97533  1.0000
  C   C256      1.0  0.47132  0.40091  0.60156  1.0000
  H   H299      1.0  0.34802  0.53373  0.53947  1.0000
  H   H300      1.0  0.06629  0.33536  0.79504  1.0000
  H   H301      1.0  0.38777  0.41024  0.58158  1.0000
  H   H302      1.0  0.18904  0.35431  0.83271  1.0000
  C   C257      1.0  0.26979  0.37994  0.55860  1.0000
  C   C258      1.0  0.29237  0.37685  0.57486  1.0000
  C   C259      1.0  0.28652  0.36435  0.59567  1.0000
  C   C260      1.0  0.35106  0.50742  0.51331  1.0000
  S   S73       1.0  0.44582  0.38701  0.50363  1.0000
  H   H303      1.0  0.27380  0.38967  0.54263  1.0000
  H   H304      1.0  0.28983  0.37871  0.82170  1.0000
  Fe  Fe38      1.0  0.36439  0.64383  0.98536  1.0000
  C   C261      1.0  0.41190  0.41051  0.58358  1.0000
  C   C262      1.0  0.20496  0.36373  0.84410  1.0000
  C   C263      1.0  0.50785  0.42943  0.53312  1.0000
  C   C264      1.0  0.27067  0.39888  0.88350  1.0000
  H   H305      1.0  0.34809  0.49314  0.52558  1.0000
  C   C265      1.0  0.29879  0.40167  0.87526  1.0000
  H   H306      1.0  0.42234  0.35710  0.60764  1.0000
  N   N16       1.0  0.23305  0.36803  0.83225  1.0000
  H   H307      1.0  0.42104  0.42067  0.56860  1.0000
  N   N17       1.0  0.42362  0.38677  0.58448  1.0000
  H   H308      1.0  0.47676  0.42048  0.95391  1.0000
  C   C266      1.0  0.35100  0.53049  0.52113  1.0000
  C   C267      1.0  0.23903  0.34494  0.91309  1.0000
  C   C268      1.0  0.23581  0.35845  0.58401  1.0000
  C   C269      1.0  0.37125  0.49782  0.98269  1.0000
  H   H309      1.0  0.22435  0.37396  0.55072  1.0000
  H   H310      1.0  0.38655  0.37345  0.56490  1.0000
  S   S74       1.0  0.38991  0.64046  0.51497  1.0000
  C   C270      1.0  0.50158  0.40327  0.60120  1.0000
  S   S75       1.0  0.35293  0.57809  0.51620  1.0000
  H   H311      1.0  0.30494  0.33853  0.88802  1.0000
  S   S76       1.0  0.33538  0.40978  0.97579  1.0000
  H   H312      1.0  0.21922  0.39951  0.81533  1.0000
  C   C271      1.0  0.30525  0.39443  0.85293  1.0000
  C   C272      1.0  0.35468  0.54937  0.50549  1.0000
  H   H313      1.0  0.24679  0.38473  0.80007  1.0000
  H   H314      1.0  0.43912  0.66301  0.96959  1.0000
  C   C273      1.0  0.24399  0.34520  0.82527  1.0000
  H   H315      1.0  0.19453  0.38018  0.84875  1.0000
  H   H316      1.0  0.46013  0.40955  0.61523  1.0000
  C   C274      1.0  0.41071  0.37395  0.56445  1.0000
  C   C275      1.0  0.28922  0.34393  0.90052  1.0000
  Fe  Fe39      1.0  0.39998  0.40038  0.50657  1.0000
  C   C276      1.0  0.50274  0.37933  0.56722  1.0000
  C   C277      1.0  0.50512  0.39068  0.50474  1.0000
  H   H317      1.0  0.26284  0.34681  0.81350  1.0000
  C   C278      1.0  0.25518  0.40805  0.98526  1.0000
  C   C279      1.0  0.41365  0.37491  0.60616  1.0000
  H   H318      1.0  0.46277  0.36718  0.55316  1.0000
  H   H319      1.0  0.38947  0.37339  0.60655  1.0000
  H   H320      1.0  0.27799  0.46385  0.98019  1.0000
  H   H321      1.0  0.01852  0.34810  0.85564  1.0000
  H   H322      1.0  0.16795  0.34394  0.74898  1.0000
  Fe  Fe40      1.0  0.36223  0.61270  0.49741  1.0000
  H   H323      1.0  0.26141  0.61435  0.49851  1.0000
  H   H324      1.0  0.41094  0.66599  0.93273  1.0000
  H   H325      1.0  0.27315  0.34146  0.52261  1.0000
  C   C280      1.0  0.09693  0.33733  0.71129  1.0000
  H   H326      1.0  0.12009  0.33821  0.71701  1.0000
  H   H327      1.0  0.09635  0.34031  0.69201  1.0000
  H   H328      1.0  0.06167  0.34121  0.75273  1.0000
  H   H329      1.0  0.27727  0.66233  0.98310  1.0000
  H   H330      1.0  0.23625  0.65067  0.49594  1.0000
  H   H331      1.0  0.18378  0.82144  0.47012  1.0000
  S   S77       1.0  0.12593  0.86856  0.03693  1.0000
  H   H332      1.0  0.40290  0.72051  0.43770  1.0000
  S   S78       1.0  0.14043  0.92807  0.47653  1.0000
  Fe  Fe41      1.0  0.17546  0.90140  0.47702  1.0000
  S   S79       1.0  0.19790  0.88507  0.44673  1.0000
  Fe  Fe42      1.0  0.14957  0.77201  0.37781  1.0000
  S   S80       1.0  0.14457  0.73546  0.39124  1.0000
  S   S81       1.0  0.13044  0.80140  0.39802  1.0000
  Fe  Fe43      1.0  0.17440  0.75630  0.33119  1.0000
  S   S82       1.0  0.17180  0.71846  0.34168  1.0000
  S   S83       1.0  0.18641  0.77450  0.29684  1.0000
  Fe  Fe44      1.0  0.12754  0.72713  0.35536  1.0000
  S   S84       1.0  0.08605  0.70636  0.34743  1.0000
  Fe  Fe45      1.0  0.18932  0.73009  0.37698  1.0000
  S   S85       1.0  0.22295  0.71718  0.40401  1.0000
  S   S86       1.0  0.12945  0.76395  0.34286  1.0000
  S   S87       1.0  0.19487  0.76754  0.36538  1.0000
  H   H333      1.0  0.27507  0.71986  0.14628  1.0000
  Fe  Fe46      1.0  0.18617  0.72350  0.11206  1.0000
  S   S88       1.0  0.21697  0.74723  0.13114  1.0000
  S   S89       1.0  0.20233  0.69564  0.08767  1.0000
  Fe  Fe47      1.0  0.13225  0.74531  0.13474  1.0000
  S   S90       1.0  0.16051  0.77112  0.15428  1.0000
  S   S91       1.0  0.08618  0.74349  0.14891  1.0000
  Fe  Fe48      1.0  0.18521  0.77483  0.12074  1.0000
  S   S92       1.0  0.20460  0.80763  0.10441  1.0000
  Fe  Fe49      1.0  0.18903  0.74108  0.16271  1.0000
  S   S93       1.0  0.20417  0.72725  0.19833  1.0000
  S   S94       1.0  0.15506  0.75128  0.10038  1.0000
  S   S95       1.0  0.16027  0.71512  0.14428  1.0000
  H   H334      1.0  0.11242  0.83099  0.06821  1.0000
  C   C281      1.0  0.25844  0.68124  0.39019  1.0000
  C   C282      1.0  0.05207  0.74302  0.13414  1.0000
  C   C283      1.0  0.02666  0.74241  0.14746  1.0000
  C   C284      1.0  0.04960  0.74304  0.10980  1.0000
  H   H335      1.0  0.02834  0.74246  0.16629  1.0000
  H   H336      1.0  0.06894  0.74348  0.09935  1.0000
  C   C285      1.0  0.23901  0.68988  0.08072  1.0000
  C   C286      1.0  0.29082  0.69916  0.08203  1.0000
  C   C287      1.0  0.26208  0.70453  0.08761  1.0000
  H   H337      1.0  0.30849  0.71050  0.08767  1.0000
  H   H338      1.0  0.25783  0.71997  0.09728  1.0000
  C   C288      1.0  0.05231  0.71874  0.35389  1.0000
  H   H339      1.0  0.20606  0.74401  0.06390  1.0000
  C   C289      1.0  0.05092  0.74154  0.36157  1.0000
  H   H340      1.0  0.12204  0.68632  0.22226  1.0000
  H   H341      1.0  0.07069  0.75169  0.36412  1.0000
  C   C290      1.0  0.18973  0.76076  0.26956  1.0000
  C   C291      1.0  0.18915  0.77435  0.24895  1.0000
  C   C292      1.0  0.19310  0.76433  0.22699  1.0000
  C   C293      1.0  0.19821  0.74062  0.22547  1.0000
  C   C294      1.0  0.19890  0.72703  0.24609  1.0000
  C   C295      1.0  0.19425  0.73696  0.26799  1.0000
  H   H342      1.0  0.18583  0.79280  0.24998  1.0000
  H   H343      1.0  0.19271  0.77504  0.21130  1.0000
  H   H344      1.0  0.20306  0.70871  0.24515  1.0000
  H   H345      1.0  0.19501  0.72634  0.28372  1.0000
  C   C296      1.0  0.25123  0.69681  0.40755  1.0000
  C   C297      1.0  0.28348  0.74050  0.00251  1.0000
  C   C298      1.0  0.34516  0.70791  0.40306  1.0000
  S   S96       1.0  0.33391  0.67296  0.06387  1.0000
  C   C299      1.0  0.14931  0.99566  0.00579  1.0000
  C   C300      1.0  0.17989  0.86047  0.43495  1.0000
  C   C301      1.0  0.15020  0.85668  0.43832  1.0000
  C   C302      1.0  0.13560  0.83811  0.42733  1.0000
  C   C303      1.0  0.15059  0.82288  0.41329  1.0000
  C   C304      1.0  0.18056  0.82601  0.41072  1.0000
  C   C305      1.0  0.19512  0.84495  0.42132  1.0000
  H   H346      1.0  0.13820  0.86856  0.44866  1.0000
  H   H347      1.0  0.11243  0.83579  0.42942  1.0000
  H   H348      1.0  0.19232  0.81425  0.40011  1.0000
  H   H349      1.0  0.21810  0.84779  0.41865  1.0000
  H   H350      1.0  0.32272  0.71281  0.40056  1.0000
  C   C306      1.0  0.14860  0.85027  0.05364  1.0000
  C   C307      1.0  0.17880  0.85319  0.05381  1.0000
  C   C308      1.0  0.19592  0.83974  0.06917  1.0000
  C   C309      1.0  0.18297  0.82297  0.08400  1.0000
  C   C310      1.0  0.15290  0.81950  0.08315  1.0000
  C   C311      1.0  0.13578  0.83329  0.06821  1.0000
  H   H351      1.0  0.18879  0.86650  0.04293  1.0000
  H   H352      1.0  0.21915  0.84267  0.07000  1.0000
  H   H353      1.0  0.14272  0.80670  0.09456  1.0000
  H   H354      1.0  0.25732  0.72088  0.17369  1.0000
  H   H355      1.0  0.34606  0.67405  0.11720  1.0000
  C   C312      1.0  0.19345  0.87623  0.11618  1.0000
  H   H356      1.0  0.34256  0.68170  0.37701  1.0000
  N   N18       1.0  0.19839  0.81004  0.99604  1.0000
  C   C313      1.0  0.21830  0.88968  0.11182  1.0000
  H   H357      1.0  0.31675  0.69792  0.14141  1.0000
  H   H358      1.0  0.13792  0.75029  0.21551  1.0000
  H   H359      1.0  0.23800  0.92783  0.05410  1.0000
  C   C314      1.0  0.25586  0.69428  0.00977  1.0000
  H   H360      1.0  0.15946  0.91458  0.04121  1.0000
  H   H361      1.0  0.03611  0.82883  0.49406  1.0000
  H   H362      1.0  0.26149  0.70813  0.44245  1.0000
  N   N19       1.0  0.10776  0.72137  0.21669  1.0000
  C   C315      1.0  0.18631  0.75401  0.03108  1.0000
  H   H363      1.0  0.05647  0.76035  0.27308  1.0000
  H   H364      1.0  0.21532  0.93778  0.03088  1.0000
  H   H365      1.0  0.25767  0.70355  0.02660  1.0000
  S   S97       1.0  0.37721  0.67214  0.46826  1.0000
  H   H366      1.0  0.43739  0.69543  0.45068  1.0000
  H   H367      1.0  0.17309  0.73825  0.03005  1.0000
  C   C316      1.0  0.21840  0.83035  0.99923  1.0000
  H   H368      1.0  0.10287  0.75638  0.20314  1.0000
  H   H369      1.0  0.44109  0.67934  0.37821  1.0000
  H   H370      1.0  0.30072  0.68003  0.44952  1.0000
  H   H371      1.0  0.13273  0.70354  0.25856  1.0000
  C   C317      1.0  0.23257  0.68760  0.14908  1.0000
  C   C318      1.0  0.02636  0.70571  0.35094  1.0000
  H   H372      1.0  0.02072  0.81276  0.07760  1.0000
  C   C319      1.0  0.35644  0.69043  0.38972  1.0000
  C   C320      1.0  0.02394  0.75126  0.36609  1.0000
  H   H373      1.0  0.23391  0.69500  0.13111  1.0000
  H   H374      1.0  0.45183  0.71661  0.43005  1.0000
  H   H375      1.0  0.01629  0.83972  0.04488  1.0000
  H   H376      1.0  0.14862  0.87005  0.10719  1.0000
  C   C321      1.0  0.36240  0.71852  0.42012  1.0000
  C   C322      1.0  0.20179  0.81077  0.47734  1.0000
  H   H377      1.0  0.24507  0.68585  0.19513  1.0000
  H   H378      1.0  0.16225  0.82601  0.01223  1.0000
  C   C323      1.0  0.40314  0.69367  0.41083  1.0000
  C   C324      1.0  0.26682  0.69621  0.42887  1.0000
  H   H379      1.0  0.23909  0.77932  0.48350  1.0000
  C   C325      1.0  0.20486  0.75721  0.05021  1.0000
  H   H380      1.0  0.12735  0.73942  0.18744  1.0000
  C   C326      1.0  0.16696  0.89855  0.08708  1.0000
  H   H381      1.0  0.08593  0.70843  0.18572  1.0000
  H   H382      1.0  0.35323  0.73173  0.43084  1.0000
  H   H383      1.0  0.01989  0.83861  0.41444  1.0000
  H   H384      1.0  0.47101  0.69068  0.43702  1.0000
  H   H385      1.0  0.39238  0.66937  0.38299  1.0000
  C   C327      1.0  0.11552  0.71566  0.26062  1.0000
  C   C328      1.0  0.24513  0.67004  0.06787  1.0000
  C   C329      1.0  0.08109  0.71364  0.20388  1.0000
  C   C330      1.0  0.10092  0.72626  0.24128  1.0000
  N   N20       1.0  0.18485  0.83743  0.33592  1.0000
  C   C331      1.0  0.21068  0.82338  0.34154  1.0000
  C   C332      1.0  0.15893  0.82175  0.33747  1.0000
  C   C333      1.0  0.18679  0.84589  0.31141  1.0000
  C   C334      1.0  0.18392  0.85735  0.35184  1.0000
  C   C335      1.0  0.20782  0.87326  0.35338  1.0000
  C   C336      1.0  0.15988  0.86146  0.36635  1.0000
  C   C337      1.0  0.20806  0.89159  0.36904  1.0000
  C   C338      1.0  0.16022  0.88005  0.38169  1.0000
  C   C339      1.0  0.18438  0.89487  0.38329  1.0000
  H   H386      1.0  0.21099  0.81794  0.36028  1.0000
  H   H387      1.0  0.21102  0.80735  0.33094  1.0000
  H   H388      1.0  0.23141  0.83283  0.33802  1.0000
  H   H389      1.0  0.15678  0.81408  0.35531  1.0000
  H   H390      1.0  0.16023  0.80696  0.32537  1.0000
  H   H391      1.0  0.13862  0.83081  0.33267  1.0000
  H   H392      1.0  0.20688  0.85640  0.30829  1.0000
  H   H393      1.0  0.18704  0.83117  0.29900  1.0000
  H   H394      1.0  0.16796  0.85681  0.30658  1.0000
  H   H395      1.0  0.22675  0.87136  0.34278  1.0000
  H   H396      1.0  0.14091  0.85013  0.36690  1.0000
  H   H397      1.0  0.22690  0.90309  0.37051  1.0000
  H   H398      1.0  0.14211  0.88239  0.39321  1.0000
  H   H399      1.0  0.18497  0.90858  0.39602  1.0000
  N   N21       1.0  0.43318  0.68564  0.41463  1.0000
  C   C340      1.0  0.18424  0.77120  0.01364  1.0000
  H   H400      1.0  0.24147  0.82513  0.99968  1.0000
  H   H401      1.0  0.15078  0.70825  0.22214  1.0000
  H   H402      1.0  0.21362  0.83978  0.01543  1.0000
  H   H403      1.0  0.18011  0.99136  0.47059  1.0000
  H   H404      1.0  0.29366  0.71125  0.17312  1.0000
  H   H405      1.0  0.13404  0.69968  0.19551  1.0000
  C   C341      1.0  0.11943  0.74279  0.20528  1.0000
  C   C342      1.0  0.22130  0.77765  0.05205  1.0000
  C   C343      1.0  0.44896  0.69775  0.43386  1.0000
  C   C344      1.0  0.28911  0.68024  0.43295  1.0000
  H   H406      1.0  0.07038  0.69859  0.21286  1.0000
  N   N22       1.0  0.19260  0.93029  0.06303  1.0000
  C   C345      1.0  0.19825  0.95334  0.07342  1.0000
  C   C346      1.0  0.21595  0.92568  0.04627  1.0000
  C   C347      1.0  0.16496  0.93149  0.04945  1.0000
  C   C348      1.0  0.19217  0.91218  0.08169  1.0000
  N   N23       1.0  0.28206  0.69759  0.99521  1.0000
  H   H407      1.0  0.02728  0.68798  0.34523  1.0000
  H   H408      1.0  0.20631  0.85464  0.48644  1.0000
  H   H409      1.0  0.47304  0.68444  0.39553  1.0000
  H   H410      1.0  0.21873  0.81093  0.46370  1.0000
  H   H411      1.0  0.21965  0.95442  0.08258  1.0000
  H   H412      1.0  0.19826  0.96741  0.05980  1.0000
  H   H413      1.0  0.02022  0.74214  0.08008  1.0000
  C   C349      1.0  0.27261  0.71060  0.16338  1.0000
  H   H414      1.0  0.21797  0.69864  0.15912  1.0000
  H   H415      1.0  0.28658  0.77742  0.00753  1.0000
  H   H416      1.0  0.14656  0.93637  0.06054  1.0000
  H   H417      1.0  0.16621  0.94477  0.03511  1.0000
  H   H418      1.0  0.19417  0.86186  0.12863  1.0000
  H   H419      1.0  0.02515  0.87491  0.43568  1.0000
  H   H420      1.0  0.24669  0.68147  0.37371  1.0000
  H   H421      1.0  0.30742  0.67393  0.01622  1.0000
  Fe  Fe50      1.0  0.14036  0.88883  0.00494  1.0000
  C   C350      1.0  0.07266  0.74763  0.26951  1.0000
  C   C351      1.0  0.29700  0.67918  0.06943  1.0000
  C   C352      1.0  0.08701  0.73664  0.28804  1.0000
  H   H422      1.0  0.01126  0.85217  0.00718  1.0000
  C   C353      1.0  0.30804  0.69218  0.00961  1.0000
  H   H423      1.0  0.06811  0.75178  0.23263  1.0000
  H   H424      1.0  0.31035  0.70341  0.02514  1.0000
  H   H425      1.0  0.14649  0.90054  0.07790  1.0000
  C   C354      1.0  0.20096  0.79215  0.01479  1.0000
  C   C355      1.0  0.38495  0.68335  0.39348  1.0000
  H   H426      1.0  0.23489  0.78042  0.06744  1.0000
  C   C356      1.0  0.21952  0.79492  0.03468  1.0000
  H   H427      1.0  0.23610  0.70031  0.00031  1.0000
  C   C357      1.0  0.07946  0.74258  0.24646  1.0000
  H   H428      1.0  0.02328  0.76895  0.37194  1.0000
  H   H429      1.0  0.18136  0.95734  0.08634  1.0000
  H   H430      1.0  0.21388  0.90771  0.03961  1.0000
  H   H431      1.0  0.08182  0.74050  0.30596  1.0000
  C   C358      1.0  0.02195  0.74228  0.09893  1.0000
  H   H432      1.0  0.11972  0.71251  0.29818  1.0000
  H   H433      1.0  0.23754  0.91744  0.09221  1.0000
  C   C359      1.0  0.12954  0.70303  0.21420  1.0000
  H   H434      1.0  0.22130  0.67047  0.14779  1.0000
  C   C360      1.0  0.39105  0.71174  0.42393  1.0000
  C   C361      1.0  0.21770  0.90754  0.09499  1.0000
  H   H435      1.0  0.23823  0.88595  0.12130  1.0000
  C   C362      1.0  0.10843  0.72077  0.28360  1.0000
  H   H436      1.0  0.13653  0.98011  0.00946  1.0000
  H   H437      1.0  0.19271  0.79283  0.47949  1.0000
  C   C363      1.0  0.16777  0.88088  0.10407  1.0000
  H   H438      1.0  0.23245  0.81046  0.03757  1.0000
  H   H439      1.0  0.24273  0.84498  0.48393  1.0000
  H   H440      1.0  0.06502  0.72761  0.20180  1.0000
  H   H441      1.0  0.28055  0.73728  0.02098  1.0000
  H   H442      1.0  0.01270  0.88233  0.48422  1.0000
  H   H443      1.0  0.16912  0.76808  0.99938  1.0000
  H   H444      1.0  0.44998  0.70819  0.38758  1.0000
  H   H445      1.0  0.25211  0.67572  0.01478  1.0000
  S   S98       1.0  0.12367  0.92466  0.99849  1.0000
  C   C364      1.0  0.17734  0.99390  0.99713  1.0000
  C   C365      1.0  0.45002  0.68957  0.39304  1.0000
  N   N24       1.0  0.26180  0.68637  0.16018  1.0000
  H   H446      1.0  0.32818  0.69464  0.99938  1.0000
  C   C366      1.0  0.28098  0.67236  0.14579  1.0000
  C   C367      1.0  0.16837  0.81876  0.99515  1.0000
  C   C368      1.0  0.30839  0.68073  0.13776  1.0000
  C   C369      1.0  0.25889  0.67542  0.18364  1.0000
  H   H447      1.0  0.28046  0.67372  0.19242  1.0000
  S   S99       1.0  0.38268  0.66868  0.01142  1.0000
  H   H448      1.0  0.01094  0.80004  0.41521  1.0000
  C   C370      1.0  0.28709  0.76357  0.99501  1.0000
  Fe  Fe51      1.0  0.40043  0.81357  0.85855  1.0000
  S   S100      1.0  0.38612  0.77637  0.85511  1.0000
  S   S101      1.0  0.44600  0.82411  0.84707  1.0000
  Fe  Fe52      1.0  0.33768  0.82872  0.86995  1.0000
  S   S102      1.0  0.31974  0.79244  0.86662  1.0000
  S   S103      1.0  0.30928  0.85966  0.87758  1.0000
  Fe  Fe53      1.0  0.35963  0.78222  0.88704  1.0000
  S   S104      1.0  0.36032  0.76354  0.92211  1.0000
  Fe  Fe54      1.0  0.34806  0.79054  0.83479  1.0000
  S   S105      1.0  0.33369  0.77433  0.80037  1.0000
  S   S106      1.0  0.37653  0.81882  0.89182  1.0000
  S   S107      1.0  0.36341  0.82747  0.83677  1.0000
  S   S108      1.0  0.12549  0.87578  0.97006  1.0000
  H   H449      1.0  0.47534  0.73093  0.95834  1.0000
  S   S109      1.0  0.15530  0.92285  0.94725  1.0000
  C   C371      1.0  0.01472  0.83365  0.49960  1.0000
  Fe  Fe55      1.0  0.11198  0.91229  0.96264  1.0000
  S   S110      1.0  0.06946  0.92715  0.94933  1.0000
  Fe  Fe56      1.0  0.17020  0.88706  0.95792  1.0000
  S   S111      1.0  0.19480  0.85860  0.93966  1.0000
  H   H450      1.0  0.42653  0.77555  0.70432  1.0000
  Fe  Fe57      1.0  0.39946  0.79870  0.63138  1.0000
  S   S112      1.0  0.37306  0.77668  0.65625  1.0000
  S   S113      1.0  0.44609  0.78667  0.63661  1.0000
  Fe  Fe58      1.0  0.34340  0.82227  0.61237  1.0000
  S   S114      1.0  0.31432  0.80153  0.63642  1.0000
  S   S115      1.0  0.32648  0.84834  0.58492  1.0000
  Fe  Fe59      1.0  0.34874  0.80857  0.66412  1.0000
  S   S116      1.0  0.34383  0.82382  0.70033  1.0000
  Fe  Fe60      1.0  0.34191  0.77157  0.62633  1.0000
  S   S117      1.0  0.32808  0.73440  0.61937  1.0000
  S   S118      1.0  0.37654  0.83125  0.64067  1.0000
  S   S119      1.0  0.36931  0.79176  0.60088  1.0000
  C   C372      1.0  0.35287  0.68627  0.94152  1.0000
  C   C373      1.0  0.44754  0.81912  0.75846  1.0000
  Fe  Fe61      1.0  0.17621  0.89509  0.52975  1.0000
  C   C374      1.0  0.29017  0.72785  0.96290  1.0000
  S   S120      1.0  0.19482  0.87392  0.56039  1.0000
  H   H451      1.0  0.22825  0.91815  0.60971  1.0000
  C   C375      1.0  0.46125  0.71712  0.95203  1.0000
  S   S121      1.0  0.14001  0.92030  0.53388  1.0000
  C   C376      1.0  0.42539  0.68021  0.93785  1.0000
  S   S122      1.0  0.34491  0.70081  0.51588  1.0000
  H   H452      1.0  0.10636  0.98203  0.97081  1.0000
  C   C377      1.0  0.44114  0.67852  0.95870  1.0000
  C   C378      1.0  0.33062  0.72485  0.59043  1.0000
  C   C379      1.0  0.33041  0.70101  0.58584  1.0000
  C   C380      1.0  0.33497  0.69314  0.56307  1.0000
  C   C381      1.0  0.33903  0.70917  0.54477  1.0000
  C   C382      1.0  0.33835  0.73294  0.54931  1.0000
  C   C383      1.0  0.33413  0.74077  0.57201  1.0000
  H   H453      1.0  0.32735  0.68861  0.60001  1.0000
  C   C384      1.0  0.45905  0.69691  0.96577  1.0000
  H   H454      1.0  0.34147  0.74536  0.53517  1.0000
  H   H455      1.0  0.33365  0.75912  0.57525  1.0000
  C   C385      1.0  0.28963  0.85472  0.57801  1.0000
  C   C386      1.0  0.26658  0.84597  0.59136  1.0000
  C   C387      1.0  0.23782  0.85218  0.58579  1.0000
  C   C388      1.0  0.23163  0.86714  0.56680  1.0000
  C   C389      1.0  0.25464  0.87585  0.55336  1.0000
  C   C390      1.0  0.28341  0.86960  0.55892  1.0000
  H   H456      1.0  0.27093  0.83455  0.60611  1.0000
  H   H457      1.0  0.22024  0.84527  0.59629  1.0000
  H   H458      1.0  0.25036  0.88738  0.53871  1.0000
  H   H459      1.0  0.30105  0.87652  0.54850  1.0000
  H   H460      1.0  0.46221  0.80752  0.89392  1.0000
  C   C391      1.0  0.35751  0.73361  0.92855  1.0000
  C   C392      1.0  0.36518  0.72613  0.95114  1.0000
  C   C393      1.0  0.36315  0.70262  0.95749  1.0000
  C   C394      1.0  0.01438  0.93214  0.52852  1.0000
  C   C395      1.0  0.34512  0.69372  0.91882  1.0000
  C   C396      1.0  0.34764  0.71735  0.91225  1.0000
  H   H461      1.0  0.37285  0.73860  0.96385  1.0000
  H   H462      1.0  0.36971  0.69728  0.97477  1.0000
  C   C397      1.0  0.42483  0.83372  0.71098  1.0000
  H   H463      1.0  0.34155  0.72298  0.89478  1.0000
  C   C398      1.0  0.33903  0.78778  0.77258  1.0000
  C   C399      1.0  0.34765  0.81108  0.77033  1.0000
  C   C400      1.0  0.34944  0.82171  0.74807  1.0000
  C   C401      1.0  0.34344  0.80903  0.72775  1.0000
  C   C402      1.0  0.33605  0.78545  0.72991  1.0000
  C   C403      1.0  0.33355  0.77496  0.75224  1.0000
  H   H464      1.0  0.35247  0.82102  0.78573  1.0000
  H   H465      1.0  0.35522  0.83994  0.74661  1.0000
  H   H466      1.0  0.33125  0.77549  0.71443  1.0000
  H   H467      1.0  0.32696  0.75689  0.75378  1.0000
  C   C404      1.0  0.27817  0.85907  0.89568  1.0000
  C   C405      1.0  0.26596  0.88010  0.90221  1.0000
  C   C406      1.0  0.24079  0.88036  0.91596  1.0000
  C   C407      1.0  0.22720  0.85953  0.92302  1.0000
  C   C408      1.0  0.23936  0.83850  0.91640  1.0000
  C   C409      1.0  0.26477  0.83824  0.90299  1.0000
  H   H468      1.0  0.27608  0.89632  0.89664  1.0000
  H   H469      1.0  0.23172  0.89668  0.92080  1.0000
  H   H470      1.0  0.22897  0.82226  0.92147  1.0000
  H   H471      1.0  0.27375  0.82193  0.89802  1.0000
  C   C410      1.0  0.04062  0.92316  0.52067  1.0000
  H   H472      1.0  0.14134  0.97903  0.95772  1.0000
  C   C411      1.0  0.27990  0.68041  0.97619  1.0000
  H   H473      1.0  0.06118  0.92980  0.52739  1.0000
  Fe  Fe62      1.0  0.16424  0.94302  0.50779  1.0000
  H   H474      1.0  0.42236  0.75302  0.58255  1.0000
  C   C412      1.0  0.48008  0.79956  0.62923  1.0000
  C   C413      1.0  0.48255  0.81863  0.61397  1.0000
  H   H475      1.0  0.20435  0.81314  0.95882  1.0000
  H   H476      1.0  0.46320  0.82641  0.60670  1.0000
  C   C414      1.0  0.03206  0.88878  0.94922  1.0000
  C   C415      1.0  0.03518  0.91281  0.95142  1.0000
  H   H477      1.0  0.02482  0.86355  0.56427  1.0000
  H   H478      1.0  0.48021  0.82300  0.71848  1.0000
  H   H479      1.0  0.01244  0.94472  0.95503  1.0000
  C   C416      1.0  0.47938  0.81563  0.86005  1.0000
  C   C417      1.0  0.48145  0.80826  0.88339  1.0000
  N   N25       1.0  0.44769  0.74131  0.91677  1.0000
  S   S123      1.0  0.16874  0.98057  0.51997  1.0000
  H   H480      1.0  0.33516  0.67476  0.55965  1.0000
  C   C418      1.0  0.46664  0.80931  0.70998  1.0000
  H   H481      1.0  0.02993  0.84253  0.53341  1.0000
  C   C419      1.0  0.44352  0.69124  0.54013  1.0000
  H   H482      1.0  0.41768  0.75794  0.93901  1.0000
  H   H483      1.0  0.16977  0.82868  0.50897  1.0000
  H   H484      1.0  0.48049  0.76076  0.89797  1.0000
  H   H485      1.0  0.26074  0.97478  0.55558  1.0000
  H   H486      1.0  0.42244  0.79776  0.68254  1.0000
  S   S124      1.0  0.19274  0.96659  0.99174  1.0000
  C   C420      1.0  0.20756  0.93474  0.56615  1.0000
  C   C421      1.0  0.29380  0.75098  0.95562  1.0000
  H   H487      1.0  0.15204  0.80500  0.99081  1.0000
  H   H488      1.0  0.47099  0.69552  0.98220  1.0000
  H   H489      1.0  0.43474  0.72732  0.88330  1.0000
  S   S125      1.0  0.20168  0.91857  0.50571  1.0000
  H   H490      1.0  0.29262  0.71499  0.94964  1.0000
  H   H491      1.0  0.22469  0.97290  0.54403  1.0000
  C   C422      1.0  0.27050  0.77356  0.51013  1.0000
  H   H492      1.0  0.07256  0.96819  0.92082  1.0000
  H   H493      1.0  0.42689  0.73430  0.63156  1.0000
  Fe  Fe63      1.0  0.16742  0.93310  0.98397  1.0000
  N   N26       1.0  0.21340  0.81999  0.49978  1.0000
  C   C423      1.0  0.44458  0.81501  0.78245  1.0000
  C   C424      1.0  0.43252  0.80518  0.74179  1.0000
  C   C425      1.0  0.47809  0.74497  0.90925  1.0000
  H   H494      1.0  0.43784  0.77756  0.92056  1.0000
  C   C426      1.0  0.03257  0.98539  0.92336  1.0000
  H   H495      1.0  0.39731  0.76917  0.78114  1.0000
  H   H496      1.0  0.29603  0.78659  0.96583  1.0000
  H   H497      1.0  0.18894  0.78615  0.96796  1.0000
  H   H498      1.0  0.42417  0.79403  0.80913  1.0000
  N   N27       1.0  0.28182  0.84641  0.80591  1.0000
  C   C427      1.0  0.30826  0.86128  0.80917  1.0000
  C   C428      1.0  0.25638  0.85924  0.81380  1.0000
  C   C429      1.0  0.28487  0.82573  0.82145  1.0000
  C   C430      1.0  0.27806  0.84060  0.78094  1.0000
  C   C431      1.0  0.27737  0.85848  0.76361  1.0000
  C   C432      1.0  0.27544  0.81739  0.77301  1.0000
  C   C433      1.0  0.27563  0.85342  0.73983  1.0000
  C   C434      1.0  0.27336  0.81257  0.74920  1.0000
  C   C435      1.0  0.27389  0.83050  0.73265  1.0000
  H   H499      1.0  0.30616  0.87876  0.80104  1.0000
  H   H500      1.0  0.31331  0.86429  0.82798  1.0000
  H   H501      1.0  0.32749  0.85318  0.80150  1.0000
  H   H502      1.0  0.25367  0.87585  0.80402  1.0000
  H   H503      1.0  0.25852  0.86363  0.83268  1.0000
  H   H504      1.0  0.23601  0.84873  0.81148  1.0000
  H   H505      1.0  0.30382  0.81535  0.81654  1.0000
  H   H506      1.0  0.28828  0.83064  0.84003  1.0000
  H   H507      1.0  0.26511  0.81432  0.82105  1.0000
  H   H508      1.0  0.27881  0.87651  0.76831  1.0000
  H   H509      1.0  0.27606  0.80253  0.78471  1.0000
  H   H510      1.0  0.27627  0.86728  0.72683  1.0000
  H   H511      1.0  0.27258  0.79474  0.74351  1.0000
  H   H512      1.0  0.27363  0.82657  0.71419  1.0000
  N   N28       1.0  0.42361  0.71858  0.59761  1.0000
  C   C436      1.0  0.40253  0.70067  0.60607  1.0000
  C   C437      1.0  0.44094  0.72664  0.61814  1.0000
  C   C438      1.0  0.40741  0.73876  0.58845  1.0000
  C   C439      1.0  0.20494  0.79986  0.97315  1.0000
  H   H513      1.0  0.21403  0.92051  0.55467  1.0000
  C   C440      1.0  0.18915  0.81999  0.51650  1.0000
  H   H514      1.0  0.41375  0.68531  0.61352  1.0000
  H   H515      1.0  0.27809  0.75794  0.50215  1.0000
  H   H516      1.0  0.38788  0.69434  0.59189  1.0000
  H   H517      1.0  0.45251  0.71217  0.62698  1.0000
  H   H518      1.0  0.45686  0.74062  0.61320  1.0000
  H   H519      1.0  0.29190  0.94501  0.56021  1.0000
  H   H520      1.0  0.21498  0.95758  0.60613  1.0000
  H   H521      1.0  0.24311  0.97719  0.59619  1.0000
  H   H522      1.0  0.24420  0.82856  0.54018  1.0000
  H   H523      1.0  0.48392  0.71147  0.59622  1.0000
  H   H524      1.0  0.39552  0.79429  0.70433  1.0000
  H   H525      1.0  0.19499  0.82938  0.53280  1.0000
  C   C441      1.0  0.08860  0.00031  0.50174  1.0000
  N   N29       1.0  0.43565  0.81021  0.71649  1.0000
  H   H526      1.0  0.38816  0.70750  0.61974  1.0000
  H   H527      1.0  0.45497  0.76477  0.94559  1.0000
  N   N30       1.0  0.23324  0.94920  0.57291  1.0000
  H   H528      1.0  0.14890  0.99554  0.91687  1.0000
  C   C442      1.0  0.22430  0.96619  0.59034  1.0000
  C   C443      1.0  0.24258  0.96235  0.55168  1.0000
  C   C444      1.0  0.25607  0.93434  0.58322  1.0000
  C   C445      1.0  0.28495  0.93436  0.57482  1.0000
  C   C446      1.0  0.24972  0.91929  0.60244  1.0000
  C   C447      1.0  0.30587  0.92000  0.58498  1.0000
  C   C448      1.0  0.27077  0.90493  0.61235  1.0000
  C   C449      1.0  0.29879  0.90532  0.60367  1.0000
  C   C450      1.0  0.25111  0.81342  0.53121  1.0000
  H   H529      1.0  0.28378  0.80669  0.55768  1.0000
  H   H530      1.0  0.19645  0.92646  0.58130  1.0000
  H   H531      1.0  0.26120  0.68386  0.96423  1.0000
  H   H532      1.0  0.33713  0.68119  0.90629  1.0000
  H   H533      1.0  0.47591  0.79226  0.71500  1.0000
  C   C451      1.0  0.42911  0.74139  0.89534  1.0000
  H   H534      1.0  0.40146  0.77571  0.73949  1.0000
  H   H535      1.0  0.11722  0.97988  0.90749  1.0000
  H   H536      1.0  0.22688  0.79221  0.97336  1.0000
  H   H537      1.0  0.30002  0.68032  0.96577  1.0000
  H   H538      1.0  0.32758  0.91972  0.57801  1.0000
  H   H539      1.0  0.26520  0.89297  0.62646  1.0000
  H   H540      1.0  0.31484  0.89367  0.61097  1.0000
  C   C452      1.0  0.43932  0.76120  0.93109  1.0000
  H   H541      1.0  0.24919  0.95045  0.53771  1.0000
  C   C453      1.0  0.27369  0.80092  0.54146  1.0000
  H   H542      1.0  0.29876  0.75508  0.93752  1.0000
  H   H543      1.0  0.22914  0.85355  0.51165  1.0000
  H   H544      1.0  0.30057  0.77123  0.53913  1.0000
  H   H545      1.0  0.19084  0.94506  0.55664  1.0000
  H   H546      1.0  0.46952  0.81178  0.69078  1.0000
  H   H547      1.0  0.20736  0.97788  0.58303  1.0000
  H   H548      1.0  0.40574  0.73954  0.89962  1.0000
  C   C454      1.0  0.04007  0.90498  0.50483  1.0000
  C   C455      1.0  0.28327  0.78098  0.53099  1.0000
  C   C456      1.0  0.44118  0.70887  0.57884  1.0000
  C   C457      1.0  0.42758  0.70101  0.55786  1.0000
  H   H549      1.0  0.39290  0.73427  0.57352  1.0000
  H   H550      1.0  0.40197  0.83532  0.71666  1.0000
  H   H551      1.0  0.40436  0.70206  0.55505  1.0000
  H   H552      1.0  0.42517  0.83768  0.69188  1.0000
  H   H553      1.0  0.43788  0.84755  0.71974  1.0000
  C   C458      1.0  0.41929  0.79364  0.70141  1.0000
  C   C459      1.0  0.47174  0.70631  0.58086  1.0000
  C   C460      1.0  0.41168  0.78292  0.77469  1.0000
  H   H554      1.0  0.41351  0.70077  0.90857  1.0000
  H   H555      1.0  0.45602  0.82594  0.79498  1.0000
  C   C461      1.0  0.50474  0.81725  0.84675  1.0000
  H   H556      1.0  0.09050  0.98164  0.50342  1.0000
  H   H557      1.0  0.18243  0.80199  0.52162  1.0000
  H   H558      1.0  0.01191  0.99333  0.98251  1.0000
  C   C462      1.0  0.42666  0.79697  0.79052  1.0000
  C   C463      1.0  0.24798  0.78607  0.49962  1.0000
  H   H559      1.0  0.46148  0.83347  0.75310  1.0000
  C   C464      1.0  0.44523  0.71957  0.93079  1.0000
  C   C465      1.0  0.41434  0.78692  0.75066  1.0000
  H   H560      1.0  0.02017  0.97065  0.91665  1.0000
  H   H561      1.0  0.49347  0.74724  0.92421  1.0000
  C   C466      1.0  0.50548  0.78965  0.63846  1.0000
  H   H562      1.0  0.05109  0.87838  0.94740  1.0000
  H   H563      1.0  0.39315  0.74584  0.60200  1.0000
  C   C467      1.0  0.48747  0.69647  0.56297  1.0000
  C   C468      1.0  0.11768  0.98056  0.95391  1.0000
  C   C469      1.0  0.42715  0.70043  0.92406  1.0000
  H   H564      1.0  0.43159  0.75798  0.88528  1.0000
  C   C470      1.0  0.12483  0.99652  0.91526  1.0000
  Fe  Fe64      1.0  0.11840  0.90416  0.50256  1.0000
  C   C471      1.0  0.22339  0.84427  0.49533  1.0000
  S   S126      1.0  0.15211  0.87674  0.50098  1.0000
  H   H565      1.0  0.11063  0.96378  0.94627  1.0000
  C   C472      1.0  0.47338  0.68891  0.54268  1.0000
  C   C473      1.0  0.23756  0.80646  0.50996  1.0000
  C   C474      1.0  0.01095  0.84184  0.52214  1.0000
  C   C475      1.0  0.06268  0.98412  0.92589  1.0000
  H   H566      1.0  0.48519  0.73011  0.89889  1.0000
  H   H567      1.0  0.50380  0.77495  0.65037  1.0000
  H   H568      1.0  0.01489  0.94569  0.54135  1.0000
  H   H569      1.0  0.16584  0.83276  0.98164  1.0000
  H   H570      1.0  0.43256  0.68513  0.52438  1.0000
  C   C476      1.0  0.28469  0.72190  0.98665  1.0000
  H   H571      1.0  0.21624  0.84326  0.98464  1.0000
  H   H572      1.0  0.49772  0.67769  0.92565  1.0000
  C   C477      1.0  0.29235  0.76878  0.97160  1.0000
  H   H573      1.0  0.50342  0.82309  0.82873  1.0000
  H   H574      1.0  0.48545  0.68095  0.52894  1.0000
  S   S127      1.0  0.07196  0.89119  0.49626  1.0000
  C   C478      1.0  0.01322  0.89645  0.49636  1.0000
  N   N31       1.0  0.11146  0.00057  0.93816  1.0000
  C   C479      1.0  0.50871  0.80283  0.89333  1.0000
  C   C480      1.0  0.51021  0.82746  0.60778  1.0000
  S   S128      1.0  0.18552  0.89805  0.99365  1.0000
  Fe  Fe65      1.0  0.68493  0.26857  0.11560  1.0000
  S   S129      1.0  0.65873  0.24959  0.08848  1.0000
  S   S130      1.0  0.70446  0.30435  0.10911  1.0000
  Fe  Fe66      1.0  0.67691  0.22997  0.15223  1.0000
  S   S131      1.0  0.65014  0.20792  0.12751  1.0000
  S   S132      1.0  0.68689  0.21699  0.18923  1.0000
  Fe  Fe67      1.0  0.68396  0.21837  0.10062  1.0000
  S   S133      1.0  0.70262  0.19485  0.07291  1.0000
  Fe  Fe68      1.0  0.62763  0.24103  0.11746  1.0000
  S   S134      1.0  0.58085  0.25282  0.11946  1.0000
  S   S135      1.0  0.71199  0.23808  0.12612  1.0000
  S   S136      1.0  0.65277  0.26219  0.14388  1.0000
  Fe  Fe69      1.0  0.85905  0.15326  0.02598  1.0000
  H   H575      1.0  0.56743  0.27757  0.41760  1.0000
  S   S137      1.0  0.83632  0.17449  0.05362  1.0000
  Fe  Fe70      1.0  0.91991  0.13363  0.01590  1.0000
  S   S138      1.0  0.96525  0.12448  0.02891  1.0000
  H   H576      1.0  0.55361  0.20730  0.15256  1.0000
  H   H577      1.0  0.54516  0.29650  0.09782  1.0000
  H   H578      1.0  0.52460  0.26853  0.12948  1.0000
  H   H579      1.0  0.95845  0.05206  0.43456  1.0000
  S   S139      1.0  0.88291  0.12163  0.03838  1.0000
  Fe  Fe71      1.0  0.66008  0.25266  0.32371  1.0000
  S   S140      1.0  0.64682  0.22043  0.34414  1.0000
  S   S141      1.0  0.65066  0.26178  0.28530  1.0000
  Fe  Fe72      1.0  0.67686  0.27884  0.36837  1.0000
  S   S142      1.0  0.66509  0.24876  0.39167  1.0000
  S   S143      1.0  0.69232  0.31372  0.38194  1.0000
  Fe  Fe73      1.0  0.68781  0.22706  0.36586  1.0000
  S   S144      1.0  0.71464  0.19580  0.37782  1.0000
  Fe  Fe74      1.0  0.62541  0.24455  0.36861  1.0000
  S   S145      1.0  0.58249  0.24054  0.38756  1.0000
  S   S146      1.0  0.70246  0.25768  0.34352  1.0000
  S   S147      1.0  0.63581  0.27626  0.34715  1.0000
  S   S148      1.0  0.89514  0.17188  0.47195  1.0000
  H   H580      1.0  0.98645  0.07647  0.49009  1.0000
  S   S149      1.0  0.86689  0.12275  0.45451  1.0000
  C   C481      1.0  0.84877  0.01997  0.00927  1.0000
  Fe  Fe75      1.0  0.91172  0.13676  0.46427  1.0000
  S   S150      1.0  0.95282  0.13008  0.44406  1.0000
  Fe  Fe76      1.0  0.84985  0.15743  0.46594  1.0000
  S   S151      1.0  0.81871  0.18582  0.45297  1.0000
  H   H581      1.0  0.56995  0.32419  0.07202  1.0000
  C   C482      1.0  0.98756  0.13608  0.45673  1.0000
  C   C483      1.0  0.72140  0.29315  0.00956  1.0000
  H   H582      1.0  0.73514  0.25306  0.25263  1.0000
  H   H583      1.0  0.80031  0.22343  0.48765  1.0000
  C   C484      1.0  0.64063  0.24541  0.44915  1.0000
  C   C485      1.0  0.84924  0.04433  0.47302  1.0000
  C   C486      1.0  0.84828  0.02140  0.46473  1.0000
  H   H584      1.0  0.84550  0.05875  0.46112  1.0000
  C   C487      1.0  0.54302  0.20485  0.16915  1.0000
  H   H585      1.0  0.68540  0.32386  0.18398  1.0000
  C   C488      1.0  0.96019  0.03085  0.00065  1.0000
  C   C489      1.0  0.66006  0.31000  0.42205  1.0000
  H   H586      1.0  0.57801  0.29861  0.43900  1.0000
  H   H587      1.0  0.90715  0.06677  0.48184  1.0000
  H   H588      1.0  0.65657  0.29201  0.41772  1.0000
  C   C490      1.0  0.54869  0.23739  0.37260  1.0000
  C   C491      1.0  0.54699  0.23099  0.34919  1.0000
  H   H589      1.0  0.80923  0.13168  0.04634  1.0000
  H   H590      1.0  0.56667  0.22834  0.33966  1.0000
  H   H591      1.0  0.71122  0.26353  0.17503  1.0000
  C   C492      1.0  0.74374  0.19356  0.39867  1.0000
  C   C493      1.0  0.75688  0.17197  0.40231  1.0000
  C   C494      1.0  0.77981  0.16921  0.41874  1.0000
  C   C495      1.0  0.78986  0.18805  0.43189  1.0000
  C   C496      1.0  0.77644  0.20958  0.42847  1.0000
  C   C497      1.0  0.75361  0.21236  0.41197  1.0000
  H   H592      1.0  0.74950  0.15728  0.39215  1.0000
  H   H593      1.0  0.78981  0.15255  0.42109  1.0000
  H   H594      1.0  0.78402  0.22433  0.43843  1.0000
  H   H595      1.0  0.74380  0.22908  0.40940  1.0000
  C   C498      1.0  0.51298  0.19938  0.21082  1.0000
  H   H596      1.0  0.84889  0.25744  0.45481  1.0000
  C   C499      1.0  0.58014  0.29397  0.42034  1.0000
  C   C500      1.0  0.65678  0.31285  0.08131  1.0000
  C   C501      1.0  0.71937  0.28686  0.25968  1.0000
  C   C502      1.0  0.66965  0.25037  0.45454  1.0000
  H   H597      1.0  0.68219  0.32873  0.01061  1.0000
  C   C503      1.0  0.85405  0.04186  0.99880  1.0000
  H   H598      1.0  0.96410  0.08969  0.99505  1.0000
  C   C504      1.0  0.68472  0.32026  0.08792  1.0000
  S   S152      1.0  0.83829  0.13481  0.99546  1.0000
  H   H599      1.0  0.73625  0.25882  0.21079  1.0000
  H   H600      1.0  0.97143  0.14695  0.48973  1.0000
  H   H601      1.0  0.00711  0.03304  0.99602  1.0000
  C   C505      1.0  0.51741  0.30260  0.39382  1.0000
  H   H602      1.0  0.77577  0.11143  0.08952  1.0000
  C   C506      1.0  0.92767  0.06092  0.01533  1.0000
  C   C507      1.0  0.54622  0.24005  0.11392  1.0000
  C   C508      1.0  0.64149  0.32480  0.06375  1.0000
  C   C509      1.0  0.54230  0.21870  0.10298  1.0000
  H   H603      1.0  0.53025  0.26410  0.22161  1.0000
  H   H604      1.0  0.56097  0.20928  0.09753  1.0000
  C   C510      1.0  0.67689  0.22981  0.21579  1.0000
  C   C511      1.0  0.68476  0.21904  0.23710  1.0000
  C   C512      1.0  0.67681  0.22843  0.25858  1.0000
  C   C513      1.0  0.66085  0.24873  0.25893  1.0000
  C   C514      1.0  0.65275  0.25935  0.23760  1.0000
  C   C515      1.0  0.66072  0.24999  0.21615  1.0000
  H   H605      1.0  0.69717  0.20335  0.23702  1.0000
  H   H606      1.0  0.68318  0.22007  0.27486  1.0000
  H   H607      1.0  0.64050  0.27511  0.23772  1.0000
  H   H608      1.0  0.65443  0.25844  0.19997  1.0000
  C   C516      1.0  0.79906  0.18085  0.05793  1.0000
  C   C517      1.0  0.79131  0.19209  0.07846  1.0000
  C   C518      1.0  0.76209  0.19692  0.08310  1.0000
  C   C519      1.0  0.74007  0.19051  0.06725  1.0000
  C   C520      1.0  0.74783  0.17964  0.04651  1.0000
  C   C521      1.0  0.77709  0.17481  0.04184  1.0000
  H   H609      1.0  0.80806  0.19698  0.09099  1.0000
  H   H610      1.0  0.75661  0.20532  0.09911  1.0000
  H   H611      1.0  0.73107  0.17498  0.03392  1.0000
  H   H612      1.0  0.78261  0.16648  0.02579  1.0000
  C   C522      1.0  0.71170  0.31201  0.22603  1.0000
  N   N32       1.0  0.71994  0.29890  0.18503  1.0000
  H   H613      1.0  0.99995  0.05741  0.02577  1.0000
  H   H614      1.0  0.52394  0.24557  0.40290  1.0000
  C   C523      1.0  0.72040  0.29456  0.21060  1.0000
  H   H615      1.0  0.90931  0.05652  0.45219  1.0000
  H   H616      1.0  0.92663  0.07891  0.02204  1.0000
  C   C524      1.0  0.85244  0.00234  0.48000  1.0000
  C   C525      1.0  0.93591  0.01542  0.99805  1.0000
  H   H617      1.0  0.82123  0.10353  0.03920  1.0000
  C   C526      1.0  0.99055  0.14396  0.47960  1.0000
  C   C527      1.0  0.72677  0.27814  0.17134  1.0000
  H   H618      1.0  0.64676  0.29796  0.08986  1.0000
  C   C528      1.0  0.96627  0.06489  0.44767  1.0000
  N   N33       1.0  0.64403  0.18441  0.42497  1.0000
  C   C529      1.0  0.61843  0.17415  0.43712  1.0000
  C   C530      1.0  0.63604  0.18870  0.40016  1.0000
  C   C531      1.0  0.66712  0.16682  0.42579  1.0000
  C   C532      1.0  0.65311  0.20670  0.43566  1.0000
  C   C533      1.0  0.68259  0.21242  0.44116  1.0000
  C   C534      1.0  0.63244  0.22404  0.43961  1.0000
  C   C535      1.0  0.69058  0.23395  0.45046  1.0000
  H   H619      1.0  0.91900  0.04921  0.02934  1.0000
  C   C536      1.0  0.57710  0.30664  0.38018  1.0000
  H   H620      1.0  0.59856  0.18441  0.43414  1.0000
  H   H621      1.0  0.61272  0.15648  0.43074  1.0000
  H   H622      1.0  0.62259  0.17283  0.45628  1.0000
  H   H623      1.0  0.61801  0.20109  0.39814  1.0000
  H   H624      1.0  0.62913  0.17248  0.39121  1.0000
  H   H625      1.0  0.65479  0.19624  0.39043  1.0000
  H   H626      1.0  0.67513  0.16365  0.44395  1.0000
  H   H627      1.0  0.65936  0.14991  0.41868  1.0000
  H   H628      1.0  0.68589  0.17213  0.41477  1.0000
  H   H629      1.0  0.70006  0.20086  0.43778  1.0000
  H   H630      1.0  0.60992  0.22163  0.43447  1.0000
  H   H631      1.0  0.74321  0.23647  0.01154  1.0000
  C   C537      1.0  0.64721  0.31906  0.44191  1.0000
  Fe  Fe77      1.0  0.86473  0.10390  0.00660  1.0000
  C   C538      1.0  0.72946  0.27328  0.22095  1.0000
  C   C539      1.0  0.52177  0.25210  0.12081  1.0000
  H   H632      1.0  0.97385  0.07616  0.03706  1.0000
  H   H633      1.0  0.62453  0.25848  0.45168  1.0000
  H   H634      1.0  0.79301  0.09020  0.00905  1.0000
  C   C540      1.0  0.72899  0.26966  0.24514  1.0000
  H   H635      1.0  0.76170  0.32676  0.00468  1.0000
  N   N34       1.0  0.56982  0.31266  0.40451  1.0000
  N   N35       1.0  0.59148  0.20409  0.18997  1.0000
  C   C541      1.0  0.60223  0.18580  0.17459  1.0000
  C   C542      1.0  0.60147  0.22698  0.18069  1.0000
  C   C543      1.0  0.60536  0.20065  0.21333  1.0000
  C   C544      1.0  0.55934  0.20316  0.19032  1.0000
  H   H636      1.0  0.74919  0.27217  0.17500  1.0000
  H   H637      1.0  0.70637  0.13937  0.00509  1.0000
  H   H638      1.0  0.62006  0.31866  0.05860  1.0000
  H   H639      1.0  0.63363  0.30799  0.45278  1.0000
  H   H640      1.0  0.95950  0.09649  0.48154  1.0000
  H   H641      1.0  0.59580  0.18863  0.15599  1.0000
  H   H642      1.0  0.62643  0.18534  0.17486  1.0000
  H   H643      1.0  0.59385  0.16836  0.18014  1.0000
  H   H644      1.0  0.59332  0.23040  0.16265  1.0000
  H   H645      1.0  0.62554  0.22815  0.17988  1.0000
  H   H646      1.0  0.59415  0.24132  0.19174  1.0000
  H   H647      1.0  0.59870  0.18373  0.22142  1.0000
  H   H648      1.0  0.62945  0.20049  0.21223  1.0000
  H   H649      1.0  0.60043  0.21491  0.22541  1.0000
  H   H650      1.0  0.71327  0.23815  0.45388  1.0000
  C   C545      1.0  0.54335  0.20072  0.21129  1.0000
  H   H651      1.0  0.81961  0.11156  0.06896  1.0000
  H   H652      1.0  0.91144  0.21844  0.49401  1.0000
  H   H653      1.0  0.70877  0.27647  0.06639  1.0000
  C   C546      1.0  0.53820  0.31489  0.40779  1.0000
  C   C547      1.0  0.72591  0.25434  0.04051  1.0000
  C   C548      1.0  0.71091  0.30805  0.25017  1.0000
  H   H654      1.0  0.72559  0.28181  0.15219  1.0000
  H   H655      1.0  0.74121  0.10915  0.07507  1.0000
  N   N36       1.0  0.95762  0.05494  0.00881  1.0000
  C   C549      1.0  0.96279  0.07819  0.48728  1.0000
  H   H656      1.0  0.72759  0.23954  0.05235  1.0000
  H   H657      1.0  0.78530  0.02843  0.47988  1.0000
  H   H658      1.0  0.70507  0.32878  0.21954  1.0000
  S   S153      1.0  0.84797  0.06718  0.01507  1.0000
  H   H659      1.0  0.67359  0.29405  0.18309  1.0000
  H   H660      1.0  0.60914  0.33414  0.40467  1.0000
  H   H661      1.0  0.79018  0.06982  0.04361  1.0000
  C   C550      1.0  0.73463  0.25267  0.01745  1.0000
  H   H662      1.0  0.84104  0.01885  0.02699  1.0000
  H   H663      1.0  0.55374  0.19977  0.22829  1.0000
  C   C551      1.0  0.51972  0.22711  0.33832  1.0000
  C   C552      1.0  0.95430  0.03754  0.47878  1.0000
  C   C553      1.0  0.99798  0.13712  0.01850  1.0000
  H   H664      1.0  0.73685  0.33404  0.18746  1.0000
  C   C554      1.0  0.97654  0.05861  0.02968  1.0000
  C   C555      1.0  0.54735  0.32700  0.07557  1.0000
  C   C556      1.0  0.71283  0.29419  0.03317  1.0000
  N   N37       1.0  0.77772  0.10446  0.05260  1.0000
  C   C557      1.0  0.76402  0.11539  0.07285  1.0000
  C   C558      1.0  0.77766  0.07905  0.05693  1.0000
  C   C559      1.0  0.80820  0.11312  0.05176  1.0000
  C   C560      1.0  0.76298  0.10956  0.02999  1.0000
  C   C561      1.0  0.86393  0.25612  0.46952  1.0000
  H   H665      1.0  0.87693  0.22184  0.46060  1.0000
  H   H666      1.0  0.70449  0.30988  0.04015  1.0000
  C   C562      1.0  0.99941  0.15983  0.00959  1.0000
  H   H667      1.0  0.85464  0.28963  0.48188  1.0000
  H   H668      1.0  0.76437  0.13467  0.07099  1.0000
  C   C563      1.0  0.93056  0.02175  0.48212  1.0000
  C   C564      1.0  0.69076  0.30659  0.17725  1.0000
  H   H669      1.0  0.78789  0.07459  0.07411  1.0000
  H   H670      1.0  0.70331  0.32130  0.26163  1.0000
  H   H671      1.0  0.75516  0.07165  0.05663  1.0000
  H   H672      1.0  0.60097  0.30726  0.37734  1.0000
  C   C565      1.0  0.91994  0.06782  0.46552  1.0000
  H   H673      1.0  0.97981  0.16973  0.00798  1.0000
  C   C566      1.0  0.73785  0.12335  0.02799  1.0000
  H   H674      1.0  0.72783  0.13081  0.04293  1.0000
  H   H675      1.0  0.99007  0.06313  0.44984  1.0000
  H   H676      1.0  0.91407  0.02032  0.00191  1.0000
  C   C567      1.0  0.87983  0.23605  0.47267  1.0000
  H   H677      1.0  0.00153  0.04004  0.48175  1.0000
  H   H678      1.0  0.52516  0.28533  0.03436  1.0000
  C   C568      1.0  0.67727  0.32430  0.40772  1.0000
  S   S154      1.0  0.89817  0.16704  0.00615  1.0000
  C   C569      1.0  0.89922  0.23417  0.49148  1.0000
  C   C570      1.0  0.86738  0.27439  0.48515  1.0000
  H   H679      1.0  0.68900  0.30824  0.15786  1.0000
  H   H680      1.0  0.90844  0.02645  0.47857  1.0000
  H   H681      1.0  0.60325  0.29009  0.41725  1.0000
  H   H682      1.0  0.84398  0.01839  0.44640  1.0000
  H   H683      1.0  0.51865  0.22139  0.32044  1.0000
  C   C571      1.0  0.52731  0.32772  0.42658  1.0000
  H   H684      1.0  0.91253  0.06025  0.00005  1.0000
  C   C572      1.0  0.71517  0.27510  0.04836  1.0000
  N   N38       1.0  0.95066  0.06162  0.46997  1.0000
  H   H685      1.0  0.67601  0.26724  0.46125  1.0000
  H   H686      1.0  0.57034  0.28857  0.37584  1.0000
  H   H687      1.0  0.96292  0.08247  0.43989  1.0000
  C   C573      1.0  0.77402  0.10085  0.00896  1.0000
  C   C574      1.0  0.53335  0.31104  0.09045  1.0000
  H   H688      1.0  0.71793  0.28357  0.27834  1.0000
  C   C575      1.0  0.52289  0.24067  0.38476  1.0000
  H   H689      1.0  0.56703  0.31877  0.36730  1.0000
  H   H690      1.0  0.91806  0.08597  0.45877  1.0000
  C   C576      1.0  0.72518  0.12845  0.00622  1.0000
  C   C577      1.0  0.98243  0.02913  0.48405  1.0000
  C   C578      1.0  0.51271  0.20346  0.16889  1.0000
  H   H691      1.0  0.74197  0.32087  0.15982  1.0000
  C   C579      1.0  0.98644  0.00641  0.49221  1.0000
  H   H692      1.0  0.97128  0.04567  0.04371  1.0000
  H   H693      1.0  0.52365  0.29144  0.37993  1.0000
  C   C580      1.0  0.58604  0.33456  0.41005  1.0000
  Fe  Fe78      1.0  0.86490  0.11211  0.49255  1.0000
  C   C581      1.0  0.73259  0.27175  0.00211  1.0000
  H   H694      1.0  0.76378  0.31234  0.18475  1.0000
  C   C582      1.0  0.51401  0.20963  0.09889  1.0000
  C   C583      1.0  0.74157  0.31736  0.17905  1.0000
  C   C584      1.0  0.73888  0.33257  0.00328  1.0000
  H   H695      1.0  0.51107  0.19314  0.09037  1.0000
  C   C585      1.0  0.98770  0.02226  0.99467  1.0000
  C   C586      1.0  0.86528  0.31652  0.76123  1.0000
  S   S155      1.0  0.88057  0.15931  0.93875  1.0000
  C   C587      1.0  0.78047  0.03499  0.53835  1.0000
  S   S156      1.0  0.91075  0.18439  0.53444  1.0000
  C   C588      1.0  0.95193  0.29021  0.75030  1.0000
  Fe  Fe79      1.0  0.86601  0.29514  0.82778  1.0000
  S   S157      1.0  0.85811  0.27894  0.79205  1.0000
  Fe  Fe80      1.0  0.86877  0.28551  0.88068  1.0000
  S   S158      1.0  0.88242  0.32242  0.88812  1.0000
  S   S159      1.0  0.86191  0.26570  0.91470  1.0000
  H   H696      1.0  0.72719  0.12409  0.96905  1.0000
  S   S160      1.0  0.83243  0.29524  0.85605  1.0000
  S   S161      1.0  0.90104  0.28142  0.85201  1.0000
  Fe  Fe81      1.0  0.85612  0.27053  0.62159  1.0000
  S   S162      1.0  0.87089  0.29153  0.59107  1.0000
  S   S163      1.0  0.84131  0.23376  0.61357  1.0000
  Fe  Fe82      1.0  0.86622  0.31081  0.65428  1.0000
  H   H697      1.0  0.99503  0.00621  0.92767  1.0000
  Fe  Fe83      1.0  0.90745  0.30404  0.61410  1.0000
  H   H698      1.0  0.79713  0.28704  0.80258  1.0000
  S   S164      1.0  0.82656  0.29831  0.63381  1.0000
  S   S165      1.0  0.89425  0.28108  0.64437  1.0000
  C   C589      1.0  0.79121  0.21299  0.50246  1.0000
  C   C590      1.0  0.86176  0.29248  0.76404  1.0000
  C   C591      1.0  0.86035  0.27869  0.74401  1.0000
  C   C592      1.0  0.86210  0.28876  0.72143  1.0000
  C   C593      1.0  0.86493  0.31282  0.71863  1.0000
  S   S166      1.0  0.85237  0.07671  0.50866  1.0000
  H   H699      1.0  0.85765  0.26009  0.74595  1.0000
  H   H700      1.0  0.86077  0.27794  0.70620  1.0000
  H   H701      1.0  0.80419  0.33163  0.82653  1.0000
  C   C594      1.0  0.90279  0.25230  0.50725  1.0000
  H   H702      1.0  0.82649  0.32302  0.80291  1.0000
  H   H703      1.0  0.91809  0.24948  0.52142  1.0000
  C   C595      1.0  0.78374  0.02367  0.49822  1.0000
  C   C596      1.0  0.96396  0.24316  0.93852  1.0000
  C   C597      1.0  0.89152  0.19713  0.55705  1.0000
  C   C598      1.0  0.86654  0.18668  0.56645  1.0000
  C   C599      1.0  0.85179  0.19767  0.58438  1.0000
  C   C600      1.0  0.86156  0.21932  0.59262  1.0000
  C   C601      1.0  0.88680  0.22949  0.58344  1.0000
  C   C602      1.0  0.90177  0.21839  0.56583  1.0000
  H   H704      1.0  0.85878  0.17009  0.56007  1.0000
  H   H705      1.0  0.83262  0.18947  0.59179  1.0000
  H   H706      1.0  0.89505  0.24578  0.59013  1.0000
  H   H707      1.0  0.92130  0.22642  0.55891  1.0000
  H   H708      1.0  0.95696  0.25496  0.89364  1.0000
  C   C603      1.0  0.68924  0.32244  0.99344  1.0000
  H   H709      1.0  0.87581  0.02358  0.94574  1.0000
  H   H710      1.0  0.86154  0.03233  0.53049  1.0000
  C   C604      1.0  0.87360  0.18860  0.93185  1.0000
  C   C605      1.0  0.87670  0.19676  0.90874  1.0000
  C   C606      1.0  0.87235  0.22025  0.90294  1.0000
  C   C607      1.0  0.86485  0.23568  0.92029  1.0000
  C   C608      1.0  0.86139  0.22742  0.94330  1.0000
  C   C609      1.0  0.86582  0.20400  0.94909  1.0000
  H   H711      1.0  0.88264  0.18487  0.89533  1.0000
  H   H712      1.0  0.87503  0.22643  0.88516  1.0000
  H   H713      1.0  0.85559  0.23927  0.95680  1.0000
  H   H714      1.0  0.86331  0.19789  0.96691  1.0000
  C   C610      1.0  0.91133  0.28851  0.54017  1.0000
  H   H715      1.0  0.84226  0.20304  0.52077  1.0000
  C   C611      1.0  0.99306  0.23981  0.94630  1.0000
  H   H716      1.0  0.67356  0.30860  0.98787  1.0000
  H   H717      1.0  0.79892  0.32604  0.70245  1.0000
  C   C612      1.0  0.00193  0.21825  0.95509  1.0000
  C   C613      1.0  0.99607  0.21707  0.57763  1.0000
  H   H718      1.0  0.91171  0.26193  0.94584  1.0000
  H   H719      1.0  0.92160  0.29086  0.93795  1.0000
  S   S167      1.0  0.86579  0.32670  0.69067  1.0000
  S   S168      1.0  0.91029  0.12458  0.50144  1.0000
  H   H720      1.0  0.76712  0.21315  0.50138  1.0000
  C   C614      1.0  0.93475  0.30314  0.79807  1.0000
  H   H721      1.0  0.93825  0.18777  0.94996  1.0000
  H   H722      1.0  0.93962  0.28450  0.79659  1.0000
  H   H723      1.0  0.98583  0.28836  0.94503  1.0000
  C   C615      1.0  0.88693  0.27307  0.50453  1.0000
  H   H724      1.0  0.84311  0.23290  0.51165  1.0000
  H   H725      1.0  0.93898  0.27686  0.96270  1.0000
  H   H726      1.0  0.86796  0.05973  0.96751  1.0000
  C   C616      1.0  0.79442  0.32498  0.72098  1.0000
  S   S169      1.0  0.95113  0.30284  0.59613  1.0000
  C   C617      1.0  0.94097  0.26256  0.90547  1.0000
  C   C618      1.0  0.93059  0.27420  0.94462  1.0000
  H   H727      1.0  0.81343  0.24517  0.56601  1.0000
  Fe  Fe84      1.0  0.91224  0.31894  0.85775  1.0000
  C   C619      1.0  0.98237  0.20176  0.56208  1.0000
  C   C620      1.0  0.99073  0.31781  0.85989  1.0000
  H   H728      1.0  0.92219  0.22496  0.93487  1.0000
  H   H729      1.0  0.93359  0.28578  0.53368  1.0000
  C   C621      1.0  0.98424  0.30997  0.61067  1.0000
  H   H730      1.0  0.96791  0.30050  0.92001  1.0000
  C   C622      1.0  0.80120  0.25476  0.55294  1.0000
  C   C623      1.0  0.97651  0.28403  0.92757  1.0000
  C   C624      1.0  0.79335  0.27720  0.55857  1.0000
  C   C625      1.0  0.77796  0.29070  0.54254  1.0000
  C   C626      1.0  0.86400  0.04303  0.97587  1.0000
  N   N39       1.0  0.95348  0.26565  0.92926  1.0000
  S   S170      1.0  0.87872  0.33248  0.83222  1.0000
  H   H731      1.0  0.98667  0.18081  0.53174  1.0000
  Fe  Fe85      1.0  0.87863  0.14675  0.97637  1.0000
  H   H732      1.0  0.95966  0.19699  0.56416  1.0000
  H   H733      1.0  0.80071  0.20830  0.56113  1.0000
  H   H734      1.0  0.96945  0.28457  0.86408  1.0000
  C   C627      1.0  0.86838  0.02250  0.96355  1.0000
  Fe  Fe86      1.0  0.84737  0.33196  0.86229  1.0000
  C   C628      1.0  0.79359  0.24504  0.53097  1.0000
  H   H735      1.0  0.93376  0.27932  0.89768  1.0000
  H   H736      1.0  0.79930  0.28425  0.57551  1.0000
  H   H737      1.0  0.77182  0.30805  0.54713  1.0000
  N   N40       1.0  0.95347  0.31847  0.78335  1.0000
  C   C629      1.0  0.98230  0.19953  0.95630  1.0000
  H   H738      1.0  0.72500  0.32528  0.95828  1.0000
  C   C630      1.0  0.78506  0.32214  0.76984  1.0000
  C   C631      1.0  0.94669  0.28462  0.72693  1.0000
  H   H739      1.0  0.84505  0.30262  0.51819  1.0000
  C   C632      1.0  0.90040  0.31376  0.50779  1.0000
  H   H740      1.0  0.75858  0.29260  0.50831  1.0000
  N   N41       1.0  0.78085  0.32128  0.79542  1.0000
  H   H741      1.0  0.88439  0.31961  0.49437  1.0000
  H   H742      1.0  0.71391  0.29569  0.96171  1.0000
  H   H743      1.0  0.93735  0.30720  0.81689  1.0000
  H   H744      1.0  0.91152  0.30514  0.79326  1.0000
  C   C633      1.0  0.96682  0.07133  0.98998  1.0000
  H   H745      1.0  0.77389  0.29735  0.82439  1.0000
  H   H746      1.0  0.99910  0.32524  0.77891  1.0000
  H   H747      1.0  0.90471  0.27327  0.55119  1.0000
  H   H748      1.0  0.94823  0.26685  0.72133  1.0000
  C   C634      1.0  0.78158  0.01175  0.54555  1.0000
  N   N42       1.0  0.80236  0.22125  0.52541  1.0000
  H   H749      1.0  0.95800  0.27631  0.76212  1.0000
  H   H750      1.0  0.79761  0.19481  0.49924  1.0000
  H   H751      1.0  0.78687  0.28464  0.76381  1.0000
  H   H752      1.0  0.99428  0.27888  0.91593  1.0000
  C   C635      1.0  0.94464  0.22372  0.94019  1.0000
  S   S171      1.0  0.84502  0.14579  0.50357  1.0000
  H   H753      1.0  0.92140  0.25102  0.90536  1.0000
  C   C636      1.0  0.93605  0.32448  0.71796  1.0000
  H   H754      1.0  0.98271  0.22371  0.59119  1.0000
  H   H755      1.0  0.76758  0.20499  0.54473  1.0000
  C   C637      1.0  0.85814  0.02939  0.51204  1.0000
  H   H756      1.0  0.74006  0.26927  0.98460  1.0000
  H   H757      1.0  0.00439  0.25928  0.60068  1.0000
  H   H758      1.0  0.99010  0.29606  0.78812  1.0000
  H   H759      1.0  0.77189  0.25375  0.49762  1.0000
  C   C638      1.0  0.83441  0.22060  0.52497  1.0000
  C   C639      1.0  0.99003  0.29386  0.86390  1.0000
  H   H760      1.0  0.86351  0.31209  0.54381  1.0000
  H   H761      1.0  0.84450  0.22550  0.54195  1.0000
  H   H762      1.0  0.86647  0.32744  0.77635  1.0000
  Fe  Fe87      1.0  0.89079  0.15892  0.50878  1.0000
  C   C640      1.0  0.93861  0.30171  0.71082  1.0000
  C   C641      1.0  0.79163  0.20459  0.54350  1.0000
  C   C642      1.0  0.72773  0.30961  0.96964  1.0000
  C   C643      1.0  0.94089  0.33025  0.74133  1.0000
  H   H763      1.0  0.77917  0.04855  0.55114  1.0000
  H   H764      1.0  0.91320  0.30351  0.55218  1.0000
  H   H765      1.0  0.75097  0.30502  0.96845  1.0000
  C   C644      1.0  0.78749  0.30190  0.75624  1.0000
  H   H766      1.0  0.85325  0.28205  0.54102  1.0000
  Fe  Fe88      1.0  0.84396  0.32033  0.60408  1.0000
  H   H767      1.0  0.75835  0.28809  0.79715  1.0000
  C   C645      1.0  0.99767  0.19245  0.54385  1.0000
  H   H768      1.0  0.78206  0.05904  0.50925  1.0000
  C   C646      1.0  0.98507  0.31726  0.63382  1.0000
  S   S172      1.0  0.90297  0.11415  0.98483  1.0000
  H   H769      1.0  0.00929  0.25358  0.94588  1.0000
  N   N43       1.0  0.89022  0.29272  0.52075  1.0000
  H   H770      1.0  0.98874  0.31899  0.80854  1.0000
  C   C647      1.0  0.94865  0.31314  0.75835  1.0000
  C   C648      1.0  0.77054  0.28190  0.52070  1.0000
  C   C649      1.0  0.77826  0.25944  0.51484  1.0000
  C   C650      1.0  0.86663  0.32659  0.73867  1.0000
  H   H771      1.0  0.79779  0.18649  0.53971  1.0000
  C   C651      1.0  0.78184  0.04095  0.51475  1.0000
  C   C652      1.0  0.98420  0.31450  0.78994  1.0000
  C   C653      1.0  0.95370  0.20228  0.94888  1.0000
  C   C654      1.0  0.86182  0.29751  0.53128  1.0000
  H   H772      1.0  0.79452  0.28784  0.72219  1.0000
  H   H773      1.0  0.93362  0.29728  0.69285  1.0000
  C   C655      1.0  0.85379  0.04843  0.49683  1.0000
  H   H774      1.0  0.90423  0.32866  0.51969  1.0000
  C   C656      1.0  0.79193  0.30344  0.73216  1.0000
  C   C657      1.0  0.77733  0.29736  0.80517  1.0000
  H   H775      1.0  0.96505  0.31892  0.64317  1.0000
  H   H776      1.0  0.98910  0.18285  0.96311  1.0000
  S   S173      1.0  0.95851  0.33370  0.85593  1.0000
  H   H777      1.0  0.95357  0.06857  0.97378  1.0000
  S   S174      1.0  0.88202  0.33474  0.62499  1.0000
  C   C658      1.0  0.85789  0.00654  0.50366  1.0000
  H   H778      1.0  0.95200  0.07578  0.50445  1.0000
  H   H779      1.0  0.92114  0.31058  0.49880  1.0000
  C   C659      1.0  0.73688  0.11989  0.98591  1.0000
  H   H780      1.0  0.78058  0.00801  0.56406  1.0000
  H   H781      1.0  0.77043  0.09947  0.97149  1.0000
  H   H782      1.0  0.99002  0.06966  0.98558  1.0000
  C   C660      1.0  0.76119  0.10604  0.98729  1.0000
  C   C661      1.0  0.80637  0.33217  0.80722  1.0000
  H   H783      1.0  0.73509  0.32728  0.79208  1.0000
  N   N44       1.0  0.71940  0.31393  0.99410  1.0000
  H   H784      1.0  0.00987  0.30298  0.58060  1.0000
  H   H785      1.0  0.75037  0.33311  0.82062  1.0000
  C   C662      1.0  0.75463  0.33420  0.80151  1.0000
  H   H786      1.0  0.58730  0.33802  0.42910  1.0000
  S   S175      1.0  0.63334  0.35834  0.03065  1.0000
  H   H787      1.0  0.64223  0.66444  0.08051  1.0000
  H   H788      1.0  0.75171  0.48803  0.00555  1.0000
  H   H789      1.0  0.58504  0.38640  0.05103  1.0000
  S   S176      1.0  0.66277  0.60271  0.03593  1.0000
  H   H790      1.0  0.57616  0.34972  0.40100  1.0000
  Fe  Fe89      1.0  0.62294  0.62088  0.02298  1.0000
  S   S177      1.0  0.58011  0.60491  0.03444  1.0000
  Fe  Fe90      1.0  0.68387  0.63813  0.03960  1.0000
  H   H791      1.0  0.73865  0.60543  0.03945  1.0000
  H   H792      1.0  0.73479  0.57727  0.05248  1.0000
  C   C663      1.0  0.56003  0.56538  0.48574  1.0000
  S   S178      1.0  0.65647  0.60738  0.44858  1.0000
  H   H793      1.0  0.69568  0.35868  0.40285  1.0000
  Fe  Fe91      1.0  0.61872  0.62920  0.45817  1.0000
  S   S179      1.0  0.57404  0.61732  0.44517  1.0000
  Fe  Fe92      1.0  0.68262  0.64075  0.44438  1.0000
  H   H794      1.0  0.62010  0.62664  0.06740  1.0000
  H   H795      1.0  0.58953  0.36075  0.06801  1.0000
  H   H796      1.0  0.63732  0.61510  0.09320  1.0000
  S   S180      1.0  0.63171  0.35352  0.47094  1.0000
  C   C664      1.0  0.51564  0.65767  0.47707  1.0000
  H   H797      1.0  0.73238  0.33829  0.02084  1.0000
  C   C665      1.0  0.67153  0.51912  0.46672  1.0000
  C   C666      1.0  0.67315  0.54242  0.47374  1.0000
  H   H798      1.0  0.67063  0.51520  0.44832  1.0000
  H   H799      1.0  0.67358  0.55624  0.46081  1.0000
  C   C667      1.0  0.79340  0.66057  0.06923  1.0000
  H   H800      1.0  0.70685  0.59865  0.40989  1.0000
  H   H801      1.0  0.67939  0.51203  0.03860  1.0000
  H   H802      1.0  0.72678  0.61225  0.44684  1.0000
  H   H803      1.0  0.71072  0.53767  0.42530  1.0000
  H   H804      1.0  0.61190  0.49290  0.46973  1.0000
  H   H805      1.0  0.51459  0.55688  0.48744  1.0000
  H   H806      1.0  0.62442  0.53873  0.01065  1.0000
  H   H807      1.0  0.71567  0.57069  0.39947  1.0000
  H   H808      1.0  0.61459  0.52740  0.48858  1.0000
  C   C668      1.0  0.76277  0.59326  0.41666  1.0000
  H   H809      1.0  0.59366  0.46554  0.47108  1.0000
  S   S181      1.0  0.64243  0.65590  0.03009  1.0000
  H   H810      1.0  0.77477  0.49606  0.45843  1.0000
  H   H811      1.0  0.56606  0.38269  0.07817  1.0000
  C   C669      1.0  0.59003  0.48454  0.47095  1.0000
  Fe  Fe93      1.0  0.66863  0.60922  0.48644  1.0000
  C   C670      1.0  0.54758  0.61930  0.02771  1.0000
  C   C671      1.0  0.54791  0.64185  0.01840  1.0000
  C   C672      1.0  0.78521  0.53261  0.45681  1.0000
  H   H812      1.0  0.76927  0.58282  0.40154  1.0000
  C   C673      1.0  0.54166  0.62854  0.45618  1.0000
  H   H813      1.0  0.57008  0.36212  0.01678  1.0000
  H   H814      1.0  0.78785  0.57489  0.05648  1.0000
  H   H815      1.0  0.75853  0.54272  0.05461  1.0000
  C   C674      1.0  0.66932  0.35666  0.43369  1.0000
  H   H816      1.0  0.79332  0.60253  0.04286  1.0000
  H   H817      1.0  0.67265  0.37473  0.43791  1.0000
  C   C675      1.0  0.76327  0.66571  0.43264  1.0000
  C   C676      1.0  0.74097  0.51537  0.44140  1.0000
  C   C677      1.0  0.68174  0.35206  0.05933  1.0000
  H   H818      1.0  0.81030  0.57750  0.03123  1.0000
  H   H819      1.0  0.75533  0.61032  0.40964  1.0000
  C   C678      1.0  0.55899  0.35014  0.02945  1.0000
  N   N45       1.0  0.76460  0.57940  0.02361  1.0000
  H   H820      1.0  0.56837  0.65059  0.01471  1.0000
  H   H821      1.0  0.54197  0.39360  0.02845  1.0000
  H   H822      1.0  0.71861  0.58307  0.02444  1.0000
  C   C679      1.0  0.73418  0.59452  0.45148  1.0000
  S   S182      1.0  0.70532  0.65140  0.07309  1.0000
  C   C680      1.0  0.52088  0.60820  0.03262  1.0000
  C   C681      1.0  0.65388  0.34435  0.05264  1.0000
  C   C682      1.0  0.76808  0.59458  0.00257  1.0000
  S   S183      1.0  0.69506  0.40229  0.00226  1.0000
  H   H823      1.0  0.78251  0.59740  0.42727  1.0000
  H   H824      1.0  0.61453  0.56840  0.01162  1.0000
  H   H825      1.0  0.79003  0.56927  0.45365  1.0000
  C   C683      1.0  0.68330  0.53945  0.01266  1.0000
  C   C684      1.0  0.74917  0.55753  0.43753  1.0000
  S   S184      1.0  0.61754  0.41967  0.48445  1.0000
  N   N46       1.0  0.60947  0.64410  0.09870  1.0000
  C   C685      1.0  0.65142  0.34248  0.44761  1.0000
  C   C686      1.0  0.67123  0.50085  0.48326  1.0000
  H   H826      1.0  0.58604  0.62428  0.12504  1.0000
  C   C687      1.0  0.52969  0.38174  0.04054  1.0000
  S   S185      1.0  0.71177  0.64804  0.41297  1.0000
  C   C688      1.0  0.73175  0.53720  0.43381  1.0000
  H   H827      1.0  0.69138  0.36724  0.05092  1.0000
  S   S186      1.0  0.68363  0.46902  0.01508  1.0000
  H   H828      1.0  0.68206  0.55307  0.02525  1.0000
  Fe  Fe94      1.0  0.67632  0.60530  0.99861  1.0000
  H   H829      1.0  0.52046  0.59074  0.03980  1.0000
  C   C689      1.0  0.76449  0.65378  0.06387  1.0000
  N   N47       1.0  0.54806  0.36272  0.04977  1.0000
  H   H830      1.0  0.57547  0.33716  0.03456  1.0000
  H   H831      1.0  0.57780  0.48902  0.45466  1.0000
  N   N48       1.0  0.73978  0.58101  0.43033  1.0000
  H   H832      1.0  0.69391  0.57370  0.42526  1.0000
  C   C690      1.0  0.76774  0.51305  0.45266  1.0000
  H   H833      1.0  0.75987  0.64246  0.04941  1.0000
  C   C691      1.0  0.68318  0.49797  0.00424  1.0000
  C   C692      1.0  0.77602  0.55456  0.44957  1.0000
  H   H834      1.0  0.51072  0.37499  0.03028  1.0000
  H   H835      1.0  0.71870  0.34594  0.08217  1.0000
  H   H836      1.0  0.55503  0.62410  0.09347  1.0000
  C   C693      1.0  0.68159  0.51611  0.02021  1.0000
  Fe  Fe95      1.0  0.65075  0.38619  0.00604  1.0000
  S   S187      1.0  0.62840  0.42013  0.00248  1.0000
  H   H837      1.0  0.81085  0.65430  0.05883  1.0000
  C   C694      1.0  0.71293  0.58082  0.41561  1.0000
  S   S188      1.0  0.67165  0.47183  0.47335  1.0000
  C   C695      1.0  0.52170  0.65349  0.01480  1.0000
  H   H838      1.0  0.59965  0.60909  0.08727  1.0000
  H   H839      1.0  0.75387  0.59678  0.46271  1.0000
  C   C696      1.0  0.69709  0.34008  0.07709  1.0000
  C   C697      1.0  0.75898  0.53764  0.03657  1.0000
  C   C698      1.0  0.54191  0.64862  0.46950  1.0000
  C   C699      1.0  0.68222  0.34756  0.41380  1.0000
  C   C700      1.0  0.76203  0.55438  0.01825  1.0000
  H   H840      1.0  0.71716  0.58591  0.46242  1.0000
  C   C701      1.0  0.53163  0.65123  0.07699  1.0000
  S   S189      1.0  0.70093  0.63955  0.00308  1.0000
  Fe  Fe96      1.0  0.65710  0.66143  0.48778  1.0000
  C   C702      1.0  0.79009  0.58373  0.03920  1.0000
  C   C703      1.0  0.58805  0.55690  0.48619  1.0000
  C   C704      1.0  0.57312  0.37359  0.06235  1.0000
  C   C705      1.0  0.74646  0.66225  0.41239  1.0000
  S   S190      1.0  0.69754  0.64126  0.48181  1.0000
  H   H841      1.0  0.59073  0.54619  0.02331  1.0000
  Fe  Fe97      1.0  0.65926  0.43871  0.49371  1.0000
  C   C706      1.0  0.60582  0.55049  0.00881  1.0000
  H   H842      1.0  0.72709  0.50014  0.43869  1.0000
  H   H843      1.0  0.77007  0.61324  0.00717  1.0000
  C   C707      1.0  0.63549  0.65981  0.09859  1.0000
  C   C708      1.0  0.55669  0.64171  0.08685  1.0000
  C   C709      1.0  0.75536  0.50630  0.00909  1.0000
  C   C710      1.0  0.53263  0.34621  0.06560  1.0000
  H   H844      1.0  0.60645  0.56890  0.48469  1.0000
  C   C711      1.0  0.53634  0.55009  0.48775  1.0000
  C   C712      1.0  0.74182  0.66123  0.07762  1.0000
  H   H845      1.0  0.52181  0.39272  0.05479  1.0000
  C   C713      1.0  0.61695  0.62280  0.08624  1.0000
  H   H846      1.0  0.53308  0.47934  0.47785  1.0000
  C   C714      1.0  0.73810  0.58659  0.03558  1.0000
  H   H847      1.0  0.54109  0.34089  0.02001  1.0000
  H   H848      1.0  0.80589  0.53079  0.46585  1.0000
  C   C715      1.0  0.75560  0.51399  0.03197  1.0000
  H   H849      1.0  0.75233  0.50153  0.04612  1.0000
  Fe  Fe98      1.0  0.64262  0.38696  0.48999  1.0000
  H   H850      1.0  0.65474  0.65155  0.10696  1.0000
  C   C716      1.0  0.51496  0.61736  0.45094  1.0000
  N   N49       1.0  0.57426  0.49173  0.49191  1.0000
  H   H851      1.0  0.55164  0.56246  0.99943  1.0000
  C   C717      1.0  0.59246  0.53308  0.48843  1.0000
  S   S191      1.0  0.64340  0.66221  0.44989  1.0000
  H   H852      1.0  0.51464  0.60180  0.44067  1.0000
  H   H853      1.0  0.75492  0.66010  0.44939  1.0000
  H   H854      1.0  0.59635  0.65328  0.13309  1.0000
  H   H855      1.0  0.62291  0.63091  0.13257  1.0000
  C   C718      1.0  0.56885  0.51692  0.49028  1.0000
  H   H856      1.0  0.56231  0.65739  0.47358  1.0000
  C   C719      1.0  0.60340  0.63787  0.12340  1.0000
  H   H857      1.0  0.55671  0.58387  0.48377  1.0000
  C   C720      1.0  0.54050  0.52618  0.49005  1.0000
  C   C721      1.0  0.54742  0.47704  0.49348  1.0000
  H   H858      1.0  0.52118  0.51537  0.49154  1.0000
  H   H859      1.0  0.74498  0.66715  0.37501  1.0000
  H   H860      1.0  0.51159  0.64101  0.07611  1.0000
  C   C722      1.0  0.58343  0.65444  0.08761  1.0000
  H   H861      1.0  0.54162  0.33654  0.43881  1.0000
  H   H862      1.0  0.73954  0.52950  0.49389  1.0000
  Fe  Fe99      1.0  0.67232  0.43602  0.99502  1.0000
  C   C723      1.0  0.76171  0.54590  0.99506  1.0000
  H   H863      1.0  0.73347  0.48835  0.50147  1.0000
  H   H864      1.0  0.60151  0.55295  0.94955  1.0000
  S   S192      1.0  0.81367  0.36031  0.86533  1.0000
  C   C724      1.0  0.76268  0.45429  0.55665  1.0000
  S   S193      1.0  0.64557  0.37773  0.96817  1.0000
  H   H865      1.0  0.52014  0.66516  0.96306  1.0000
  S   S194      1.0  0.66936  0.43066  0.95620  1.0000
  H   H866      1.0  0.75541  0.49996  0.57461  1.0000
  Fe  Fe100     1.0  0.62612  0.41292  0.96434  1.0000
  H   H867      1.0  0.77193  0.34162  0.94262  1.0000
  Fe  Fe101     1.0  0.68930  0.39556  0.96367  1.0000
  S   S195      1.0  0.72606  0.37331  0.94999  1.0000
  C   C725      1.0  0.51723  0.39264  0.58394  1.0000
  H   H868      1.0  0.53504  0.48072  0.50948  1.0000
  H   H869      1.0  0.68772  0.48965  0.96805  1.0000
  H   H870      1.0  0.74889  0.59307  0.99056  1.0000
  C   C726      1.0  0.68857  0.52682  0.97301  1.0000
  C   C727      1.0  0.56260  0.47734  0.97567  1.0000
  H   H871      1.0  0.75825  0.43557  0.56091  1.0000
  S   S196      1.0  0.81965  0.33649  0.57263  1.0000
  S   S197      1.0  0.65068  0.43863  0.53198  1.0000
  H   H872      1.0  0.76288  0.55721  0.97989  1.0000
  S   S198      1.0  0.63259  0.38407  0.52835  1.0000
  Fe  Fe102     1.0  0.61018  0.41793  0.52296  1.0000
  S   S199      1.0  0.56744  0.43004  0.53740  1.0000
  Fe  Fe103     1.0  0.67422  0.40463  0.53350  1.0000
  S   S200      1.0  0.70576  0.39806  0.56418  1.0000
  H   H873      1.0  0.79497  0.36184  0.72504  1.0000
  C   C728      1.0  0.67404  0.52946  0.51402  1.0000
  N   N50       1.0  0.59088  0.54842  0.98581  1.0000
  H   H874      1.0  0.78181  0.45529  0.54505  1.0000
  H   H875      1.0  0.67558  0.53336  0.53241  1.0000
  H   H876      1.0  0.67136  0.49233  0.51993  1.0000
  C   C729      1.0  0.78751  0.35315  0.57087  1.0000
  C   C730      1.0  0.77418  0.36164  0.59064  1.0000
  C   C731      1.0  0.74913  0.37518  0.58823  1.0000
  C   C732      1.0  0.73671  0.38008  0.56613  1.0000
  C   C733      1.0  0.74989  0.37142  0.54635  1.0000
  C   C734      1.0  0.77525  0.35824  0.54873  1.0000
  C   C735      1.0  0.78772  0.34382  0.75784  1.0000
  H   H877      1.0  0.75339  0.55631  0.52540  1.0000
  H   H878      1.0  0.69171  0.53084  0.95470  1.0000
  S   S201      1.0  0.58313  0.42184  0.94668  1.0000
  C   C736      1.0  0.72856  0.45085  0.52495  1.0000
  C   C737      1.0  0.59191  0.48296  0.97861  1.0000
  H   H879      1.0  0.86876  0.34522  0.73668  1.0000
  C   C738      1.0  0.94682  0.34277  0.78916  1.0000
  H   H880      1.0  0.58102  0.49143  0.52917  1.0000
  H   H881      1.0  0.73921  0.38182  0.60367  1.0000
  H   H882      1.0  0.55582  0.45948  0.97282  1.0000
  C   C739      1.0  0.78942  0.36375  0.88899  1.0000
  C   C740      1.0  0.76889  0.38147  0.88780  1.0000
  C   C741      1.0  0.74935  0.38477  0.90619  1.0000
  C   C742      1.0  0.75015  0.37039  0.92611  1.0000
  C   C743      1.0  0.58064  0.52414  0.98258  1.0000
  H   H883      1.0  0.96132  0.35545  0.77995  1.0000
  H   H884      1.0  0.76812  0.39279  0.87258  1.0000
  H   H885      1.0  0.73373  0.39845  0.90496  1.0000
  H   H886      1.0  0.80958  0.35075  0.80230  1.0000
  H   H887      1.0  0.56859  0.38174  0.97617  1.0000
  C   C744      1.0  0.54867  0.39034  0.97151  1.0000
  C   C745      1.0  0.54971  0.41025  0.95726  1.0000
  H   H888      1.0  0.94989  0.34610  0.80815  1.0000
  C   C746      1.0  0.67175  0.50616  0.50699  1.0000
  H   H889      1.0  0.74075  0.37508  0.52922  1.0000
  C   C747      1.0  0.79015  0.34935  0.90888  1.0000
  H   H890      1.0  0.75745  0.51612  0.97290  1.0000
  H   H891      1.0  0.70846  0.45721  0.51621  1.0000
  S   S202      1.0  0.68551  0.40594  0.49540  1.0000
  C   C748      1.0  0.53374  0.41908  0.52653  1.0000
  H   H892      1.0  0.59710  0.46782  0.51451  1.0000
  H   H893      1.0  0.75680  0.35301  0.79727  1.0000
  H   H894      1.0  0.76200  0.54122  0.56552  1.0000
  C   C749      1.0  0.71274  0.46424  0.56196  1.0000
  C   C750      1.0  0.74385  0.48973  0.53909  1.0000
  C   C751      1.0  0.52176  0.38107  0.97895  1.0000
  C   C752      1.0  0.61161  0.55509  0.96717  1.0000
  H   H895      1.0  0.71848  0.47239  0.57888  1.0000
  H   H896      1.0  0.76899  0.46246  0.57344  1.0000
  H   H897      1.0  0.52410  0.43620  0.93964  1.0000
  S   S203      1.0  0.62965  0.62967  0.49643  1.0000
  S   S204      1.0  0.69166  0.57407  0.97896  1.0000
  C   C753      1.0  0.55081  0.51776  0.97974  1.0000
  H   H898      1.0  0.92378  0.34673  0.78487  1.0000
  C   C754      1.0  0.54209  0.49465  0.97631  1.0000
  H   H899      1.0  0.70584  0.44608  0.56628  1.0000
  H   H900      1.0  0.57588  0.58359  0.98727  1.0000
  H   H901      1.0  0.51300  0.41363  0.61417  1.0000
  H   H902      1.0  0.54063  0.39498  0.58324  1.0000
  C   C755      1.0  0.53226  0.39989  0.51198  1.0000
  H   H903      1.0  0.78680  0.35995  0.76707  1.0000
  C   C756      1.0  0.75245  0.50563  0.55668  1.0000
  H   H904      1.0  0.61355  0.49592  0.51278  1.0000
  C   C757      1.0  0.60088  0.50595  0.98211  1.0000
  C   C758      1.0  0.74037  0.49891  0.51602  1.0000
  H   H905      1.0  0.53375  0.53025  0.98003  1.0000
  H   H906      1.0  0.80582  0.33571  0.91017  1.0000
  S   S205      1.0  0.63531  0.62184  0.98541  1.0000
  H   H907      1.0  0.60779  0.46937  0.97800  1.0000
  H   H908      1.0  0.78331  0.35798  0.60778  1.0000
  H   H909      1.0  0.51500  0.37135  0.55362  1.0000
  H   H910      1.0  0.55201  0.39174  0.50681  1.0000
  C   C759      1.0  0.77074  0.35271  0.92728  1.0000
  S   S206      1.0  0.68138  0.57661  0.50697  1.0000
  H   H911      1.0  0.69346  0.47321  0.55461  1.0000
  H   H912      1.0  0.72392  0.43248  0.53023  1.0000
  H   H913      1.0  0.92893  0.33755  0.70540  1.0000
  H   H914      1.0  0.52109  0.36519  0.98913  1.0000
  C   C760      1.0  0.59227  0.48660  0.51297  1.0000
  C   C761      1.0  0.67512  0.54773  0.49744  1.0000
  H   H915      1.0  0.74610  0.45047  0.51188  1.0000
  C   C762      1.0  0.75626  0.52930  0.55167  1.0000
  C   C763      1.0  0.68622  0.50344  0.98051  1.0000
  H   H916      1.0  0.63142  0.54454  0.96782  1.0000
  H   H917      1.0  0.51928  0.49008  0.97397  1.0000
  C   C764      1.0  0.52356  0.42093  0.95085  1.0000
  N   N51       1.0  0.73711  0.46520  0.54534  1.0000
  C   C765      1.0  0.79235  0.34513  0.73379  1.0000
  H   H918      1.0  0.62390  0.50932  0.98437  1.0000
  C   C766      1.0  0.68724  0.54494  0.98904  1.0000
  C   C767      1.0  0.74407  0.52265  0.51127  1.0000
  C   C768      1.0  0.75169  0.53783  0.52907  1.0000
  C   C769      1.0  0.56727  0.56554  0.98501  1.0000
  H   H919      1.0  0.61941  0.57341  0.96866  1.0000
  H   H920      1.0  0.78540  0.35190  0.53327  1.0000
  H   H921      1.0  0.55529  0.56527  0.96800  1.0000
  H   H922      1.0  0.93754  0.34810  0.74563  1.0000
  H   H923      1.0  0.68691  0.33747  0.98110  1.0000
  C   C770      1.0  0.75856  0.52219  0.99071  1.0000
  H   H924      1.0  0.78787  0.59034  0.99278  1.0000
  Fe  Fe104     1.0  0.65831  0.65573  0.99324  1.0000
  H   H925      1.0  0.73869  0.34833  0.99176  1.0000
  H   H926      1.0  0.55243  0.45823  0.49464  1.0000
  H   H927      1.0  0.95274  0.76295  0.28431  1.0000
  C   C771      1.0  0.95744  0.71272  0.21232  1.0000
  S   S207      1.0  0.88415  0.88953  0.04434  1.0000
  S   S208      1.0  0.90281  0.92169  0.47935  1.0000
  C   C772      1.0  0.99902  0.74170  0.13659  1.0000
  S   S209      1.0  0.88588  0.85367  0.47001  1.0000
  Fe  Fe105     1.0  0.86143  0.76687  0.10378  1.0000
  S   S210      1.0  0.88170  0.73705  0.08674  1.0000
  S   S211      1.0  0.83680  0.79192  0.08067  1.0000
  Fe  Fe106     1.0  0.87444  0.74746  0.15270  1.0000
  S   S212      1.0  0.89546  0.71545  0.13874  1.0000
  S   S213      1.0  0.87173  0.76305  0.18915  1.0000
  Fe  Fe107     1.0  0.91749  0.74040  0.11358  1.0000
  S   S214      1.0  0.96239  0.74033  0.09759  1.0000
  Fe  Fe108     1.0  0.85772  0.71452  0.11259  1.0000
  S   S215      1.0  0.83687  0.68344  0.09369  1.0000
  S   S216      1.0  0.89874  0.77229  0.12861  1.0000
  S   S217      1.0  0.83534  0.74450  0.12848  1.0000
  H   H928      1.0  0.00290  0.71305  0.29327  1.0000
  Fe  Fe109     1.0  0.86865  0.73273  0.32832  1.0000
  S   S218      1.0  0.89317  0.70908  0.35316  1.0000
  S   S219      1.0  0.86399  0.71789  0.29167  1.0000
  Fe  Fe110     1.0  0.86158  0.76916  0.36637  1.0000
  S   S220      1.0  0.88604  0.74809  0.39266  1.0000
  S   S221      1.0  0.84403  0.80412  0.37639  1.0000
  Fe  Fe111     1.0  0.91727  0.74157  0.36390  1.0000
  S   S222      1.0  0.96489  0.75207  0.36865  1.0000
  Fe  Fe112     1.0  0.85904  0.71786  0.37940  1.0000
  S   S223      1.0  0.83838  0.69571  0.40859  1.0000
  S   S224      1.0  0.89425  0.76475  0.33811  1.0000
  S   S225      1.0  0.83304  0.73935  0.35402  1.0000
  H   H929      1.0  0.83649  0.85990  0.02876  1.0000
  C   C773      1.0  0.80258  0.68347  0.40954  1.0000
  H   H930      1.0  0.79391  0.68599  0.37259  1.0000
  C   C774      1.0  0.75644  0.71262  0.03478  1.0000
  H   H931      1.0  0.99220  0.73489  0.31257  1.0000
  H   H932      1.0  0.92384  0.70262  0.29316  1.0000
  C   C775      1.0  0.86932  0.75002  0.21745  1.0000
  C   C776      1.0  0.86962  0.76442  0.23706  1.0000
  C   C777      1.0  0.86806  0.75495  0.25990  1.0000
  C   C778      1.0  0.86608  0.73092  0.26337  1.0000
  C   C779      1.0  0.86589  0.71655  0.24376  1.0000
  C   C780      1.0  0.86753  0.72600  0.22093  1.0000
  H   H933      1.0  0.87103  0.78302  0.23459  1.0000
  H   H934      1.0  0.86809  0.76624  0.27478  1.0000
  H   H935      1.0  0.86437  0.69793  0.24624  1.0000
  H   H936      1.0  0.86734  0.71469  0.20607  1.0000
  C   C781      1.0  0.96012  0.83329  0.99632  1.0000
  H   H937      1.0  0.60299  0.68790  0.07651  1.0000
  C   C782      1.0  0.99989  0.81458  0.06876  1.0000
  C   C783      1.0  0.97258  0.83625  0.41614  1.0000
  H   H938      1.0  0.98839  0.87456  0.99669  1.0000
  H   H939      1.0  0.81825  0.82173  0.04339  1.0000
  C   C784      1.0  0.93481  0.99905  0.49021  1.0000
  H   H940      1.0  0.70766  0.75299  0.47382  1.0000
  H   H941      1.0  0.78784  0.98810  0.49144  1.0000
  H   H942      1.0  0.97966  0.74117  0.14700  1.0000
  C   C785      1.0  0.97346  0.70284  0.25162  1.0000
  C   C786      1.0  0.99928  0.71537  0.35576  1.0000
  C   C787      1.0  0.99801  0.73831  0.36318  1.0000
  H   H943      1.0  0.82234  0.75800  0.40644  1.0000
  H   H944      1.0  0.97952  0.70508  0.35384  1.0000
  C   C788      1.0  0.75775  0.66975  0.39080  1.0000
  C   C789      1.0  0.87207  0.84035  0.44442  1.0000
  C   C790      1.0  0.87758  0.81679  0.44131  1.0000
  C   C791      1.0  0.86901  0.80558  0.42065  1.0000
  C   C792      1.0  0.85501  0.81784  0.40268  1.0000
  C   C793      1.0  0.84890  0.84132  0.40595  1.0000
  C   C794      1.0  0.85746  0.85259  0.42672  1.0000
  H   H945      1.0  0.88876  0.80716  0.45495  1.0000
  H   H946      1.0  0.87324  0.78744  0.41873  1.0000
  H   H947      1.0  0.83780  0.85094  0.39226  1.0000
  H   H948      1.0  0.85316  0.87078  0.42886  1.0000
  H   H949      1.0  0.79926  0.73331  0.40246  1.0000
  C   C795      1.0  0.95179  0.86926  0.43608  1.0000
  C   C796      1.0  0.87275  0.86134  0.05285  1.0000
  C   C797      1.0  0.88780  0.84949  0.07072  1.0000
  C   C798      1.0  0.87811  0.82740  0.07845  1.0000
  C   C799      1.0  0.85271  0.81751  0.06888  1.0000
  C   C800      1.0  0.83801  0.82920  0.05077  1.0000
  C   C801      1.0  0.84826  0.85087  0.04251  1.0000
  H   H950      1.0  0.90686  0.85749  0.07870  1.0000
  H   H951      1.0  0.88960  0.81851  0.09241  1.0000
  H   H952      1.0  0.93016  0.75029  0.25015  1.0000
  H   H953      1.0  0.97782  0.80110  0.36930  1.0000
  H   H954      1.0  0.68985  0.71589  0.45750  1.0000
  H   H955      1.0  0.94595  0.75002  0.31232  1.0000
  C   C802      1.0  0.77402  0.73214  0.02828  1.0000
  H   H956      1.0  0.94613  0.70904  0.31831  1.0000
  H   H957      1.0  0.63175  0.67603  0.10820  1.0000
  C   C803      1.0  0.94828  0.84838  0.42422  1.0000
  N   N52       1.0  0.83747  0.82393  0.15888  1.0000
  C   C804      1.0  0.82221  0.80295  0.14976  1.0000
  C   C805      1.0  0.86898  0.82203  0.15474  1.0000
  C   C806      1.0  0.83329  0.82401  0.18454  1.0000
  C   C807      1.0  0.82670  0.84491  0.14660  1.0000
  C   C808      1.0  0.81552  0.86416  0.15844  1.0000
  C   C809      1.0  0.82816  0.84681  0.12194  1.0000
  C   C810      1.0  0.80659  0.88399  0.14613  1.0000
  C   C811      1.0  0.81943  0.86672  0.10981  1.0000
  C   C812      1.0  0.80864  0.88530  0.12188  1.0000
  H   H958      1.0  0.82721  0.79972  0.13120  1.0000
  H   H959      1.0  0.82861  0.78699  0.15960  1.0000
  H   H960      1.0  0.79827  0.80440  0.15102  1.0000
  H   H961      1.0  0.87374  0.81976  0.13596  1.0000
  H   H962      1.0  0.87825  0.80685  0.16427  1.0000
  H   H963      1.0  0.88115  0.83781  0.16059  1.0000
  H   H964      1.0  0.80994  0.82511  0.18890  1.0000
  H   H965      1.0  0.84125  0.80776  0.19308  1.0000
  H   H966      1.0  0.84570  0.83849  0.19289  1.0000
  H   H967      1.0  0.81355  0.86438  0.17717  1.0000
  H   H968      1.0  0.83636  0.83290  0.11183  1.0000
  H   H969      1.0  0.79817  0.89854  0.15542  1.0000
  H   H970      1.0  0.82125  0.86775  0.09093  1.0000
  H   H971      1.0  0.80196  0.90074  0.11239  1.0000
  H   H972      1.0  0.78739  0.72403  0.07425  1.0000
  C   C813      1.0  0.74040  0.75886  0.44764  1.0000
  C   C814      1.0  0.99655  0.74151  0.11224  1.0000
  C   C815      1.0  0.53245  0.67353  0.06739  1.0000
  C   C816      1.0  0.73014  0.70754  0.02330  1.0000
  H   H973      1.0  0.92494  0.81675  0.39201  1.0000
  H   H974      1.0  0.77775  0.71962  0.48480  1.0000
  H   H975      1.0  0.74712  0.77489  0.45573  1.0000
  H   H976      1.0  0.96803  0.83104  0.36999  1.0000
  H   H977      1.0  0.92623  0.84220  0.42163  1.0000
  H   H978      1.0  0.84290  0.71979  0.04636  1.0000
  C   C817      1.0  0.74282  0.72915  0.41841  1.0000
  C   C818      1.0  0.94402  0.74704  0.29318  1.0000
  C   C819      1.0  0.94168  0.86350  0.02013  1.0000
  C   C820      1.0  0.98727  0.79607  0.41572  1.0000
  S   S226      1.0  0.84952  0.97371  0.46894  1.0000
  H   H979      1.0  0.95872  0.68981  0.29682  1.0000
  C   C821      1.0  0.94627  0.81850  0.04593  1.0000
  C   C822      1.0  0.55840  0.68637  0.06743  1.0000
  C   C823      1.0  0.00367  0.86746  0.43233  1.0000
  H   H980      1.0  0.80489  0.79416  0.41744  1.0000
  N   N53       1.0  0.96631  0.84780  0.01698  1.0000
  H   H981      1.0  0.93945  0.87615  0.00533  1.0000
  H   H982      1.0  0.92043  0.85411  0.02102  1.0000
  H   H983      1.0  0.76295  0.70112  0.04885  1.0000
  C   C824      1.0  0.96992  0.83250  0.03781  1.0000
  C   C825      1.0  0.93937  0.80485  0.40207  1.0000
  C   C826      1.0  0.97287  0.69844  0.22767  1.0000
  H   H984      1.0  0.94556  0.83743  0.47897  1.0000
  C   C827      1.0  0.94279  0.73586  0.24479  1.0000
  H   H985      1.0  0.94436  0.87358  0.03646  1.0000
  C   C828      1.0  0.99046  0.72928  0.29410  1.0000
  H   H986      1.0  0.78248  0.75448  0.06883  1.0000
  C   C829      1.0  0.94666  0.70601  0.29917  1.0000
  C   C830      1.0  0.79995  0.67557  0.08783  1.0000
  C   C831      1.0  0.70748  0.72551  0.44914  1.0000
  H   H987      1.0  0.98190  0.89496  0.44938  1.0000
  C   C832      1.0  0.79706  0.73976  0.06580  1.0000
  H   H988      1.0  0.78189  0.69485  0.11567  1.0000
  C   C833      1.0  0.94249  0.73137  0.22086  1.0000
  H   H989      1.0  0.52215  0.67123  0.00842  1.0000
  H   H990      1.0  0.93126  0.79233  0.07062  1.0000
  H   H991      1.0  0.84924  0.98270  0.00525  1.0000
  H   H992      1.0  0.81242  0.70063  0.04545  1.0000
  H   H993      1.0  0.00179  0.74275  0.28328  1.0000
  H   H994      1.0  0.92512  0.81916  0.03755  1.0000
  H   H995      1.0  0.51304  0.68056  0.05927  1.0000
  N   N54       1.0  0.95976  0.72609  0.28634  1.0000
  H   H996      1.0  0.83877  0.76071  0.04143  1.0000
  H   H997      1.0  0.81771  0.74338  0.07550  1.0000
  C   C834      1.0  0.81776  0.75791  0.03187  1.0000
  H   H998      1.0  0.92035  0.74522  0.28919  1.0000
  H   H999      1.0  0.93933  0.82329  0.99790  1.0000
  C   C835      1.0  0.94949  0.80309  0.06485  1.0000
  H   H1000     1.0  0.82310  0.75668  0.01309  1.0000
  C   C836      1.0  0.82141  0.71689  0.03758  1.0000
  H   H1001     1.0  0.76914  0.79761  0.42768  1.0000
  C   C837      1.0  0.95849  0.72174  0.26093  1.0000
  Fe  Fe113     1.0  0.87654  0.88876  0.48558  1.0000
  C   C838      1.0  0.78548  0.68052  0.38937  1.0000
  H   H1002     1.0  0.95676  0.70921  0.19377  1.0000
  H   H1003     1.0  0.71195  0.70066  0.42209  1.0000
  H   H1004     1.0  0.93013  0.74223  0.20886  1.0000
  C   C839      1.0  0.80327  0.74843  0.41389  1.0000
  C   C840      1.0  0.78702  0.78503  0.42700  1.0000
  Fe  Fe114     1.0  0.86220  0.94047  0.48847  1.0000
  S   S227      1.0  0.83462  0.90739  0.49080  1.0000
  C   C841      1.0  0.72002  0.71693  0.42921  1.0000
  Fe  Fe115     1.0  0.87384  0.89967  0.00687  1.0000
  N   N55       1.0  0.96971  0.81404  0.40362  1.0000
  H   H1005     1.0  0.82518  0.71365  0.01880  1.0000
  C   C842      1.0  0.71759  0.74644  0.45828  1.0000
  H   H1006     1.0  0.76320  0.75419  0.38032  1.0000
  H   H1007     1.0  0.79550  0.78149  0.44497  1.0000
  N   N56       1.0  0.80205  0.73677  0.04053  1.0000
  C   C843      1.0  0.77720  0.68351  0.10118  1.0000
  N   N57       1.0  0.77758  0.76332  0.41522  1.0000
  C   C844      1.0  0.75372  0.75055  0.42724  1.0000
  H   H1008     1.0  0.93288  0.87805  0.44228  1.0000
  C   C845      1.0  0.76818  0.76967  0.39110  1.0000
  H   H1009     1.0  0.75185  0.72166  0.40304  1.0000
  H   H1010     1.0  0.78543  0.77981  0.38170  1.0000
  H   H1011     1.0  0.74841  0.78036  0.39117  1.0000
  H   H1012     1.0  0.80981  0.74150  0.43140  1.0000
  H   H1013     1.0  0.80507  0.77380  0.03462  1.0000
  C   C846      1.0  0.74838  0.67611  0.09628  1.0000
  C   C847      1.0  0.99697  0.83005  0.04984  1.0000
  C   C848      1.0  0.98033  0.81733  0.37948  1.0000
  H   H1014     1.0  0.93789  0.78800  0.39291  1.0000
  H   H1015     1.0  0.00373  0.82235  0.37909  1.0000
  H   H1016     1.0  0.55903  0.70352  0.05941  1.0000
  C   C849      1.0  0.58361  0.67708  0.07736  1.0000
  C   C850      1.0  0.97625  0.80113  0.07622  1.0000
  C   C851      1.0  0.99230  0.86264  0.01187  1.0000
  C   C852      1.0  0.00041  0.84659  0.42036  1.0000
  H   H1017     1.0  0.97873  0.78896  0.09072  1.0000
  H   H1018     1.0  0.98430  0.77881  0.40746  1.0000
  C   C853      1.0  0.73709  0.74111  0.99822  1.0000
  C   C854      1.0  0.76344  0.74640  0.00965  1.0000
  H   H1019     1.0  0.99426  0.82579  0.46666  1.0000
  H   H1020     1.0  0.99833  0.87380  0.02692  1.0000
  H   H1021     1.0  0.98551  0.69119  0.26288  1.0000
  H   H1022     1.0  0.93025  0.80163  0.41971  1.0000
  C   C855      1.0  0.85342  0.99942  0.99701  1.0000
  H   H1023     1.0  0.98418  0.68377  0.22096  1.0000
  C   C856      1.0  0.72054  0.72172  0.00500  1.0000
  C   C857      1.0  0.79124  0.67607  0.43116  1.0000
  H   H1024     1.0  0.77502  0.76175  0.00357  1.0000
  H   H1025     1.0  0.80426  0.67827  0.44687  1.0000
  H   H1026     1.0  0.98096  0.79394  0.43431  1.0000
  H   H1027     1.0  0.73107  0.68187  0.10714  1.0000
  C   C858      1.0  0.99123  0.83204  0.48411  1.0000
  C   C859      1.0  0.97938  0.87877  0.44014  1.0000
  H   H1028     1.0  0.71709  0.69252  0.02865  1.0000
  C   C860      1.0  0.96388  0.83863  0.49106  1.0000
  H   H1029     1.0  0.51601  0.67343  0.48701  1.0000
  H   H1030     1.0  0.70016  0.71770  0.99606  1.0000
  H   H1031     1.0  0.91632  0.98725  0.49249  1.0000
  Fe  Fe116     1.0  0.67187  0.82171  0.86768  1.0000
  S   S228      1.0  0.68500  0.79432  0.84255  1.0000
  S   S229      1.0  0.70253  0.85308  0.87313  1.0000
  Fe  Fe117     1.0  0.61071  0.79916  0.87387  1.0000
  S   S230      1.0  0.62044  0.77051  0.84952  1.0000
  S   S231      1.0  0.56773  0.79696  0.89317  1.0000
  Fe  Fe118     1.0  0.66360  0.76942  0.86818  1.0000
  S   S232      1.0  0.68240  0.73463  0.87857  1.0000
  Fe  Fe119     1.0  0.64054  0.79811  0.82623  1.0000
  S   S233      1.0  0.62426  0.80132  0.78833  1.0000
  S   S234      1.0  0.65305  0.79654  0.89412  1.0000
  S   S235      1.0  0.62832  0.82702  0.84986  1.0000
  Fe  Fe120     1.0  0.83772  0.88980  0.96247  1.0000
  C   C861      1.0  0.00415  0.87833  0.94799  1.0000
  S   S236      1.0  0.80196  0.86342  0.95199  1.0000
  Fe  Fe121     1.0  0.90488  0.89548  0.96081  1.0000
  S   S237      1.0  0.94451  0.87810  0.94689  1.0000
  Fe  Fe122     1.0  0.86773  0.93740  0.96947  1.0000
  H   H1032     1.0  0.51699  0.74977  0.58789  1.0000
  C   C862      1.0  0.56484  0.69641  0.53297  1.0000
  S   S238      1.0  0.86829  0.91139  0.94026  1.0000
  Fe  Fe123     1.0  0.66326  0.80537  0.65196  1.0000
  S   S239      1.0  0.65314  0.83603  0.62820  1.0000
  S   S240      1.0  0.68388  0.80852  0.68838  1.0000
  Fe  Fe124     1.0  0.64980  0.77052  0.61347  1.0000
  S   S241      1.0  0.63857  0.79836  0.58757  1.0000
  S   S242      1.0  0.64863  0.73214  0.60536  1.0000
  Fe  Fe125     1.0  0.67841  0.81781  0.60076  1.0000
  S   S243      1.0  0.70853  0.82982  0.57101  1.0000
  Fe  Fe126     1.0  0.61430  0.81398  0.61690  1.0000
  S   S244      1.0  0.56983  0.82824  0.60726  1.0000
  S   S245      1.0  0.69095  0.78861  0.62508  1.0000
  S   S246      1.0  0.62296  0.78467  0.64223  1.0000
  Fe  Fe127     1.0  0.84726  0.90701  0.52888  1.0000
  C   C863      1.0  0.54911  0.71488  0.52389  1.0000
  S   S247      1.0  0.81643  0.90109  0.55953  1.0000
  Fe  Fe128     1.0  0.91137  0.92092  0.51788  1.0000
  S   S248      1.0  0.95512  0.93269  0.53281  1.0000
  H   H1033     1.0  0.55662  0.78215  0.54149  1.0000
  H   H1034     1.0  0.80496  0.75201  0.50357  1.0000
  S   S249      1.0  0.87215  0.94117  0.52673  1.0000
  S   S250      1.0  0.88782  0.88695  0.52403  1.0000
  N   N58       1.0  0.55756  0.75940  0.57202  1.0000
  H   H1035     1.0  0.60467  0.74011  0.93372  1.0000
  C   C864      1.0  0.98752  0.92314  0.52044  1.0000
  H   H1036     1.0  0.79264  0.78944  0.92222  1.0000
  C   C865      1.0  0.84361  0.87518  0.89409  1.0000
  C   C866      1.0  0.51924  0.68420  0.93042  1.0000
  H   H1037     1.0  0.54250  0.74262  0.89139  1.0000
  S   S251      1.0  0.86921  0.97539  0.95759  1.0000
  C   C867      1.0  0.64839  0.72229  0.57640  1.0000
  C   C868      1.0  0.64393  0.73752  0.55757  1.0000
  C   C869      1.0  0.64552  0.72956  0.53462  1.0000
  C   C870      1.0  0.65150  0.70631  0.53030  1.0000
  C   C871      1.0  0.65506  0.69084  0.54911  1.0000
  C   C872      1.0  0.65345  0.69884  0.57212  1.0000
  H   H1038     1.0  0.63982  0.75553  0.56065  1.0000
  H   H1039     1.0  0.64268  0.74157  0.52011  1.0000
  H   H1040     1.0  0.52376  0.70359  0.89898  1.0000
  H   H1041     1.0  0.65681  0.68693  0.58666  1.0000
  C   C873      1.0  0.53562  0.81748  0.61692  1.0000
  C   C874      1.0  0.53309  0.79868  0.63254  1.0000
  C   C875      1.0  0.78409  0.82075  0.87215  1.0000
  H   H1042     1.0  0.55240  0.79102  0.64000  1.0000
  H   H1043     1.0  0.51068  0.69432  0.56495  1.0000
  C   C876      1.0  0.73881  0.84949  0.56857  1.0000
  C   C877      1.0  0.74840  0.86353  0.58695  1.0000
  C   C878      1.0  0.77222  0.87909  0.58388  1.0000
  C   C879      1.0  0.78693  0.88072  0.56253  1.0000
  C   C880      1.0  0.77749  0.86653  0.54422  1.0000
  C   C881      1.0  0.75357  0.85110  0.54724  1.0000
  H   H1044     1.0  0.73734  0.86254  0.60345  1.0000
  H   H1045     1.0  0.77929  0.88993  0.59819  1.0000
  H   H1046     1.0  0.78847  0.86759  0.52768  1.0000
  H   H1047     1.0  0.74631  0.84043  0.53285  1.0000
  C   C882      1.0  0.97920  0.89171  0.94964  1.0000
  H   H1048     1.0  0.69021  0.76244  0.54122  1.0000
  C   C883      1.0  0.86307  0.00059  0.97399  1.0000
  H   H1049     1.0  0.96331  0.92609  0.95405  1.0000
  H   H1050     1.0  0.71928  0.82377  0.91328  1.0000
  C   C884      1.0  0.67674  0.72308  0.90695  1.0000
  C   C885      1.0  0.66638  0.73683  0.92468  1.0000
  C   C886      1.0  0.65971  0.72691  0.94654  1.0000
  C   C887      1.0  0.66309  0.70313  0.95088  1.0000
  C   C888      1.0  0.67434  0.68940  0.93346  1.0000
  C   C889      1.0  0.68126  0.69941  0.91156  1.0000
  H   H1051     1.0  0.66316  0.75508  0.92150  1.0000
  H   H1052     1.0  0.65128  0.73767  0.96002  1.0000
  H   H1053     1.0  0.00191  0.85985  0.94541  1.0000
  H   H1054     1.0  0.68935  0.68866  0.89792  1.0000
  C   C890      1.0  0.53404  0.80434  0.87997  1.0000
  C   C891      1.0  0.53190  0.81146  0.85657  1.0000
  H   H1055     1.0  0.82960  0.87896  0.90910  1.0000
  H   H1056     1.0  0.55121  0.81275  0.84609  1.0000
  H   H1057     1.0  0.74273  0.73402  0.58271  1.0000
  C   C892      1.0  0.66687  0.80446  0.71587  1.0000
  C   C893      1.0  0.68426  0.80314  0.73625  1.0000
  C   C894      1.0  0.67172  0.80145  0.75855  1.0000
  C   C895      1.0  0.64153  0.80149  0.76073  1.0000
  C   C896      1.0  0.62416  0.80257  0.74033  1.0000
  C   C897      1.0  0.63669  0.80386  0.71802  1.0000
  H   H1058     1.0  0.70762  0.80358  0.73477  1.0000
  H   H1059     1.0  0.68544  0.80026  0.77396  1.0000
  H   H1060     1.0  0.60080  0.80255  0.74179  1.0000
  H   H1061     1.0  0.62303  0.80494  0.70254  1.0000
  C   C898      1.0  0.72913  0.85623  0.89587  1.0000
  C   C899      1.0  0.74710  0.87630  0.89630  1.0000
  C   C900      1.0  0.76894  0.87921  0.91365  1.0000
  C   C901      1.0  0.77334  0.86188  0.93067  1.0000
  C   C902      1.0  0.75498  0.84205  0.93046  1.0000
  C   C903      1.0  0.73301  0.83922  0.91324  1.0000
  H   H1062     1.0  0.74404  0.88974  0.88316  1.0000
  H   H1063     1.0  0.78227  0.89486  0.91385  1.0000
  H   H1064     1.0  0.75797  0.82861  0.94361  1.0000
  N   N59       1.0  0.67145  0.86668  0.79553  1.0000
  C   C904      1.0  0.68720  0.88778  0.80386  1.0000
  C   C905      1.0  0.64121  0.86771  0.80398  1.0000
  C   C906      1.0  0.68492  0.84609  0.80655  1.0000
  C   C907      1.0  0.67328  0.86512  0.76981  1.0000
  C   C908      1.0  0.64841  0.86209  0.75506  1.0000
  C   C909      1.0  0.70070  0.86581  0.75884  1.0000
  C   C910      1.0  0.65101  0.86052  0.73086  1.0000
  C   C911      1.0  0.70302  0.86405  0.73463  1.0000
  C   C912      1.0  0.67822  0.86151  0.72067  1.0000
  H   H1065     1.0  0.67867  0.90364  0.79511  1.0000
  H   H1066     1.0  0.68513  0.88976  0.82311  1.0000
  H   H1067     1.0  0.71087  0.88729  0.80073  1.0000
  H   H1068     1.0  0.62953  0.88254  0.79589  1.0000
  H   H1069     1.0  0.64058  0.86991  0.82324  1.0000
  H   H1070     1.0  0.62870  0.85136  0.80032  1.0000
  H   H1071     1.0  0.70811  0.84456  0.80203  1.0000
  H   H1072     1.0  0.68399  0.84658  0.82592  1.0000
  H   H1073     1.0  0.67351  0.82989  0.80096  1.0000
  H   H1074     1.0  0.62675  0.86008  0.76178  1.0000
  H   H1075     1.0  0.72061  0.86712  0.76895  1.0000
  H   H1076     1.0  0.63190  0.85747  0.71996  1.0000
  H   H1077     1.0  0.72415  0.86396  0.72662  1.0000
  H   H1078     1.0  0.68011  0.85930  0.70199  1.0000
  C   C913      1.0  0.98350  0.84924  0.52969  1.0000
  H   H1079     1.0  0.59716  0.75630  0.59225  1.0000
  C   C914      1.0  0.00434  0.87293  0.56114  1.0000
  H   H1080     1.0  0.67703  0.67104  0.93662  1.0000
  H   H1081     1.0  0.51193  0.84204  0.59572  1.0000
  C   C915      1.0  0.99070  0.99961  0.98684  1.0000
  C   C916      1.0  0.98236  0.91561  0.95284  1.0000
  C   C917      1.0  0.53434  0.69938  0.91535  1.0000
  N   N60       1.0  0.85300  0.85077  0.89522  1.0000
  C   C918      1.0  0.87048  0.84789  0.91707  1.0000
  C   C919      1.0  0.87232  0.84673  0.87532  1.0000
  C   C920      1.0  0.93915  0.99285  0.99013  1.0000
  C   C921      1.0  0.82740  0.83479  0.89374  1.0000
  C   C922      1.0  0.82120  0.81746  0.91103  1.0000
  C   C923      1.0  0.80809  0.83589  0.87418  1.0000
  S   S252      1.0  0.65069  0.69144  0.97767  1.0000
  C   C924      1.0  0.72372  0.74425  0.57686  1.0000
  H   H1082     1.0  0.59008  0.68359  0.56203  1.0000
  H   H1083     1.0  0.87975  0.83031  0.91862  1.0000
  H   H1084     1.0  0.59690  0.70493  0.94787  1.0000
  C   C925      1.0  0.95988  0.84699  0.51351  1.0000
  H   H1085     1.0  0.87890  0.82830  0.87503  1.0000
  H   H1086     1.0  0.89248  0.85774  0.87635  1.0000
  H   H1087     1.0  0.86168  0.85080  0.85825  1.0000
  N   N61       1.0  0.97972  0.85743  0.55381  1.0000
  N   N62       1.0  0.73199  0.76186  0.55881  1.0000
  C   C926      1.0  0.75146  0.77924  0.57034  1.0000
  C   C927      1.0  0.57370  0.75938  0.59468  1.0000
  H   H1088     1.0  0.81116  0.84865  0.86040  1.0000
  H   H1089     1.0  0.83396  0.81571  0.92688  1.0000
  H   H1090     1.0  0.85723  0.85098  0.93275  1.0000
  H   H1091     1.0  0.79682  0.93514  0.52519  1.0000
  H   H1092     1.0  0.51026  0.79776  0.91155  1.0000
  C   C928      1.0  0.78524  0.00039  0.50522  1.0000
  H   H1093     1.0  0.96572  0.97378  0.50163  1.0000
  C   C929      1.0  0.79381  0.95315  0.51842  1.0000
  C   C930      1.0  0.76117  0.96122  0.54917  1.0000
  H   H1094     1.0  0.83273  0.97601  0.54708  1.0000
  H   H1095     1.0  0.93281  0.85925  0.55495  1.0000
  H   H1096     1.0  0.59712  0.69680  0.88608  1.0000
  H   H1097     1.0  0.74095  0.78701  0.58568  1.0000
  C   C931      1.0  0.77885  0.80383  0.88925  1.0000
  H   H1098     1.0  0.86138  0.99217  0.51559  1.0000
  H   H1099     1.0  0.56748  0.68096  0.52274  1.0000
  C   C932      1.0  0.55977  0.68478  0.95751  1.0000
  H   H1100     1.0  0.74210  0.96219  0.53705  1.0000
  H   H1101     1.0  0.70669  0.73185  0.57066  1.0000
  C   C933      1.0  0.57750  0.69790  0.55514  1.0000
  H   H1102     1.0  0.75634  0.97157  0.56475  1.0000
  H   H1103     1.0  0.76291  0.94281  0.55532  1.0000
  C   C934      1.0  0.78477  0.99375  0.52925  1.0000
  H   H1104     1.0  0.58576  0.71798  0.58508  1.0000
  C   C935      1.0  0.57490  0.71798  0.56821  1.0000
  H   H1105     1.0  0.86243  0.88761  0.89473  1.0000
  H   H1106     1.0  0.75672  0.79423  0.55851  1.0000
  S   S253      1.0  0.87476  0.87171  0.98059  1.0000
  C   C936      1.0  0.57499  0.70000  0.94263  1.0000
  H   H1107     1.0  0.55531  0.71940  0.87330  1.0000
  H   H1108     1.0  0.72937  0.75209  0.98398  1.0000
  C   C937      1.0  0.74514  0.75048  0.53869  1.0000
  C   C938      1.0  0.81260  0.96812  0.55451  1.0000
  H   H1109     1.0  0.81394  0.95827  0.50897  1.0000
  H   H1110     1.0  0.93806  0.85172  0.51763  1.0000
  H   H1111     1.0  0.80830  0.97706  0.57105  1.0000
  H   H1112     1.0  0.92026  0.98141  0.98818  1.0000
  C   C939      1.0  0.56191  0.73333  0.88559  1.0000
  H   H1113     1.0  0.00008  0.88190  0.57774  1.0000
  H   H1114     1.0  0.95133  0.87870  0.57392  1.0000
  N   N63       1.0  0.78804  0.96946  0.53749  1.0000
  C   C940      1.0  0.97859  0.83704  0.56982  1.0000
  H   H1115     1.0  0.76904  0.82243  0.85751  1.0000
  H   H1116     1.0  0.57253  0.77636  0.60348  1.0000
  H   H1117     1.0  0.72974  0.70697  0.49982  1.0000
  C   C941      1.0  0.70563  0.77401  0.55070  1.0000
  H   H1118     1.0  0.69375  0.78126  0.56557  1.0000
  H   H1119     1.0  0.95827  0.84401  0.98006  1.0000
  H   H1120     1.0  0.57469  0.74626  0.87509  1.0000
  H   H1121     1.0  0.56495  0.74607  0.60712  1.0000
  N   N64       1.0  0.57911  0.72430  0.90580  1.0000
  H   H1122     1.0  0.75990  0.79242  0.88781  1.0000
  H   H1123     1.0  0.61872  0.70552  0.91068  1.0000
  C   C942      1.0  0.79737  0.80218  0.90862  1.0000
  H   H1124     1.0  0.81735  0.94989  0.55964  1.0000
  H   H1125     1.0  0.83110  0.87943  0.87796  1.0000
  H   H1126     1.0  0.59222  0.77561  0.55255  1.0000
  H   H1127     1.0  0.77191  0.77137  0.57683  1.0000
  C   C943      1.0  0.73009  0.73204  0.52722  1.0000
  C   C944      1.0  0.52672  0.76390  0.57691  1.0000
  H   H1128     1.0  0.56987  0.79558  0.56737  1.0000
  H   H1129     1.0  0.53429  0.74903  0.52887  1.0000
  H   H1130     1.0  0.95117  0.88477  0.54326  1.0000
  C   C945      1.0  0.60421  0.71205  0.89651  1.0000
  C   C946      1.0  0.95261  0.87052  0.55652  1.0000
  H   H1131     1.0  0.61780  0.72360  0.88507  1.0000
  C   C947      1.0  0.58995  0.74474  0.91902  1.0000
  C   C948      1.0  0.76878  0.72819  0.49968  1.0000
  C   C949      1.0  0.74184  0.72103  0.50815  1.0000
  C   C950      1.0  0.96265  0.99141  0.49531  1.0000
  C   C951      1.0  0.54646  0.73509  0.53677  1.0000
  H   H1132     1.0  0.88917  0.86050  0.91794  1.0000
  C   C952      1.0  0.55968  0.73743  0.55920  1.0000
  H   H1133     1.0  0.96028  0.82502  0.56503  1.0000
  H   H1134     1.0  0.71448  0.75229  0.59257  1.0000
  H   H1135     1.0  0.71115  0.78876  0.53866  1.0000
  C   C953      1.0  0.78401  0.74645  0.51025  1.0000
  H   H1136     1.0  0.78529  0.77163  0.53674  1.0000
  C   C954      1.0  0.77246  0.75755  0.52945  1.0000
  H   H1137     1.0  0.60273  0.75703  0.90776  1.0000
  H   H1138     1.0  0.70890  0.72602  0.53280  1.0000
  H   H1139     1.0  0.99886  0.82697  0.56918  1.0000
  C   C955      1.0  0.56250  0.70821  0.92130  1.0000
  H   H1140     1.0  0.52441  0.78042  0.58641  1.0000
  C   C956      1.0  0.56953  0.77894  0.55768  1.0000
  H   H1141     1.0  0.57175  0.75460  0.92620  1.0000
  C   C957      1.0  0.98705  0.90556  0.50396  1.0000
  H   H1142     1.0  0.96867  0.96740  0.97841  1.0000
  S   S254      1.0  0.90649  0.92252  0.98825  1.0000
  H   H1143     1.0  0.96653  0.89845  0.49764  1.0000
  S   S255      1.0  0.65726  0.69821  0.50126  1.0000
  C   C958      1.0  0.53185  0.67704  0.95151  1.0000
  H   H1144     1.0  0.56992  0.67876  0.97367  1.0000
  H   H1145     1.0  0.97563  0.84226  0.58824  1.0000
  S   S256      1.0  0.83473  0.91672  0.99057  1.0000
  C   C959      1.0  0.96643  0.98495  0.98454  1.0000
  H   H1146     1.0  0.65982  0.67290  0.54594  1.0000
  H   H1147     1.0  0.53930  0.71361  0.50662  1.0000
  H   H1148     1.0  0.77549  0.95216  0.50558  1.0000
  H   H1149     1.0  0.00807  0.00026  0.49608  1.0000
  H   H1150     1.0  0.51329  0.76555  0.56074  1.0000
  H   H1151     1.0  0.97766  0.82069  0.99376  1.0000
  H   H1152     1.0  0.00865  0.88660  0.54769  1.0000
  C   C960      1.0  0.01022  0.92614  0.95337  1.0000
