data_image0
_chemical_formula_structural       SCHCHSHCSNHFeHCH2FeH6CSHS2HC2FeH4CHFeH2FeNCHS2CHCHSC2HCS2CSCHCFeCH2SCHC3HCS2FeC2H3CFeHSFeHSH2SC2H3CFeHCHCNSCS2HCHC2H3FeCHC2HSCH2SCHC2Fe2SH2CH2CSHC3SCH2CHC3HFeHFeH5FeHNH2SCHCHC4H5C2H3SHC2HCH2CH2NC2HC3HC3HCH3CHNH2SCH6CH2C2H2C2SCH4SCH2CHCNH2NCHC2HCSH2C2HNHCHCHC3SC2H3CH4CHC2H3CSC4HSC4HSH2CHSH4C8HSC3S2H2C4H3C2H4C6H5C2H2CHCHC5H3C3HNHCH2CFeH2C2H3CHC2SHSHSFeCH2CSHS2FeHFeC2HC2FeCHCH3NHSFe2HCHC2H2CH2Fe2HCSCHC2HSHCHCH2SHC2H2Fe2CHSH2SCHSCHFeCSCSH3C3FeC3SH2C4SHSCSHNHSCH3SCFeHCHFeHFeCHCHSHCNH2FeH2SCHFeCH2CHCHFeH3SHSC2HSC3H2SHSHNCHCHCH3CHC2SHSHCHCHCH2C2H2S2HCH3C3H2S2HC2SH2CHCHC10HCSHNHCH3C2HCH3C3HCHCHSHCHC2HCHCH3CH6CH2C3SHCHCHCHCH2CFeC3H2CHCHC2HSHCH2NH2CHCHCHCH2CH2CH2CNS2HCSC2SH2C3H2C2HCH2C3HCHC2H3C2H2NCNCH3CH2CH3CSCHCHC2HC2FeHSFeCFeH2SH2CHC2H2NSCFeCH2SFe2H2CHFeH2CH2CSH2CH5C3NC2H2SH5SHSHCHCSFeCHCHC2HCH3NFeHC3SHSHC2FeCFeS2CHC2H2S2H3CHFeSC2HC2HCHCHFeS2C4HFeCHNCHCHFeCH3SH2CS2CH2S2C2H3C2HCFeH2CHC3H6CHCHCFeC2HC2NFeCFeHC3HCHSC2HCHC2H2CHCHCH2CHC2SCNC2H3CHCH2NHC3FeCHCHFeC2H2C2HC2S2H2S2H4C2HCFeNSCHCH3CHFeH5S2CHCNH2S2CHCHS2CH2C2HCHCHCSHCH2CH2CH2CHFeHCSCHCHSFeCSC3H2C2NH3C2H4FeHSHCHCHCH2SHCHC2H2C2H2SHSHFeH2SHCH2CH5CSH2NFeCSHC2HC2HCH3CHCH3FeNHCH2NC2SH3CH6SH2CH3C2HCHCSH2C5HCHFeH2CH2CH2SFeSHCSC2HSH2CH5S3C3H2SHCH3SH3C3SC2H2CHCNH2FeCH2CSCH2CHCH2FeCSHC2H2SFeCFeHCH4FeCS2HCHFeNHC3H6FeSC2HCHCFeH4C2SCH3CH4C2HSCSCH3C2HCHCH2C2H2CHCHC2HCSH3SCH2SH2CH2FeH2C3HC2H2CH4C2FeC2FeH2CHCHC2HCFeHCH3C2HC2H3C4H3CNH2CS2FeHNHCHC3SCH2C2NHCH3C2HFeHCHC3HC3HC5H2CFeNHCH6SHNC3HSCHNSHCH7CSHC4SH6SC5H2C3H2CHSCHSCH2SCNSCHSCHSHFeHCHSC3H2CFeHC3FeCSH2CSC2HCHCHC2SHCH2CFeH5FeC2H4CHC2HNH2CHC2HSCHSH2CFeH2CHNSCH2FeH3SH2SHC2FeH2C2HC2H5FeHC2FeCHCHCH3CHC2HCH2CHCH3C2HCHCH2C2SCH3C2H4CHSH3CHC2HSCH3SC2H3FeH2SCHCHC2HC2HC2H2S2H3CSHSHFeCH3FeCSCH2C2HFeHCH3CFeHSH4FeHCH2CH4SC2HNH2SC2FeSH4NCHFeH6C3NHSCH2FeSCHC3H2C2H2NSFeNH2CH2CHNC2HCH2C4H3S2C4H5C2HN2HC3H3CHCH2SC2H2CHCHCH2C6H2SFeHSC3HCHCSCH2C3SCHCH2C2HFeHCHFeCSHC2H2CHFeC2H3C2HC5SH2CHSH2CH10CHC2NCH3SHCHCSFeC2H3CFe2HCSHCHC2H2CHSFeH2SCH2CSHFeH7C2H2CSC2HNHFeHSC2H4C5HCH3C2SHC2SC5HCHC3HC2NH3C2HSHC3H2CHCNC6HC2SCSHCS2CHC2HC2HSC2H2CHCH4CS2CH2NSH2CHC2HC4H3CHSC2H7C2H2CH3FeSNCH3SNC2HCSCH4SHFe2CHSFeC3NHFeCSHCH2CH2CH6C2HCH3FeC2Fe2HSHS3HC3HC3FeNH3CHC2H3SHC2H2SHCS2H3CSC3HCHCHCH2C3HCHNH2FeCSCFeH2C2H4CH2C3H4C4S2H3CH2CHNC2HCHC2H2CH3CHC2HC3HCHCHC2H3C2H4FeH2CHC3H3CHC2HC2FeCHCS2C2SCH3C2H5SHSH2CH4C4H2CSH2SHCH2CHC2HCH2C2H3CHC2S2H3C2HCHSH2CSHCHC4HC2NCHCH2CHCH3CHCH3NH2CHNCNHCHC3SC4H2FeH2S2HC2FeHCH3C4HC2NFeHC2HCHC2HC2H4CHCSCHC2HFeHCH4SH2CHNHSCNHCHC2HCH4C2FeHSHSC2HCH2C2FeCHFeH2FeH2C3H4C2SCH3CH2C8S3H3SCH2FeCHCHC2H2CSFeS2CFeHFeHC2SHCFeSCHSCS2CNS2CHFeH4C2H2C3SHCH2CFeC4H2CHCHC2H2SH2NHCHCH3C2HSH5FeCH2SC2HSC3H5CHC2HC2HSH2C3H2C2SCHCSC2H8FeHCH3C3NHCFeNC3H3C2H2CHC2HC3HC2FeCH3C2HCHC3NHNSH2FeH2C2NC2H2C2HCH3C2H3C2H2CFeCH5NH2CSC3SC2HC2H3CHC2H2CH2C4H3S2H2SCHCH3C2SCHC3HC2SHC2HCFeCH2CSH2SHCSH2C2HC6H2CH3NCH3SFeHC2S3CH2SH2SHCH2CS2C2H2C2HC3HSHCSHCFeC3SH2FeHFeH2C5HC2FeHC3H4CH3CHFeH3CFeSH5SHC3HSHCSH2CHFeCFeCHSCFeHC2HFeSFeHNC2S3HC2H2CH2C2H2FeHSHC2HCNH6S
_chemical_formula_sum              "S320 C1200 H1440 N80 Fe160"
_cell_length_a       47.0292
_cell_length_b       43.7017
_cell_length_c       21.3544
_cell_angle_alpha    84.587
_cell_angle_beta     73.0742
_cell_angle_gamma    91.6302

_space_group_name_H-M_alt    "P 1"
_space_group_IT_number       1

loop_
  _space_group_symop_operation_xyz
  'x, y, z'

loop_
  _atom_site_type_symbol
  _atom_site_label
  _atom_site_symmetry_multiplicity
  _atom_site_fract_x
  _atom_site_fract_y
  _atom_site_fract_z
  _atom_site_occupancy
  S   S1        1.0  0.26616  0.39579  0.07218  1.0000
  C   C1        1.0  0.98619  0.17253  0.96196  1.0000
  H   H1        1.0  0.44020  0.33732  0.93660  1.0000
  C   C2        1.0  0.07182  0.13672  0.01400  1.0000
  H   H2        1.0  0.31485  0.20617  0.10713  1.0000
  S   S2        1.0  0.17572  0.27367  0.95315  1.0000
  H   H3        1.0  0.27290  0.53490  0.94194  1.0000
  C   C3        1.0  0.98231  0.07635  0.87762  1.0000
  S   S3        1.0  0.29152  0.08975  0.96124  1.0000
  N   N1        1.0  0.40830  0.08272  0.92532  1.0000
  H   H4        1.0  0.40300  0.56537  0.89327  1.0000
  Fe  Fe1       1.0  0.33678  0.44804  0.05106  1.0000
  H   H5        1.0  0.35169  0.55836  0.10295  1.0000
  C   C4        1.0  0.02772  0.39852  0.97889  1.0000
  H   H6        1.0  0.07101  0.33140  0.11118  1.0000
  H   H7        1.0  0.22089  0.54604  0.08009  1.0000
  Fe  Fe2       1.0  0.38314  0.22080  0.97949  1.0000
  H   H8        1.0  0.03724  0.34613  0.10137  1.0000
  H   H9        1.0  0.10790  0.39883  0.05129  1.0000
  H   H10       1.0  0.12443  0.08307  0.87239  1.0000
  H   H11       1.0  0.00694  0.26626  0.90881  1.0000
  H   H12       1.0  0.43357  0.50588  0.01098  1.0000
  H   H13       1.0  0.07658  0.21903  0.06568  1.0000
  C   C5        1.0  0.00504  0.41905  0.98872  1.0000
  S   S4        1.0  0.02735  0.55870  0.90950  1.0000
  H   H14       1.0  0.36970  0.10559  0.97790  1.0000
  S   S5        1.0  0.33985  0.39744  0.04153  1.0000
  S   S6        1.0  0.21574  0.24338  0.08158  1.0000
  H   H15       1.0  0.20447  0.12679  0.91443  1.0000
  C   C6        1.0  0.19120  0.20010  0.87025  1.0000
  C   C7        1.0  0.23784  0.15790  0.03543  1.0000
  Fe  Fe3       1.0  0.07190  0.46177  0.97402  1.0000
  H   H16       1.0  0.40340  0.55677  0.97767  1.0000
  H   H17       1.0  0.26101  0.42184  0.93262  1.0000
  H   H18       1.0  0.44906  0.55316  0.88076  1.0000
  H   H19       1.0  0.21732  0.50044  0.93958  1.0000
  C   C8        1.0  0.08871  0.19073  0.98572  1.0000
  H   H20       1.0  0.45184  0.37752  0.91470  1.0000
  Fe  Fe4       1.0  0.15476  0.31685  0.98828  1.0000
  H   H21       1.0  0.23183  0.47002  0.89299  1.0000
  H   H22       1.0  0.00278  0.25585  0.09276  1.0000
  Fe  Fe5       1.0  0.17562  0.26197  0.05764  1.0000
  N   N2        1.0  0.26050  0.51196  0.86838  1.0000
  C   C9        1.0  0.96655  0.18773  0.93153  1.0000
  H   H23       1.0  0.41077  0.40685  0.04575  1.0000
  S   S7        1.0  0.11015  0.22022  0.92866  1.0000
  S   S8        1.0  0.16714  0.53123  0.90495  1.0000
  C   C10       1.0  0.21484  0.20334  0.08030  1.0000
  H   H24       1.0  0.17349  0.46448  0.87643  1.0000
  C   C11       1.0  0.25711  0.34921  0.88974  1.0000
  H   H25       1.0  0.42063  0.07414  0.01454  1.0000
  S   S9        1.0  0.42510  0.19942  0.92717  1.0000
  C   C12       1.0  0.99068  0.35553  0.00990  1.0000
  C   C13       1.0  0.11295  0.39344  0.09730  1.0000
  H   H26       1.0  0.16256  0.14376  0.99489  1.0000
  C   C14       1.0  0.15132  0.12149  0.88534  1.0000
  S   S10       1.0  0.20553  0.10331  0.04398  1.0000
  S   S11       1.0  0.03604  0.48999  0.02986  1.0000
  C   C15       1.0  0.22626  0.34552  0.90123  1.0000
  S   S12       1.0  0.08964  0.49863  0.88972  1.0000
  C   C16       1.0  0.17221  0.55910  0.95499  1.0000
  H   H27       1.0  0.03527  0.08434  0.89257  1.0000
  C   C17       1.0  0.02057  0.36674  0.98767  1.0000
  Fe  Fe6       1.0  0.40979  0.24534  0.07956  1.0000
  C   C18       1.0  0.22067  0.39738  0.93211  1.0000
  H   H28       1.0  0.21662  0.32411  0.89326  1.0000
  H   H29       1.0  0.24010  0.54841  0.92500  1.0000
  S   S13       1.0  0.23693  0.48265  0.09663  1.0000
  C   C19       1.0  0.26963  0.37664  0.90156  1.0000
  H   H30       1.0  0.07025  0.11385  0.99940  1.0000
  C   C20       1.0  0.28903  0.51776  0.06231  1.0000
  C   C21       1.0  0.40090  0.48169  0.97826  1.0000
  C   C22       1.0  0.96746  0.56246  0.95662  1.0000
  H   H31       1.0  0.40450  0.12348  0.97652  1.0000
  C   C23       1.0  0.30684  0.54489  0.03938  1.0000
  S   S14       1.0  0.10401  0.47526  0.02803  1.0000
  S   S15       1.0  0.08697  0.54662  0.99918  1.0000
  Fe  Fe7       1.0  0.44851  0.24299  0.93867  1.0000
  C   C24       1.0  0.07589  0.19603  0.05124  1.0000
  C   C25       1.0  0.01498  0.16752  0.92043  1.0000
  H   H32       1.0  0.99027  0.20867  0.05578  1.0000
  H   H33       1.0  0.27093  0.33031  0.87473  1.0000
  H   H34       1.0  0.41315  0.36602  0.95022  1.0000
  C   C26       1.0  0.23845  0.48960  0.91615  1.0000
  Fe  Fe8       1.0  0.12906  0.25247  0.98455  1.0000
  H   H35       1.0  0.20668  0.21050  0.89427  1.0000
  S   S16       1.0  0.33974  0.21848  0.95598  1.0000
  Fe  Fe9       1.0  0.06943  0.50686  0.07593  1.0000
  H   H36       1.0  0.03153  0.15725  0.94020  1.0000
  S   S17       1.0  0.30811  0.45482  0.98421  1.0000
  H   H37       1.0  0.03814  0.35078  0.97890  1.0000
  H   H38       1.0  0.05084  0.27839  0.09723  1.0000
  S   S18       1.0  0.37275  0.48230  0.05180  1.0000
  C   C27       1.0  0.42087  0.42122  0.07493  1.0000
  C   C28       1.0  0.35587  0.31375  0.89218  1.0000
  H   H39       1.0  0.44251  0.13909  0.88245  1.0000
  H   H40       1.0  0.09547  0.15719  0.91618  1.0000
  H   H41       1.0  0.29177  0.18751  0.92654  1.0000
  C   C29       1.0  0.25809  0.51783  0.07664  1.0000
  Fe  Fe10      1.0  0.11231  0.28205  0.11144  1.0000
  H   H42       1.0  0.25670  0.14747  0.00454  1.0000
  C   C30       1.0  0.33948  0.19366  0.89622  1.0000
  H   H43       1.0  0.97899  0.12447  0.10260  1.0000
  C   C31       1.0  0.39547  0.46667  0.92763  1.0000
  N   N3        1.0  0.18186  0.16761  0.89715  1.0000
  S   S19       1.0  0.10811  0.29655  0.01124  1.0000
  C   C32       1.0  0.15448  0.55690  0.02054  1.0000
  S   S20       1.0  0.16944  0.36458  0.93838  1.0000
  S   S21       1.0  0.44459  0.13833  0.05481  1.0000
  H   H44       1.0  0.14013  0.41710  0.90307  1.0000
  C   C33       1.0  0.06126  0.17172  0.09812  1.0000
  H   H45       1.0  0.02043  0.18415  0.03560  1.0000
  C   C34       1.0  0.25142  0.40076  0.92258  1.0000
  C   C35       1.0  0.14219  0.39972  0.09757  1.0000
  H   H46       1.0  0.03841  0.56038  0.09895  1.0000
  H   H47       1.0  0.36975  0.29477  0.08078  1.0000
  H   H48       1.0  0.18017  0.18090  0.99235  1.0000
  Fe  Fe11      1.0  0.27042  0.44664  0.07756  1.0000
  C   C36       1.0  0.05941  0.14206  0.07970  1.0000
  H   H49       1.0  0.15741  0.10827  0.92447  1.0000
  C   C37       1.0  0.24477  0.54575  0.07067  1.0000
  C   C38       1.0  0.41893  0.46271  0.87187  1.0000
  H   H50       1.0  0.32714  0.32805  0.09927  1.0000
  S   S22       1.0  0.30742  0.37998  0.89635  1.0000
  C   C39       1.0  0.43424  0.35970  0.91557  1.0000
  H   H51       1.0  0.97447  0.54737  0.09116  1.0000
  H   H52       1.0  0.01037  0.44350  0.97942  1.0000
  S   S23       1.0  0.15721  0.30625  0.09130  1.0000
  C   C40       1.0  0.20923  0.15041  0.88836  1.0000
  H   H53       1.0  0.33299  0.31693  0.91971  1.0000
  C   C41       1.0  0.97524  0.40790  0.01014  1.0000
  C   C42       1.0  0.44795  0.47272  0.86798  1.0000
  Fe  Fe12      1.0  0.11934  0.51407  0.94738  1.0000
  Fe  Fe13      1.0  0.24307  0.08263  0.97252  1.0000
  S   S24       1.0  0.06499  0.41218  0.95831  1.0000
  H   H54       1.0  0.06045  0.41535  0.08917  1.0000
  H   H55       1.0  0.13942  0.53696  0.04139  1.0000
  C   C43       1.0  0.96805  0.37622  0.02164  1.0000
  H   H56       1.0  0.33078  0.54410  0.02626  1.0000
  H   H57       1.0  0.44589  0.36596  0.05582  1.0000
  C   C44       1.0  0.06017  0.35289  0.10181  1.0000
  S   S25       1.0  0.40645  0.26584  0.98221  1.0000
  H   H58       1.0  0.30865  0.26251  0.09832  1.0000
  C   C45       1.0  0.08608  0.16120  0.96691  1.0000
  C   C46       1.0  0.23985  0.18928  0.04424  1.0000
  C   C47       1.0  0.16676  0.16737  0.96848  1.0000
  S   S26       1.0  0.38340  0.20162  0.08073  1.0000
  C   C48       1.0  0.99635  0.18437  0.06121  1.0000
  H   H59       1.0  0.97300  0.11540  0.02664  1.0000
  H   H60       1.0  0.26031  0.20308  0.02072  1.0000
  C   C49       1.0  0.26238  0.53978  0.90219  1.0000
  H   H61       1.0  0.07230  0.36343  0.05136  1.0000
  C   C50       1.0  0.21096  0.14056  0.06428  1.0000
  C   C51       1.0  0.42945  0.49387  0.97216  1.0000
  C   C52       1.0  0.99085  0.54300  0.93916  1.0000
  H   H62       1.0  0.22556  0.16178  0.90879  1.0000
  Fe  Fe14      1.0  0.42682  0.18316  0.02861  1.0000
  H   H63       1.0  0.29961  0.49691  0.06929  1.0000
  Fe  Fe15      1.0  0.05599  0.52761  0.94915  1.0000
  H   H64       1.0  0.24739  0.48023  0.95646  1.0000
  H   H65       1.0  0.00921  0.12760  0.03052  1.0000
  H   H66       1.0  0.05203  0.24000  0.90557  1.0000
  H   H67       1.0  0.14504  0.17798  0.97747  1.0000
  H   H68       1.0  0.98520  0.33102  0.01858  1.0000
  Fe  Fe16      1.0  0.30687  0.40385  0.98442  1.0000
  H   H69       1.0  0.45354  0.51140  0.10476  1.0000
  N   N4        1.0  0.97842  0.16393  0.03396  1.0000
  H   H70       1.0  0.00304  0.49615  0.92996  1.0000
  H   H71       1.0  0.15876  0.40938  0.05259  1.0000
  S   S27       1.0  0.13100  0.23685  0.08607  1.0000
  C   C53       1.0  0.98516  0.13150  0.04858  1.0000
  H   H72       1.0  0.37331  0.45761  0.93185  1.0000
  C   C54       1.0  0.20802  0.36950  0.92258  1.0000
  H   H73       1.0  0.20659  0.41589  0.94904  1.0000
  C   C55       1.0  0.45308  0.48903  0.91726  1.0000
  C   C56       1.0  0.31230  0.18046  0.89486  1.0000
  C   C57       1.0  0.39310  0.11101  0.94657  1.0000
  C   C58       1.0  0.98496  0.51113  0.94524  1.0000
  H   H74       1.0  0.97691  0.30570  0.90293  1.0000
  H   H75       1.0  0.95769  0.42383  0.01867  1.0000
  H   H76       1.0  0.99316  0.17758  0.11459  1.0000
  H   H77       1.0  0.37152  0.35635  0.91354  1.0000
  H   H78       1.0  0.43802  0.43763  0.03973  1.0000
  C   C59       1.0  0.37819  0.33625  0.88825  1.0000
  C   C60       1.0  0.43940  0.08881  0.88267  1.0000
  H   H79       1.0  0.17184  0.21482  0.87805  1.0000
  H   H80       1.0  0.39199  0.12700  0.90366  1.0000
  H   H81       1.0  0.40305  0.43522  0.10267  1.0000
  S   S28       1.0  0.45334  0.22514  0.03641  1.0000
  H   H82       1.0  0.98024  0.45714  0.10096  1.0000
  C   C61       1.0  0.18678  0.15408  0.10519  1.0000
  C   C62       1.0  0.18859  0.18559  0.11223  1.0000
  H   H83       1.0  0.96112  0.27016  0.88541  1.0000
  C   C63       1.0  0.45631  0.38321  0.07877  1.0000
  H   H84       1.0  0.38365  0.54035  0.11595  1.0000
  H   H85       1.0  0.27530  0.55927  0.86774  1.0000
  C   C64       1.0  0.36518  0.55518  0.13765  1.0000
  H   H86       1.0  0.19013  0.36070  0.31981  1.0000
  H   H87       1.0  0.16602  0.14065  0.12802  1.0000
  N   N5        1.0  0.05996  0.37373  0.15279  1.0000
  C   C65       1.0  0.04145  0.26699  0.20188  1.0000
  C   C66       1.0  0.21068  0.21739  0.29202  1.0000
  H   H88       1.0  0.05739  0.20344  0.23395  1.0000
  C   C67       1.0  0.26495  0.22692  0.24569  1.0000
  C   C68       1.0  0.12909  0.37997  0.21227  1.0000
  C   C69       1.0  0.36201  0.30434  0.12691  1.0000
  H   H89       1.0  0.29702  0.18280  0.18342  1.0000
  C   C70       1.0  0.33551  0.51033  0.19885  1.0000
  C   C71       1.0  0.03967  0.35878  0.21576  1.0000
  C   C72       1.0  0.26754  0.44046  0.35813  1.0000
  H   H90       1.0  0.12988  0.17168  0.35136  1.0000
  C   C73       1.0  0.18048  0.45056  0.24021  1.0000
  H   H91       1.0  0.08802  0.08911  0.24058  1.0000
  H   H92       1.0  0.08999  0.50666  0.27054  1.0000
  H   H93       1.0  0.17291  0.39825  0.15477  1.0000
  C   C74       1.0  0.01141  0.12477  0.35419  1.0000
  H   H94       1.0  0.05070  0.17605  0.14839  1.0000
  N   N6        1.0  0.34693  0.54182  0.20390  1.0000
  H   H95       1.0  0.04592  0.41885  0.17503  1.0000
  H   H96       1.0  0.39019  0.39258  0.19076  1.0000
  S   S29       1.0  0.14718  0.11253  0.35833  1.0000
  C   C75       1.0  0.31288  0.41760  0.30131  1.0000
  H   H97       1.0  0.02509  0.25341  0.30618  1.0000
  H   H98       1.0  0.14035  0.16578  0.23580  1.0000
  H   H99       1.0  0.26946  0.25495  0.12247  1.0000
  H   H100      1.0  0.19485  0.35349  0.20235  1.0000
  H   H101      1.0  0.04455  0.45095  0.30915  1.0000
  H   H102      1.0  0.32387  0.39970  0.27300  1.0000
  C   C76       1.0  0.23629  0.22170  0.23794  1.0000
  H   H103      1.0  0.18970  0.15312  0.25881  1.0000
  H   H104      1.0  0.10435  0.18123  0.17537  1.0000
  C   C77       1.0  0.20138  0.13990  0.28789  1.0000
  C   C78       1.0  0.17043  0.28114  0.24663  1.0000
  H   H105      1.0  0.42526  0.47051  0.27968  1.0000
  H   H106      1.0  0.32430  0.21682  0.23537  1.0000
  C   C79       1.0  0.06525  0.19705  0.32860  1.0000
  C   C80       1.0  0.24058  0.22311  0.36508  1.0000
  S   S30       1.0  0.07585  0.28191  0.20602  1.0000
  C   C81       1.0  0.36517  0.31017  0.23623  1.0000
  H   H107      1.0  0.35374  0.53111  0.29915  1.0000
  H   H108      1.0  0.02419  0.39887  0.13276  1.0000
  H   H109      1.0  0.23098  0.28296  0.23297  1.0000
  H   H110      1.0  0.32660  0.50951  0.15613  1.0000
  S   S31       1.0  0.41343  0.11842  0.34067  1.0000
  C   C82       1.0  0.00775  0.25483  0.13919  1.0000
  H   H111      1.0  0.24436  0.16153  0.23446  1.0000
  H   H112      1.0  0.96425  0.44879  0.30980  1.0000
  C   C83       1.0  0.39521  0.07843  0.19609  1.0000
  H   H113      1.0  0.18021  0.43124  0.33668  1.0000
  C   C84       1.0  0.16358  0.46337  0.20172  1.0000
  N   N7        1.0  0.29167  0.23138  0.18730  1.0000
  H   H114      1.0  0.00630  0.14520  0.32737  1.0000
  H   H115      1.0  0.24294  0.09894  0.20662  1.0000
  N   N8        1.0  0.20471  0.32011  0.27245  1.0000
  C   C85       1.0  0.08464  0.18671  0.36515  1.0000
  H   H116      1.0  0.22880  0.35421  0.30751  1.0000
  C   C86       1.0  0.23220  0.14504  0.27475  1.0000
  C   C87       1.0  0.03334  0.10593  0.32190  1.0000
  H   H117      1.0  0.07149  0.42204  0.29001  1.0000
  C   C88       1.0  0.17068  0.54082  0.30558  1.0000
  S   S32       1.0  0.29516  0.35649  0.21379  1.0000
  H   H118      1.0  0.16270  0.51690  0.32062  1.0000
  H   H119      1.0  0.12116  0.47713  0.19766  1.0000
  C   C89       1.0  0.11280  0.17750  0.32866  1.0000
  C   C90       1.0  0.08274  0.49543  0.32193  1.0000
  H   H120      1.0  0.04433  0.20664  0.35209  1.0000
  N   N9        1.0  0.08669  0.46187  0.32559  1.0000
  H   H121      1.0  0.20411  0.44829  0.21855  1.0000
  C   C91       1.0  0.25472  0.08204  0.17461  1.0000
  H   H122      1.0  0.28113  0.52311  0.33854  1.0000
  C   C92       1.0  0.02048  0.25350  0.25941  1.0000
  H   H123      1.0  0.41844  0.36808  0.20318  1.0000
  C   C93       1.0  0.44694  0.42312  0.15630  1.0000
  C   C94       1.0  0.33781  0.32325  0.13741  1.0000
  C   C95       1.0  0.45564  0.36337  0.28901  1.0000
  S   S33       1.0  0.29927  0.44153  0.14402  1.0000
  C   C96       1.0  0.98753  0.23984  0.19630  1.0000
  C   C97       1.0  0.03994  0.07851  0.35521  1.0000
  H   H124      1.0  0.45342  0.32501  0.23381  1.0000
  H   H125      1.0  0.04449  0.11320  0.27064  1.0000
  H   H126      1.0  0.17410  0.47103  0.15004  1.0000
  C   C98       1.0  0.99394  0.23916  0.25639  1.0000
  H   H127      1.0  0.21454  0.32197  0.16635  1.0000
  H   H128      1.0  0.39236  0.12727  0.17549  1.0000
  H   H129      1.0  0.97825  0.22791  0.30086  1.0000
  H   H130      1.0  0.38401  0.52198  0.23068  1.0000
  C   C99       1.0  0.21230  0.33737  0.20593  1.0000
  H   H131      1.0  0.35343  0.49374  0.19011  1.0000
  C   C100      1.0  0.28862  0.25827  0.14223  1.0000
  C   C101      1.0  0.23198  0.10507  0.36107  1.0000
  H   H132      1.0  0.31926  0.25793  0.22995  1.0000
  H   H133      1.0  0.37951  0.56056  0.24607  1.0000
  H   H134      1.0  0.26916  0.39977  0.30747  1.0000
  C   C102      1.0  0.42818  0.43910  0.20595  1.0000
  S   S34       1.0  0.34010  0.07895  0.33804  1.0000
  C   C103      1.0  0.21283  0.21790  0.35558  1.0000
  C   C104      1.0  0.06872  0.44728  0.28847  1.0000
  C   C105      1.0  0.28197  0.41776  0.32073  1.0000
  C   C106      1.0  0.20616  0.34250  0.31979  1.0000
  H   H135      1.0  0.23358  0.22041  0.18984  1.0000
  S   S35       1.0  0.40471  0.27246  0.16592  1.0000
  C   C107      1.0  0.03192  0.56613  0.14891  1.0000
  C   C108      1.0  0.29688  0.56133  0.20458  1.0000
  C   C109      1.0  0.35993  0.10145  0.14551  1.0000
  C   C110      1.0  0.96064  0.55321  0.13831  1.0000
  H   H136      1.0  0.13910  0.24951  0.22576  1.0000
  S   S36       1.0  0.97360  0.36850  0.32811  1.0000
  H   H137      1.0  0.27846  0.08395  0.17304  1.0000
  H   H138      1.0  0.07485  0.45695  0.23607  1.0000
  C   C111      1.0  0.24742  0.12804  0.31217  1.0000
  H   H139      1.0  0.18800  0.27599  0.20410  1.0000
  S   S37       1.0  0.28586  0.13487  0.29530  1.0000
  H   H140      1.0  0.04744  0.33617  0.23008  1.0000
  H   H141      1.0  0.40428  0.43633  0.21807  1.0000
  H   H142      1.0  0.23399  0.35094  0.19383  1.0000
  H   H143      1.0  0.24985  0.30948  0.26765  1.0000
  C   C112      1.0  0.07254  0.19538  0.26077  1.0000
  C   C113      1.0  0.09078  0.38006  0.15471  1.0000
  C   C114      1.0  0.12305  0.29269  0.35403  1.0000
  C   C115      1.0  0.31976  0.23687  0.20413  1.0000
  C   C116      1.0  0.11863  0.45677  0.29687  1.0000
  C   C117      1.0  0.15076  0.30832  0.34243  1.0000
  C   C118      1.0  0.32956  0.44004  0.31944  1.0000
  C   C119      1.0  0.41020  0.38084  0.16502  1.0000
  H   H144      1.0  0.41057  0.19836  0.35936  1.0000
  S   S38       1.0  0.05487  0.51181  0.18342  1.0000
  C   C120      1.0  0.34060  0.32853  0.24715  1.0000
  C   C121      1.0  0.11892  0.27163  0.31200  1.0000
  C   C122      1.0  0.11945  0.17486  0.26135  1.0000
  S   S39       1.0  0.03979  0.11257  0.13889  1.0000
  S   S40       1.0  0.41909  0.35650  0.34003  1.0000
  H   H145      1.0  0.35079  0.12183  0.12770  1.0000
  H   H146      1.0  0.41327  0.08280  0.21644  1.0000
  C   C123      1.0  0.13653  0.44381  0.33477  1.0000
  C   C124      1.0  0.37556  0.29752  0.17654  1.0000
  C   C125      1.0  0.26630  0.22764  0.31125  1.0000
  C   C126      1.0  0.09921  0.18342  0.22754  1.0000
  H   H147      1.0  0.13531  0.37464  0.25701  1.0000
  H   H148      1.0  0.09713  0.26038  0.31984  1.0000
  H   H149      1.0  0.16945  0.19644  0.14071  1.0000
  C   C127      1.0  0.13316  0.46654  0.22942  1.0000
  C   C128      1.0  0.22774  0.29783  0.27338  1.0000
  H   H150      1.0  0.33062  0.06994  0.11918  1.0000
  H   H151      1.0  0.22174  0.28295  0.32106  1.0000
  H   H152      1.0  0.31772  0.50126  0.24408  1.0000
  H   H153      1.0  0.29404  0.54489  0.17212  1.0000
  C   C129      1.0  0.14262  0.26564  0.25877  1.0000
  C   C130      1.0  0.96536  0.45846  0.14987  1.0000
  C   C131      1.0  0.18581  0.11777  0.33881  1.0000
  C   C132      1.0  0.09981  0.37323  0.21234  1.0000
  C   C133      1.0  0.43994  0.45909  0.24084  1.0000
  C   C134      1.0  0.17971  0.55185  0.23904  1.0000
  H   H154      1.0  0.33249  0.33812  0.29334  1.0000
  H   H155      1.0  0.17890  0.53662  0.20217  1.0000
  H   H156      1.0  0.97734  0.51863  0.19417  1.0000
  H   H157      1.0  0.37576  0.30538  0.27456  1.0000
  H   H158      1.0  0.03723  0.37353  0.25645  1.0000
  C   C135      1.0  0.03648  0.54592  0.19947  1.0000
  C   C136      1.0  0.03501  0.26773  0.14175  1.0000
  H   H159      1.0  0.18913  0.21316  0.28449  1.0000
  H   H160      1.0  0.41861  0.56322  0.34805  1.0000
  C   C137      1.0  0.38330  0.10449  0.17257  1.0000
  H   H161      1.0  0.99826  0.44650  0.19846  1.0000
  C   C138      1.0  0.96208  0.53691  0.19641  1.0000
  H   H162      1.0  0.33935  0.24054  0.15939  1.0000
  C   C139      1.0  0.32235  0.56225  0.22747  1.0000
  C   C140      1.0  0.31541  0.46229  0.35861  1.0000
  C   C141      1.0  0.32671  0.33478  0.19817  1.0000
  C   C142      1.0  0.02635  0.55302  0.26423  1.0000
  C   C143      1.0  0.15022  0.39316  0.15499  1.0000
  H   H163      1.0  0.08481  0.36236  0.25802  1.0000
  H   H164      1.0  0.35357  0.43962  0.30441  1.0000
  H   H165      1.0  0.28569  0.27959  0.16755  1.0000
  C   C144      1.0  0.17528  0.30331  0.28762  1.0000
  C   C145      1.0  0.34846  0.07224  0.14135  1.0000
  C   C146      1.0  0.36661  0.53866  0.24725  1.0000
  H   H166      1.0  0.25371  0.08965  0.12400  1.0000
  N   N10       1.0  0.43399  0.40231  0.11944  1.0000
  H   H167      1.0  0.28695  0.23161  0.32251  1.0000
  C   C147      1.0  0.97546  0.45228  0.20461  1.0000
  H   H168      1.0  0.01684  0.35389  0.21215  1.0000
  H   H169      1.0  0.03014  0.53763  0.30285  1.0000
  C   C148      1.0  0.16700  0.44087  0.30657  1.0000
  Fe  Fe17      1.0  0.29924  0.39176  0.12899  1.0000
  H   H170      1.0  0.40190  0.36333  0.13885  1.0000
  H   H171      1.0  0.09658  0.07970  0.35144  1.0000
  C   C149      1.0  0.29486  0.20365  0.15125  1.0000
  C   C150      1.0  0.04708  0.40296  0.13678  1.0000
  H   H172      1.0  0.09571  0.50697  0.35003  1.0000
  H   H173      1.0  0.05898  0.50039  0.34233  1.0000
  H   H174      1.0  0.27560  0.19905  0.13263  1.0000
  C   C151      1.0  0.17208  0.56035  0.35301  1.0000
  H   H175      1.0  0.14627  0.53664  0.54573  1.0000
  C   C152      1.0  0.07429  0.44915  0.39563  1.0000
  C   C153      1.0  0.25069  0.36011  0.45842  1.0000
  S   S41       1.0  0.10241  0.36812  0.40191  1.0000
  H   H176      1.0  0.27622  0.16441  0.53722  1.0000
  S   S42       1.0  0.00210  0.50941  0.42313  1.0000
  H   H177      1.0  0.97805  0.13119  0.44478  1.0000
  S   S43       1.0  0.01049  0.54843  0.57957  1.0000
  Fe  Fe18      1.0  0.31037  0.10701  0.51033  1.0000
  C   C154      1.0  0.28392  0.46354  0.37825  1.0000
  H   H178      1.0  0.33409  0.36618  0.44996  1.0000
  H   H179      1.0  0.39159  0.12323  0.53592  1.0000
  C   C155      1.0  0.12531  0.18414  0.60113  1.0000
  S   S44       1.0  0.23502  0.56057  0.53681  1.0000
  H   H180      1.0  0.36172  0.11648  0.61084  1.0000
  S   S45       1.0  0.11067  0.24115  0.56386  1.0000
  S   S46       1.0  0.97251  0.32133  0.49012  1.0000
  Fe  Fe19      1.0  0.40790  0.40079  0.55593  1.0000
  H   H181      1.0  0.44229  0.31307  0.43586  1.0000
  Fe  Fe20      1.0  0.10138  0.07814  0.60167  1.0000
  C   C156      1.0  0.45331  0.13521  0.40290  1.0000
  C   C157      1.0  0.42743  0.08524  0.44117  1.0000
  H   H182      1.0  0.42287  0.15133  0.58717  1.0000
  C   C158      1.0  0.17503  0.51231  0.59273  1.0000
  C   C159      1.0  0.34547  0.56381  0.43324  1.0000
  Fe  Fe21      1.0  0.08886  0.51791  0.50764  1.0000
  C   C160      1.0  0.25636  0.19692  0.60537  1.0000
  H   H183      1.0  0.44235  0.32538  0.51414  1.0000
  C   C161      1.0  0.39736  0.55517  0.38231  1.0000
  H   H184      1.0  0.06431  0.21806  0.51047  1.0000
  H   H185      1.0  0.14794  0.19180  0.57384  1.0000
  H   H186      1.0  0.18948  0.08208  0.41230  1.0000
  N   N11       1.0  0.26945  0.48735  0.41975  1.0000
  H   H187      1.0  0.27135  0.53699  0.41786  1.0000
  S   S47       1.0  0.14869  0.08653  0.53943  1.0000
  Fe  Fe22      1.0  0.40809  0.38909  0.41731  1.0000
  Fe  Fe23      1.0  0.35295  0.41173  0.51090  1.0000
  H   H188      1.0  0.02680  0.39139  0.60087  1.0000
  C   C162      1.0  0.44082  0.08193  0.49183  1.0000
  H   H189      1.0  0.19214  0.43768  0.57779  1.0000
  C   C163      1.0  0.15650  0.38016  0.51441  1.0000
  C   C164      1.0  0.20340  0.15935  0.55297  1.0000
  H   H190      1.0  0.07624  0.42389  0.40202  1.0000
  H   H191      1.0  0.30635  0.52176  0.38793  1.0000
  C   C165      1.0  0.37160  0.13344  0.56683  1.0000
  H   H192      1.0  0.21940  0.08501  0.54496  1.0000
  H   H193      1.0  0.95873  0.15084  0.60335  1.0000
  Fe  Fe24      1.0  0.13080  0.08284  0.45385  1.0000
  Fe  Fe25      1.0  0.99694  0.35370  0.40277  1.0000
  H   H194      1.0  0.31438  0.32302  0.40444  1.0000
  C   C166      1.0  0.26965  0.33799  0.42935  1.0000
  S   S48       1.0  0.28135  0.08068  0.46511  1.0000
  C   C167      1.0  0.11516  0.37313  0.46985  1.0000
  H   H195      1.0  0.16526  0.55056  0.40390  1.0000
  C   C168      1.0  0.02425  0.07210  0.42316  1.0000
  C   C169      1.0  0.18865  0.48471  0.60056  1.0000
  H   H196      1.0  0.09584  0.23015  0.44064  1.0000
  S   S49       1.0  0.04708  0.48811  0.53524  1.0000
  H   H197      1.0  0.43755  0.47098  0.55192  1.0000
  C   C170      1.0  0.07355  0.21765  0.45627  1.0000
  H   H198      1.0  0.12757  0.43598  0.38658  1.0000
  C   C171      1.0  0.39602  0.18100  0.46211  1.0000
  H   H199      1.0  0.98531  0.45985  0.55464  1.0000
  H   H200      1.0  0.10450  0.29748  0.39529  1.0000
  S   S50       1.0  0.37903  0.44096  0.55832  1.0000
  H   H201      1.0  0.35476  0.13552  0.53970  1.0000
  C   C172      1.0  0.34224  0.28848  0.54513  1.0000
  C   C173      1.0  0.16385  0.46225  0.52955  1.0000
  H   H202      1.0  0.28606  0.26688  0.55475  1.0000
  H   H203      1.0  0.08713  0.16651  0.52312  1.0000
  Fe  Fe26      1.0  0.21524  0.29198  0.49766  1.0000
  Fe  Fe27      1.0  0.05516  0.34852  0.43680  1.0000
  C   C174      1.0  0.99564  0.11708  0.42027  1.0000
  H   H204      1.0  0.22520  0.46576  0.45555  1.0000
  S   S51       1.0  0.43874  0.41687  0.45610  1.0000
  H   H205      1.0  0.24355  0.43886  0.37180  1.0000
  H   H206      1.0  0.33551  0.18112  0.60596  1.0000
  S   S52       1.0  0.22026  0.30801  0.59046  1.0000
  C   C175      1.0  0.96823  0.17390  0.59966  1.0000
  H   H207      1.0  0.39244  0.15823  0.44923  1.0000
  S   S53       1.0  0.01868  0.38121  0.46163  1.0000
  C   C176      1.0  0.10682  0.36755  0.58805  1.0000
  H   H208      1.0  0.97128  0.18328  0.49710  1.0000
  Fe  Fe28      1.0  0.02771  0.52588  0.48725  1.0000
  C   C177      1.0  0.13734  0.37298  0.57824  1.0000
  S   S54       1.0  0.13049  0.49444  0.46396  1.0000
  C   C178      1.0  0.36591  0.51613  0.46239  1.0000
  S   S55       1.0  0.99985  0.24308  0.45605  1.0000
  H   H209      1.0  0.98989  0.08501  0.50622  1.0000
  H   H210      1.0  0.24669  0.40073  0.50916  1.0000
  H   H211      1.0  0.22665  0.50598  0.46047  1.0000
  C   C179      1.0  0.09620  0.16973  0.46866  1.0000
  C   C180      1.0  0.20118  0.10002  0.37463  1.0000
  C   C181      1.0  0.29986  0.34057  0.42523  1.0000
  Fe  Fe29      1.0  0.36526  0.10520  0.39115  1.0000
  C   C182      1.0  0.00229  0.09099  0.45483  1.0000
  C   C183      1.0  0.27137  0.17023  0.58727  1.0000
  C   C184      1.0  0.40672  0.24138  0.48566  1.0000
  S   S56       1.0  0.03499  0.32354  0.37182  1.0000
  H   H212      1.0  0.24369  0.09098  0.38818  1.0000
  H   H213      1.0  0.05904  0.23137  0.43326  1.0000
  C   C185      1.0  0.23691  0.48780  0.42931  1.0000
  C   C186      1.0  0.18204  0.45923  0.57122  1.0000
  C   C187      1.0  0.26163  0.38406  0.48575  1.0000
  C   C188      1.0  0.39610  0.21845  0.53846  1.0000
  S   S57       1.0  0.30354  0.41183  0.53071  1.0000
  H   H214      1.0  0.36347  0.28956  0.55818  1.0000
  S   S58       1.0  0.29583  0.11607  0.61616  1.0000
  C   C189      1.0  0.99450  0.23317  0.58761  1.0000
  S   S59       1.0  0.34733  0.07501  0.48630  1.0000
  H   H215      1.0  0.24229  0.22388  0.41443  1.0000
  N   N12       1.0  0.37919  0.16377  0.58555  1.0000
  H   H216      1.0  0.41111  0.26472  0.49500  1.0000
  S   S60       1.0  0.42397  0.50266  0.40954  1.0000
  C   C190      1.0  0.04581  0.16917  0.46626  1.0000
  H   H217      1.0  0.23184  0.49213  0.38159  1.0000
  H   H218      1.0  0.03832  0.16777  0.52109  1.0000
  H   H219      1.0  0.42508  0.51293  0.61034  1.0000
  S   S61       1.0  0.08322  0.07892  0.51572  1.0000
  C   C191      1.0  0.28866  0.28546  0.58531  1.0000
  Fe  Fe30      1.0  0.40789  0.45474  0.45496  1.0000
  H   H220      1.0  0.20209  0.17941  0.52042  1.0000
  C   C192      1.0  0.10262  0.20452  0.60652  1.0000
  H   H221      1.0  0.07226  0.36314  0.54157  1.0000
  Fe  Fe31      1.0  0.01151  0.29242  0.46229  1.0000
  H   H222      1.0  0.02816  0.18080  0.44995  1.0000
  Fe  Fe32      1.0  0.15420  0.26052  0.56889  1.0000
  C   C193      1.0  0.15132  0.49024  0.51957  1.0000
  H   H223      1.0  0.26489  0.49967  0.51764  1.0000
  C   C194      1.0  0.43321  0.11218  0.39766  1.0000
  H   H224      1.0  0.15214  0.32449  0.37683  1.0000
  S   S62       1.0  0.37942  0.37027  0.51721  1.0000
  H   H225      1.0  0.18015  0.38390  0.50674  1.0000
  C   C195      1.0  0.40651  0.20408  0.40953  1.0000
  N   N13       1.0  0.31628  0.28350  0.60518  1.0000
  H   H226      1.0  0.34314  0.26981  0.51260  1.0000
  H   H227      1.0  0.36284  0.49382  0.49047  1.0000
  Fe  Fe33      1.0  0.99757  0.34550  0.54700  1.0000
  H   H228      1.0  0.32050  0.52732  0.50428  1.0000
  H   H229      1.0  0.11799  0.18296  0.45735  1.0000
  S   S63       1.0  0.07652  0.53980  0.60196  1.0000
  C   C196      1.0  0.39049  0.18751  0.52847  1.0000
  H   H230      1.0  0.21836  0.13144  0.47410  1.0000
  Fe  Fe34      1.0  0.30425  0.11133  0.37199  1.0000
  C   C197      1.0  0.31087  0.36469  0.45219  1.0000
  H   H231      1.0  0.96912  0.55295  0.50458  1.0000
  H   H232      1.0  0.24983  0.21171  0.56915  1.0000
  C   C198      1.0  0.29149  0.38571  0.48484  1.0000
  H   H233      1.0  0.34155  0.31032  0.51439  1.0000
  C   C199      1.0  0.96224  0.45135  0.57345  1.0000
  H   H234      1.0  0.39240  0.22498  0.58747  1.0000
  Fe  Fe35      1.0  0.17269  0.31938  0.61316  1.0000
  H   H235      1.0  0.00501  0.25588  0.58287  1.0000
  H   H236      1.0  0.41990  0.25201  0.38016  1.0000
  H   H237      1.0  0.26274  0.45912  0.51166  1.0000
  S   S64       1.0  0.33082  0.13981  0.41971  1.0000
  H   H238      1.0  0.28787  0.30756  0.55563  1.0000
  S   S65       1.0  0.07082  0.55407  0.45118  1.0000
  C   C200      1.0  0.45482  0.32718  0.46089  1.0000
  C   C201      1.0  0.97559  0.19217  0.53928  1.0000
  H   H239      1.0  0.31533  0.23419  0.60219  1.0000
  S   S66       1.0  0.03532  0.31415  0.52542  1.0000
  C   C202      1.0  0.09570  0.36802  0.53381  1.0000
  C   C203      1.0  0.21391  0.10582  0.56809  1.0000
  C   C204      1.0  0.34189  0.53512  0.47033  1.0000
  H   H240      1.0  0.10018  0.14632  0.45262  1.0000
  H   H241      1.0  0.32930  0.47810  0.37458  1.0000
  S   S67       1.0  0.20036  0.24347  0.54044  1.0000
  H   H242      1.0  0.19298  0.21439  0.39746  1.0000
  S   S68       1.0  0.25439  0.30457  0.40950  1.0000
  H   H243      1.0  0.16042  0.38440  0.41100  1.0000
  N   N14       1.0  0.07543  0.18580  0.43776  1.0000
  C   C205      1.0  0.39378  0.52623  0.41883  1.0000
  H   H244      1.0  0.04629  0.14528  0.45215  1.0000
  C   C206      1.0  0.27399  0.48148  0.48556  1.0000
  H   H245      1.0  0.08577  0.45988  0.42746  1.0000
  C   C207      1.0  0.28270  0.51846  0.38946  1.0000
  H   H246      1.0  0.31586  0.34602  0.57768  1.0000
  H   H247      1.0  0.15969  0.44304  0.50444  1.0000
  H   H248      1.0  0.29789  0.48025  0.48282  1.0000
  C   C208      1.0  0.15624  0.51505  0.55255  1.0000
  H   H249      1.0  0.22728  0.35806  0.46204  1.0000
  C   C209      1.0  0.98900  0.22165  0.53308  1.0000
  C   C210      1.0  0.41183  0.23423  0.42121  1.0000
  S   S69       1.0  0.37982  0.42830  0.40830  1.0000
  H   H250      1.0  0.97161  0.40522  0.55226  1.0000
  S   S70       1.0  0.16905  0.30728  0.51613  1.0000
  H   H251      1.0  0.45404  0.35116  0.43952  1.0000
  C   C211      1.0  0.14539  0.38030  0.46023  1.0000
  H   H252      1.0  0.20167  0.33082  0.37065  1.0000
  C   C212      1.0  0.21271  0.13219  0.52675  1.0000
  H   H253      1.0  0.05019  0.45333  0.41532  1.0000
  C   C213      1.0  0.96417  0.51467  0.45198  1.0000
  H   H254      1.0  0.95689  0.40420  0.43668  1.0000
  H   H255      1.0  0.15884  0.07704  0.72404  1.0000
  C   C214      1.0  0.15887  0.46018  0.84689  1.0000
  C   C215      1.0  0.97509  0.19652  0.86366  1.0000
  H   H256      1.0  0.26678  0.39207  0.71804  1.0000
  H   H257      1.0  0.23334  0.09972  0.73278  1.0000
  S   S71       1.0  0.15599  0.27292  0.66697  1.0000
  S   S72       1.0  0.95809  0.08518  0.65624  1.0000
  H   H258      1.0  0.44434  0.44129  0.69254  1.0000
  C   C216      1.0  0.27887  0.15049  0.63483  1.0000
  H   H259      1.0  0.26577  0.53688  0.77395  1.0000
  H   H260      1.0  0.17360  0.50181  0.78172  1.0000
  H   H261      1.0  0.24886  0.42697  0.72804  1.0000
  C   C217      1.0  0.08888  0.14327  0.66023  1.0000
  C   C218      1.0  0.96508  0.40079  0.72693  1.0000
  C   C219      1.0  0.98685  0.21495  0.64835  1.0000
  H   H262      1.0  0.01180  0.09421  0.74383  1.0000
  H   H263      1.0  0.98539  0.12123  0.82077  1.0000
  S   S73       1.0  0.07997  0.10430  0.68623  1.0000
  S   S74       1.0  0.33737  0.11270  0.78000  1.0000
  H   H264      1.0  0.44501  0.52570  0.66290  1.0000
  C   C220      1.0  0.24925  0.52095  0.81173  1.0000
  C   C221      1.0  0.02332  0.17647  0.85273  1.0000
  S   S75       1.0  0.22756  0.23456  0.69819  1.0000
  H   H265      1.0  0.06482  0.41463  0.81768  1.0000
  H   H266      1.0  0.07324  0.47038  0.67672  1.0000
  C   C222      1.0  0.32181  0.35489  0.72870  1.0000
  H   H267      1.0  0.20048  0.43266  0.73159  1.0000
  C   C223      1.0  0.00145  0.32945  0.78080  1.0000
  H   H268      1.0  0.04548  0.17259  0.82203  1.0000
  C   C224      1.0  0.40171  0.32707  0.64830  1.0000
  C   C225      1.0  0.23054  0.30371  0.76023  1.0000
  C   C226      1.0  0.40834  0.33289  0.85236  1.0000
  C   C227      1.0  0.28955  0.49807  0.84435  1.0000
  C   C228      1.0  0.17795  0.31144  0.79336  1.0000
  C   C229      1.0  0.42300  0.38720  0.82287  1.0000
  C   C230      1.0  0.19554  0.16048  0.62078  1.0000
  C   C231      1.0  0.21252  0.08476  0.74363  1.0000
  C   C232      1.0  0.14005  0.43365  0.86196  1.0000
  C   C233      1.0  0.32066  0.32415  0.75368  1.0000
  H   H269      1.0  0.19649  0.26779  0.80487  1.0000
  C   C234      1.0  0.10336  0.42072  0.69799  1.0000
  S   S76       1.0  0.00843  0.48297  0.71999  1.0000
  H   H270      1.0  0.08684  0.41682  0.67092  1.0000
  N   N15       1.0  0.09528  0.44592  0.74033  1.0000
  H   H271      1.0  0.41474  0.46324  0.67860  1.0000
  C   C235      1.0  0.03582  0.08407  0.84041  1.0000
  H   H272      1.0  0.37682  0.06974  0.68454  1.0000
  H   H273      1.0  0.24045  0.39706  0.79570  1.0000
  H   H274      1.0  0.44114  0.40547  0.81400  1.0000
  C   C236      1.0  0.45293  0.29664  0.65172  1.0000
  C   C237      1.0  0.13869  0.47671  0.75790  1.0000
  H   H275      1.0  0.22033  0.14838  0.83543  1.0000
  C   C238      1.0  0.31703  0.51320  0.84261  1.0000
  H   H276      1.0  0.03639  0.10842  0.81920  1.0000
  H   H277      1.0  0.19389  0.09579  0.77680  1.0000
  H   H278      1.0  0.21146  0.38312  0.62873  1.0000
  C   C239      1.0  0.12114  0.42811  0.82397  1.0000
  C   C240      1.0  0.97709  0.28526  0.75398  1.0000
  C   C241      1.0  0.11840  0.45041  0.77370  1.0000
  H   H279      1.0  0.19115  0.13687  0.71429  1.0000
  C   C242      1.0  0.45358  0.11887  0.86534  1.0000
  H   H280      1.0  0.18825  0.18172  0.64119  1.0000
  C   C243      1.0  0.04080  0.27630  0.74226  1.0000
  H   H281      1.0  0.12555  0.42595  0.66080  1.0000
  S   S77       1.0  0.21361  0.56780  0.69528  1.0000
  H   H282      1.0  0.39759  0.26193  0.80293  1.0000
  C   C244      1.0  0.00981  0.06965  0.76447  1.0000
  H   H283      1.0  0.22826  0.53317  0.82699  1.0000
  C   C245      1.0  0.24518  0.40160  0.74159  1.0000
  C   C246      1.0  0.39221  0.28294  0.82612  1.0000
  H   H284      1.0  0.98214  0.34393  0.78339  1.0000
  C   C247      1.0  0.97273  0.10597  0.86319  1.0000
  H   H285      1.0  0.29690  0.24611  0.68050  1.0000
  C   C248      1.0  0.19747  0.13449  0.66244  1.0000
  H   H286      1.0  0.27962  0.14349  0.73552  1.0000
  H   H287      1.0  0.05555  0.21046  0.64462  1.0000
  H   H288      1.0  0.38030  0.28167  0.66250  1.0000
  C   C249      1.0  0.24895  0.20359  0.67086  1.0000
  H   H289      1.0  0.15514  0.30224  0.81470  1.0000
  H   H290      1.0  0.24948  0.37938  0.62655  1.0000
  H   H291      1.0  0.43660  0.47672  0.72834  1.0000
  H   H292      1.0  0.38693  0.19671  0.85074  1.0000
  H   H293      1.0  0.38181  0.33873  0.64789  1.0000
  H   H294      1.0  0.13579  0.13729  0.62099  1.0000
  C   C250      1.0  0.11836  0.15332  0.62703  1.0000
  H   H295      1.0  0.38609  0.15447  0.78159  1.0000
  H   H296      1.0  0.09206  0.36108  0.63714  1.0000
  C   C251      1.0  0.01800  0.27882  0.80182  1.0000
  C   C252      1.0  0.15191  0.16852  0.81483  1.0000
  C   C253      1.0  0.12336  0.12290  0.80631  1.0000
  S   S78       1.0  0.42438  0.23925  0.66918  1.0000
  H   H297      1.0  0.36543  0.45908  0.78360  1.0000
  C   C254      1.0  0.43760  0.46511  0.68362  1.0000
  H   H298      1.0  0.29062  0.14553  0.85753  1.0000
  C   C255      1.0  0.09178  0.47380  0.69836  1.0000
  H   H299      1.0  0.04166  0.44124  0.63093  1.0000
  C   C256      1.0  0.21352  0.35565  0.74433  1.0000
  H   H300      1.0  0.32157  0.31865  0.80354  1.0000
  C   C257      1.0  0.31862  0.30063  0.71477  1.0000
  H   H301      1.0  0.31831  0.27737  0.73723  1.0000
  H   H302      1.0  0.15803  0.19253  0.79744  1.0000
  C   C258      1.0  0.06633  0.16404  0.66881  1.0000
  Fe  Fe36      1.0  0.20361  0.25998  0.63421  1.0000
  C   C259      1.0  0.25842  0.18493  0.71687  1.0000
  C   C260      1.0  0.98403  0.38742  0.67449  1.0000
  C   C261      1.0  0.36544  0.16188  0.81256  1.0000
  H   H303      1.0  0.10856  0.11156  0.78411  1.0000
  H   H304      1.0  0.10787  0.40660  0.83602  1.0000
  C   C262      1.0  0.32018  0.36235  0.66514  1.0000
  H   H305      1.0  0.13894  0.49461  0.71945  1.0000
  C   C263      1.0  0.97319  0.42960  0.74262  1.0000
  H   H306      1.0  0.26881  0.28342  0.62941  1.0000
  C   C264      1.0  0.31816  0.45495  0.79870  1.0000
  C   C265      1.0  0.00015  0.44516  0.70567  1.0000
  H   H307      1.0  0.32399  0.37293  0.75878  1.0000
  S   S79       1.0  0.21644  0.48349  0.64019  1.0000
  H   H308      1.0  0.10467  0.39852  0.72691  1.0000
  C   C266      1.0  0.35189  0.17391  0.63209  1.0000
  H   H309      1.0  0.20297  0.20186  0.81695  1.0000
  H   H310      1.0  0.32105  0.38631  0.64570  1.0000
  N   N16       1.0  0.43148  0.35725  0.84878  1.0000
  H   H311      1.0  0.99127  0.22375  0.69031  1.0000
  H   H312      1.0  0.99147  0.28902  0.70211  1.0000
  C   C267      1.0  0.22941  0.39220  0.64741  1.0000
  H   H313      1.0  0.40292  0.39564  0.85719  1.0000
  C   C268      1.0  0.00338  0.19088  0.82441  1.0000
  H   H314      1.0  0.09050  0.23610  0.80026  1.0000
  C   C269      1.0  0.01991  0.43065  0.65642  1.0000
  H   H315      1.0  0.31861  0.43214  0.78254  1.0000
  C   C270      1.0  0.18383  0.34277  0.77180  1.0000
  H   H316      1.0  0.18567  0.40340  0.79878  1.0000
  H   H317      1.0  0.24852  0.28836  0.75595  1.0000
  C   C271      1.0  0.29109  0.46888  0.81985  1.0000
  H   H318      1.0  0.01385  0.33844  0.81306  1.0000
  H   H319      1.0  0.12530  0.16630  0.74838  1.0000
  C   C272      1.0  0.31657  0.25166  0.63622  1.0000
  H   H320      1.0  0.08363  0.25942  0.69572  1.0000
  H   H321      1.0  0.41824  0.38534  0.77516  1.0000
  C   C273      1.0  0.13293  0.15367  0.78605  1.0000
  N   N17       1.0  0.22040  0.38871  0.72012  1.0000
  S   S80       1.0  0.40580  0.56784  0.74774  1.0000
  S   S81       1.0  0.15244  0.36348  0.64280  1.0000
  H   H322      1.0  0.41461  0.45091  0.83324  1.0000
  C   C274      1.0  0.36600  0.18535  0.85283  1.0000
  S   S82       1.0  0.28116  0.54670  0.62357  1.0000
  C   C275      1.0  0.19457  0.40764  0.74426  1.0000
  C   C276      1.0  0.27296  0.15824  0.69918  1.0000
  S   S83       1.0  0.97243  0.35295  0.65091  1.0000
  H   H323      1.0  0.11201  0.47976  0.65591  1.0000
  H   H324      1.0  0.17646  0.40282  0.72207  1.0000
  C   C277      1.0  0.04860  0.24996  0.85997  1.0000
  C   C278      1.0  0.02272  0.26521  0.86099  1.0000
  C   C279      1.0  0.07316  0.19467  0.64095  1.0000
  H   H325      1.0  0.01618  0.33335  0.72912  1.0000
  H   H326      1.0  0.08655  0.49386  0.72745  1.0000
  C   C280      1.0  0.07037  0.24771  0.80058  1.0000
  C   C281      1.0  0.97362  0.18532  0.65440  1.0000
  H   H327      1.0  0.17907  0.53171  0.61751  1.0000
  C   C282      1.0  0.31746  0.33905  0.62632  1.0000
  H   H328      1.0  0.25956  0.34274  0.71530  1.0000
  H   H329      1.0  0.27131  0.45648  0.81750  1.0000
  C   C283      1.0  0.31738  0.30749  0.64915  1.0000
  C   C284      1.0  0.33830  0.14676  0.81621  1.0000
  C   C285      1.0  0.41477  0.30527  0.82191  1.0000
  H   H330      1.0  0.04342  0.15617  0.69380  1.0000
  C   C286      1.0  0.06577  0.43752  0.78951  1.0000
  H   H331      1.0  0.39102  0.08086  0.84277  1.0000
  C   C287      1.0  0.34403  0.49926  0.82053  1.0000
  C   C288      1.0  0.20124  0.29202  0.78784  1.0000
  H   H332      1.0  0.03932  0.28682  0.69548  1.0000
  H   H333      1.0  0.36464  0.51123  0.82022  1.0000
  H   H334      1.0  0.00986  0.19752  0.77181  1.0000
  C   C289      1.0  0.15876  0.48125  0.79379  1.0000
  C   C290      1.0  0.06645  0.26081  0.74186  1.0000
  H   H335      1.0  0.16463  0.35637  0.77735  1.0000
  H   H336      1.0  0.04757  0.43632  0.76608  1.0000
  N   N18       1.0  0.99167  0.29656  0.80118  1.0000
  C   C291      1.0  0.23665  0.33496  0.73781  1.0000
  N   N19       1.0  0.20647  0.07801  0.68164  1.0000
  C   C292      1.0  0.42649  0.27958  0.65788  1.0000
  H   H337      1.0  0.05989  0.45472  0.82581  1.0000
  H   H338      1.0  0.25411  0.19081  0.76672  1.0000
  H   H339      1.0  0.24457  0.50079  0.78746  1.0000
  C   C293      1.0  0.34455  0.47004  0.79940  1.0000
  H   H340      1.0  0.34048  0.15509  0.67089  1.0000
  H   H341      1.0  0.97045  0.26029  0.76635  1.0000
  C   C294      1.0  0.36283  0.28733  0.86054  1.0000
  H   H342      1.0  0.39414  0.14132  0.66363  1.0000
  H   H343      1.0  0.35665  0.19301  0.65908  1.0000
  H   H344      1.0  0.96858  0.53284  0.77434  1.0000
  C   C295      1.0  0.45357  0.32893  0.64485  1.0000
  S   S84       1.0  0.42916  0.38451  0.63347  1.0000
  C   C296      1.0  0.42800  0.34417  0.64312  1.0000
  H   H345      1.0  0.05732  0.07464  0.81434  1.0000
  C   C297      1.0  0.01174  0.40203  0.64022  1.0000
  H   H346      1.0  0.40788  0.18041  0.63938  1.0000
  C   C298      1.0  0.20706  0.10634  0.63728  1.0000
  C   C299      1.0  0.40088  0.29483  0.65644  1.0000
  H   H347      1.0  0.95939  0.20726  0.84118  1.0000
  C   C300      1.0  0.31169  0.15678  0.85553  1.0000
  C   C301      1.0  0.13244  0.10686  0.85598  1.0000
  Fe  Fe37      1.0  0.03297  0.51197  0.62587  1.0000
  H   H348      1.0  0.23469  0.41680  0.62689  1.0000
  S   S85       1.0  0.96327  0.16264  0.73023  1.0000
  Fe  Fe38      1.0  0.23425  0.53218  0.63013  1.0000
  C   C302      1.0  0.40202  0.15907  0.62035  1.0000
  Fe  Fe39      1.0  0.29938  0.08525  0.85401  1.0000
  H   H349      1.0  0.43704  0.30013  0.79486  1.0000
  H   H350      1.0  0.31830  0.53582  0.85840  1.0000
  S   S86       1.0  0.25057  0.08334  0.86353  1.0000
  H   H351      1.0  0.95821  0.44011  0.78221  1.0000
  H   H352      1.0  0.33725  0.24819  0.65067  1.0000
  C   C303      1.0  0.44754  0.51377  0.61787  1.0000
  H   H353      1.0  0.95663  0.29761  0.75430  1.0000
  C   C304      1.0  0.16178  0.15276  0.86542  1.0000
  C   C305      1.0  0.96866  0.29454  0.86626  1.0000
  H   H354      1.0  0.34545  0.27002  0.86326  1.0000
  H   H355      1.0  0.31677  0.91749  0.99396  1.0000
  N   N20       1.0  0.13798  0.92344  0.02485  1.0000
  S   S87       1.0  0.45043  0.90327  0.03146  1.0000
  C   C306      1.0  0.19407  0.60813  0.96803  1.0000
  Fe  Fe40      1.0  0.07092  0.71051  0.07551  1.0000
  C   C307      1.0  0.98808  0.80064  0.88748  1.0000
  H   H356      1.0  0.20899  0.62811  0.94717  1.0000
  H   H357      1.0  0.38322  0.61828  0.01511  1.0000
  S   S88       1.0  0.17600  0.63630  0.08149  1.0000
  Fe  Fe41      1.0  0.26995  0.70737  0.98506  1.0000
  Fe  Fe42      1.0  0.06492  0.02394  0.99741  1.0000
  H   H358      1.0  0.01805  0.02807  0.89952  1.0000
  H   H359      1.0  0.43566  0.82111  0.01828  1.0000
  C   C308      1.0  0.39943  0.57489  0.94135  1.0000
  H   H360      1.0  0.39843  0.04383  0.87764  1.0000
  Fe  Fe43      1.0  0.00120  0.01328  0.08749  1.0000
  H   H361      1.0  0.96324  0.73086  0.97257  1.0000
  H   H362      1.0  0.13460  0.03863  0.95769  1.0000
  C   C309      1.0  0.97888  0.75137  0.95162  1.0000
  H   H363      1.0  0.40804  0.77609  0.99627  1.0000
  H   H364      1.0  0.99996  0.74266  0.92115  1.0000
  C   C310      1.0  0.41688  0.97519  0.88892  1.0000
  S   S89       1.0  0.41726  0.71143  0.01141  1.0000
  H   H365      1.0  0.18908  0.03303  0.93159  1.0000
  H   H366      1.0  0.14515  0.73536  0.91266  1.0000
  C   C311      1.0  0.12329  0.75353  0.10306  1.0000
  H   H367      1.0  0.17040  0.76339  0.92641  1.0000
  H   H368      1.0  0.36664  0.06288  0.91944  1.0000
  H   H369      1.0  0.20585  0.58648  0.87790  1.0000
  H   H370      1.0  0.17283  0.94272  0.05854  1.0000
  H   H371      1.0  0.37330  0.96898  0.87632  1.0000
  C   C312      1.0  0.17656  0.02207  0.90376  1.0000
  C   C313      1.0  0.45069  0.59750  0.92049  1.0000
  C   C314      1.0  0.18982  0.84792  0.94755  1.0000
  N   N21       1.0  0.41862  0.60331  0.93559  1.0000
  C   C315      1.0  0.40793  0.61715  0.99870  1.0000
  C   C316      1.0  0.28121  0.78005  0.93261  1.0000
  H   H372      1.0  0.10487  0.91443  0.97641  1.0000
  H   H373      1.0  0.36676  0.81144  0.06281  1.0000
  S   S90       1.0  0.31644  0.60691  0.01536  1.0000
  H   H374      1.0  0.07931  0.76841  0.10995  1.0000
  H   H375      1.0  0.16842  0.69298  0.96816  1.0000
  H   H376      1.0  0.22919  0.81742  0.04058  1.0000
  H   H377      1.0  0.31440  0.90437  0.88330  1.0000
  H   H378      1.0  0.20319  0.82924  0.92790  1.0000
  S   S91       1.0  0.01485  0.67921  0.92086  1.0000
  H   H379      1.0  0.13364  0.94281  0.93101  1.0000
  S   S92       1.0  0.24282  0.03126  0.99065  1.0000
  H   H380      1.0  0.98473  0.76175  0.99226  1.0000
  C   C317      1.0  0.32933  0.93580  0.00648  1.0000
  H   H381      1.0  0.13909  0.86346  0.08697  1.0000
  C   C318      1.0  0.12956  0.01208  0.88106  1.0000
  S   S93       1.0  0.32275  0.02609  0.03214  1.0000
  Fe  Fe44      1.0  0.04130  0.06581  0.10408  1.0000
  C   C319      1.0  0.36146  0.98266  0.04145  1.0000
  H   H382      1.0  0.97046  0.03605  0.95235  1.0000
  C   C320      1.0  0.16788  0.74680  0.89158  1.0000
  H   H383      1.0  0.27707  0.93573  0.93294  1.0000
  C   C321      1.0  0.15536  0.89717  0.99910  1.0000
  C   C322      1.0  0.43968  0.74399  0.01173  1.0000
  H   H384      1.0  0.37434  0.00087  0.05321  1.0000
  C   C323      1.0  0.11732  0.91597  0.09242  1.0000
  H   H385      1.0  0.41660  0.64142  0.99494  1.0000
  H   H386      1.0  0.17796  0.92158  0.90246  1.0000
  H   H387      1.0  0.41462  0.60364  0.03839  1.0000
  N   N22       1.0  0.19117  0.72393  0.88233  1.0000
  Fe  Fe45      1.0  0.25309  0.03239  0.88139  1.0000
  H   H388      1.0  0.13243  0.63102  0.94508  1.0000
  C   C324      1.0  0.44602  0.96565  0.87274  1.0000
  C   C325      1.0  0.14567  0.02517  0.91869  1.0000
  C   C326      1.0  0.95924  0.65369  0.99130  1.0000
  S   S94       1.0  0.26802  0.87254  0.01440  1.0000
  H   H389      1.0  0.42824  0.64697  0.87540  1.0000
  S   S95       1.0  0.25983  0.65927  0.96674  1.0000
  H   H390      1.0  0.41026  0.99210  0.92328  1.0000
  C   C327      1.0  0.25012  0.81338  0.00534  1.0000
  C   C328      1.0  0.37170  0.95300  0.03930  1.0000
  Fe  Fe46      1.0  0.22142  0.65901  0.05819  1.0000
  C   C329      1.0  0.15578  0.58071  0.05917  1.0000
  Fe  Fe47      1.0  0.40167  0.89199  0.07994  1.0000
  S   S96       1.0  0.22897  0.70844  0.07087  1.0000
  S   S97       1.0  0.98621  0.69624  0.10330  1.0000
  C   C330      1.0  0.44436  0.79862  0.02016  1.0000
  H   H391      1.0  0.34265  0.80576  0.01380  1.0000
  C   C331      1.0  0.26265  0.57330  0.04996  1.0000
  C   C332      1.0  0.96450  0.67959  0.88304  1.0000
  H   H392      1.0  0.35509  0.77266  0.05207  1.0000
  H   H393      1.0  0.29352  0.78452  0.05982  1.0000
  S   S98       1.0  0.28732  0.74435  0.90200  1.0000
  S   S99       1.0  0.02582  0.05377  0.01938  1.0000
  H   H394      1.0  0.97205  0.58714  0.95163  1.0000
  H   H395      1.0  0.24863  0.91468  0.91269  1.0000
  H   H396      1.0  0.18877  0.72499  0.98473  1.0000
  C   C333      1.0  0.31923  0.96576  0.00775  1.0000
  H   H397      1.0  0.37532  0.57941  0.95745  1.0000
  Fe  Fe48      1.0  0.01137  0.73959  0.10994  1.0000
  S   S100      1.0  0.09157  0.01804  0.89381  1.0000
  C   C334      1.0  0.96463  0.05851  0.93595  1.0000
  C   C335      1.0  0.10569  0.65795  0.89672  1.0000
  H   H398      1.0  0.10511  0.67697  0.92611  1.0000
  C   C336      1.0  0.35539  0.92938  0.02307  1.0000
  C   C337      1.0  0.15858  0.94949  0.02659  1.0000
  H   H399      1.0  0.42639  0.86468  0.86792  1.0000
  C   C338      1.0  0.33520  0.98898  0.02620  1.0000
  H   H400      1.0  0.31784  0.84917  0.92421  1.0000
  C   C339      1.0  0.40793  0.06267  0.98565  1.0000
  H   H401      1.0  0.39271  0.94860  0.04826  1.0000
  Fe  Fe49      1.0  0.42289  0.68195  0.09754  1.0000
  S   S101      1.0  0.08238  0.03917  0.07731  1.0000
  S   S102      1.0  0.05111  0.66441  0.06649  1.0000
  C   C340      1.0  0.17525  0.90025  0.93415  1.0000
  C   C341      1.0  0.17048  0.84406  0.01123  1.0000
  C   C342      1.0  0.39045  0.06687  0.88959  1.0000
  C   C343      1.0  0.27287  0.83668  0.98451  1.0000
  H   H402      1.0  0.42646  0.82948  0.91814  1.0000
  Fe  Fe50      1.0  0.28637  0.64569  0.03514  1.0000
  C   C344      1.0  0.18915  0.70825  0.94836  1.0000
  H   H403      1.0  0.41777  0.04024  0.97458  1.0000
  N   N23       1.0  0.96621  0.77395  0.91212  1.0000
  C   C345      1.0  0.25431  0.78500  0.97929  1.0000
  H   H404      1.0  0.13325  0.58735  0.87922  1.0000
  C   C346      1.0  0.11978  0.93373  0.98130  1.0000
  H   H405      1.0  0.31000  0.83942  0.07581  1.0000
  Fe  Fe51      1.0  0.02373  0.69123  0.01308  1.0000
  C   C347      1.0  0.34781  0.79644  0.05943  1.0000
  H   H406      1.0  0.14628  0.96958  0.04643  1.0000
  H   H407      1.0  0.99138  0.81250  0.92899  1.0000
  H   H408      1.0  0.32501  0.79941  0.87765  1.0000
  S   S103      1.0  0.03888  0.98241  0.05927  1.0000
  H   H409      1.0  0.23655  0.76723  0.99447  1.0000
  H   H410      1.0  0.96905  0.64558  0.02931  1.0000
  C   C348      1.0  0.12154  0.60756  0.87028  1.0000
  S   S104      1.0  0.11935  0.72156  0.06189  1.0000
  S   S105      1.0  0.36730  0.89187  0.02640  1.0000
  C   C349      1.0  0.19229  0.58455  0.92883  1.0000
  H   H411      1.0  0.10559  0.95279  0.00049  1.0000
  H   H412      1.0  0.29878  0.97062  0.99631  1.0000
  S   S106      1.0  0.04655  0.73678  0.01461  1.0000
  S   S107      1.0  0.29950  0.69387  0.04719  1.0000
  C   C350      1.0  0.29987  0.83150  0.93874  1.0000
  C   C351      1.0  0.97712  0.66970  0.93249  1.0000
  H   H413      1.0  0.16890  0.82225  0.04089  1.0000
  H   H414      1.0  0.10395  0.93582  0.10941  1.0000
  H   H415      1.0  0.22363  0.75929  0.88601  1.0000
  C   C352      1.0  0.42886  0.77327  0.00724  1.0000
  C   C353      1.0  0.26592  0.93400  0.89385  1.0000
  H   H416      1.0  0.20820  0.69383  0.94787  1.0000
  C   C354      1.0  0.15335  0.86814  0.03694  1.0000
  Fe  Fe52      1.0  0.29215  0.03857  0.97239  1.0000
  H   H417      1.0  0.25236  0.59465  0.04368  1.0000
  H   H418      1.0  0.16814  0.74482  0.10335  1.0000
  C   C355      1.0  0.12105  0.63213  0.90751  1.0000
  H   H419      1.0  0.17365  0.95793  0.97696  1.0000
  C   C356      1.0  0.19201  0.87583  0.90893  1.0000
  C   C357      1.0  0.17549  0.60638  0.03289  1.0000
  C   C358      1.0  0.30396  0.80332  0.91239  1.0000
  H   H420      1.0  0.25496  0.95592  0.88999  1.0000
  H   H421      1.0  0.30205  0.75273  0.10958  1.0000
  H   H422      1.0  0.44767  0.04051  0.86923  1.0000
  H   H423      1.0  0.38479  0.05714  0.01811  1.0000
  H   H424      1.0  0.14145  0.57917  0.10928  1.0000
  H   H425      1.0  0.39071  0.63111  0.89237  1.0000
  C   C359      1.0  0.29374  0.57285  0.03515  1.0000
  H   H426      1.0  0.10109  0.89651  0.09486  1.0000
  C   C360      1.0  0.41438  0.62510  0.88213  1.0000
  H   H427      1.0  0.25937  0.03688  0.10195  1.0000
  C   C361      1.0  0.29711  0.77747  0.10817  1.0000
  Fe  Fe53      1.0  0.23749  0.87059  0.11671  1.0000
  C   C362      1.0  0.43445  0.84090  0.86707  1.0000
  C   C363      1.0  0.32813  0.68289  0.30674  1.0000
  H   H428      1.0  0.25662  0.58220  0.19968  1.0000
  C   C364      1.0  0.12803  0.80230  0.17663  1.0000
  C   C365      1.0  0.10183  0.79664  0.16016  1.0000
  N   N24       1.0  0.06211  0.05726  0.32219  1.0000
  Fe  Fe54      1.0  0.23075  0.85664  0.26187  1.0000
  C   C366      1.0  0.30000  0.68381  0.35228  1.0000
  Fe  Fe55      1.0  0.43375  0.61994  0.15906  1.0000
  H   H429      1.0  0.12487  0.61519  0.29368  1.0000
  C   C367      1.0  0.19002  0.58249  0.21981  1.0000
  C   C368      1.0  0.00875  0.60112  0.22811  1.0000
  C   C369      1.0  0.12716  0.62632  0.24342  1.0000
  H   H430      1.0  0.10483  0.04192  0.32659  1.0000
  C   C370      1.0  0.02121  0.83006  0.28242  1.0000
  H   H431      1.0  0.16651  0.00689  0.15156  1.0000
  S   S108      1.0  0.35834  0.67120  0.33319  1.0000
  C   C371      1.0  0.01186  0.58012  0.27893  1.0000
  C   C372      1.0  0.30885  0.76983  0.30013  1.0000
  H   H432      1.0  0.21754  0.64604  0.32549  1.0000
  C   C373      1.0  0.15206  0.78379  0.15569  1.0000
  H   H433      1.0  0.45200  0.73908  0.28785  1.0000
  C   C374      1.0  0.20980  0.05120  0.19334  1.0000
  C   C375      1.0  0.26961  0.04142  0.27991  1.0000
  H   H434      1.0  0.43764  0.03862  0.22081  1.0000
  H   H435      1.0  0.19014  0.72483  0.29965  1.0000
  C   C376      1.0  0.38338  0.04826  0.19454  1.0000
  H   H436      1.0  0.18067  0.76170  0.27026  1.0000
  C   C377      1.0  0.27802  0.60571  0.25939  1.0000
  H   H437      1.0  0.35316  0.99178  0.24727  1.0000
  C   C378      1.0  0.09206  0.66209  0.35171  1.0000
  H   H438      1.0  0.00423  0.58508  0.32941  1.0000
  H   H439      1.0  0.95749  0.73048  0.20315  1.0000
  C   C379      1.0  0.12064  0.98978  0.18138  1.0000
  H   H440      1.0  0.26201  0.62326  0.26904  1.0000
  C   C380      1.0  0.09730  0.66873  0.28275  1.0000
  C   C381      1.0  0.10851  0.94369  0.25844  1.0000
  S   S109      1.0  0.24804  0.70399  0.23514  1.0000
  C   C382      1.0  0.33175  0.68990  0.23963  1.0000
  N   N25       1.0  0.10084  0.64345  0.23993  1.0000
  C   C383      1.0  0.36929  0.00145  0.27024  1.0000
  C   C384      1.0  0.27901  0.69730  0.26297  1.0000
  H   H441      1.0  0.35350  0.69015  0.20434  1.0000
  H   H442      1.0  0.06805  0.79687  0.30087  1.0000
  H   H443      1.0  0.27981  0.02602  0.15746  1.0000
  C   C385      1.0  0.35999  0.04597  0.16523  1.0000
  H   H444      1.0  0.37706  0.98130  0.29556  1.0000
  C   C386      1.0  0.30425  0.78185  0.24107  1.0000
  H   H445      1.0  0.08351  0.81141  0.17485  1.0000
  H   H446      1.0  0.37462  0.77473  0.13976  1.0000
  N   N26       1.0  0.02054  0.79942  0.31916  1.0000
  H   H447      1.0  0.28237  0.78947  0.24326  1.0000
  C   C387      1.0  0.19147  0.60226  0.26693  1.0000
  C   C388      1.0  0.33670  0.76022  0.30090  1.0000
  C   C389      1.0  0.36000  0.76233  0.24259  1.0000
  Fe  Fe56      1.0  0.40952  0.87518  0.21453  1.0000
  C   C390      1.0  0.99778  0.83775  0.25535  1.0000
  H   H448      1.0  0.07503  0.60386  0.22821  1.0000
  C   C391      1.0  0.15030  0.98953  0.18230  1.0000
  H   H449      1.0  0.09744  0.74757  0.27932  1.0000
  Fe  Fe57      1.0  0.20638  0.91467  0.21245  1.0000
  C   C392      1.0  0.25694  0.02890  0.15403  1.0000
  C   C393      1.0  0.30215  0.60663  0.28450  1.0000
  H   H450      1.0  0.19702  0.59092  0.16778  1.0000
  H   H451      1.0  0.97268  0.79582  0.36450  1.0000
  C   C394      1.0  0.24182  0.04136  0.26624  1.0000
  C   C395      1.0  0.27514  0.58278  0.22024  1.0000
  H   H452      1.0  0.17241  0.78818  0.16792  1.0000
  C   C396      1.0  0.07406  0.62193  0.26227  1.0000
  C   C397      1.0  0.32744  0.78425  0.18060  1.0000
  S   S110      1.0  0.06305  0.96543  0.21568  1.0000
  S   S111      1.0  0.43506  0.56992  0.14387  1.0000
  H   H453      1.0  0.07110  0.60950  0.31175  1.0000
  H   H454      1.0  0.24527  0.00572  0.16475  1.0000
  S   S112      1.0  0.24842  0.83617  0.34236  1.0000
  S   S113      1.0  0.42403  0.70539  0.18556  1.0000
  H   H455      1.0  0.34297  0.58887  0.28700  1.0000
  H   H456      1.0  0.02131  0.75168  0.29994  1.0000
  H   H457      1.0  0.12573  0.66934  0.14805  1.0000
  H   H458      1.0  0.42660  0.01466  0.12904  1.0000
  C   C398      1.0  0.04797  0.02575  0.33030  1.0000
  C   C399      1.0  0.32428  0.58565  0.26816  1.0000
  H   H459      1.0  0.27547  0.77931  0.14606  1.0000
  C   C400      1.0  0.09977  0.96679  0.21924  1.0000
  Fe  Fe58      1.0  0.01472  0.67214  0.15772  1.0000
  N   N27       1.0  0.39441  0.02016  0.22185  1.0000
  S   S114      1.0  0.01363  0.02751  0.17416  1.0000
  C   C401      1.0  0.09947  0.77232  0.12338  1.0000
  H   H460      1.0  0.09143  0.04951  0.22697  1.0000
  C   C402      1.0  0.44217  0.79524  0.24761  1.0000
  H   H461      1.0  0.33402  0.92813  0.25956  1.0000
  H   H462      1.0  0.17931  0.65518  0.33567  1.0000
  H   H463      1.0  0.10745  0.63479  0.13842  1.0000
  C   C403      1.0  0.30718  0.69685  0.21779  1.0000
  H   H464      1.0  0.35040  0.02382  0.16054  1.0000
  Fe  Fe59      1.0  0.44895  0.92681  0.12126  1.0000
  H   H465      1.0  0.10324  0.70768  0.20635  1.0000
  H   H466      1.0  0.02897  0.02549  0.30913  1.0000
  H   H467      1.0  0.08583  0.66692  0.16284  1.0000
  H   H468      1.0  0.05366  0.63453  0.26415  1.0000
  H   H469      1.0  0.29074  0.76819  0.34568  1.0000
  S   S115      1.0  0.99198  0.78497  0.13278  1.0000
  S   S116      1.0  0.12984  0.83230  0.22438  1.0000
  C   C404      1.0  0.27160  0.03161  0.34248  1.0000
  H   H470      1.0  0.45166  0.94462  0.25315  1.0000
  C   C405      1.0  0.10504  0.65422  0.16957  1.0000
  N   N28       1.0  0.32165  0.79647  0.11863  1.0000
  H   H471      1.0  0.40825  0.04119  0.29652  1.0000
  H   H472      1.0  0.35671  0.01545  0.30878  1.0000
  S   S117      1.0  0.38480  0.85637  0.31714  1.0000
  S   S118      1.0  0.39944  0.91918  0.16542  1.0000
  C   C406      1.0  0.99751  0.86673  0.22161  1.0000
  H   H473      1.0  0.22403  0.78326  0.30633  1.0000
  C   C407      1.0  0.21621  0.03069  0.31933  1.0000
  H   H474      1.0  0.20964  0.05771  0.14186  1.0000
  S   S119      1.0  0.99546  0.63738  0.24591  1.0000
  S   S120      1.0  0.25193  0.89684  0.18843  1.0000
  C   C408      1.0  0.31128  0.93377  0.28233  1.0000
  H   H475      1.0  0.30683  0.95803  0.19345  1.0000
  H   H476      1.0  0.11416  0.00753  0.15076  1.0000
  C   C409      1.0  0.35563  0.77409  0.18306  1.0000
  C   C410      1.0  0.17645  0.74473  0.31474  1.0000
  H   H477      1.0  0.37513  0.57834  0.13944  1.0000
  C   C411      1.0  0.28645  0.84170  0.33364  1.0000
  H   H478      1.0  0.44667  0.81703  0.21410  1.0000
  C   C412      1.0  0.27541  0.69122  0.33040  1.0000
  H   H479      1.0  0.34018  0.75067  0.34659  1.0000
  C   C413      1.0  0.04710  0.79478  0.34254  1.0000
  S   S121      1.0  0.18597  0.87661  0.29156  1.0000
  H   H480      1.0  0.19408  0.02955  0.31399  1.0000
  C   C414      1.0  0.09913  0.70034  0.25801  1.0000
  H   H481      1.0  0.30433  0.62417  0.31568  1.0000
  H   H482      1.0  0.38141  0.75423  0.24349  1.0000
  C   C415      1.0  0.30603  0.85683  0.27604  1.0000
  H   H483      1.0  0.29777  0.86582  0.23632  1.0000
  H   H484      1.0  0.29140  0.83046  0.16143  1.0000
  C   C416      1.0  0.40816  0.00139  0.16797  1.0000
  H   H485      1.0  0.35151  0.87191  0.22504  1.0000
  H   H486      1.0  0.99741  0.77367  0.26499  1.0000
  C   C417      1.0  0.31284  0.82870  0.12293  1.0000
  H   H487      1.0  0.06211  0.89906  0.23214  1.0000
  Fe  Fe60      1.0  0.05331  0.99968  0.14113  1.0000
  H   H488      1.0  0.03678  0.77900  0.22851  1.0000
  C   C418      1.0  0.07542  0.06633  0.25049  1.0000
  S   S122      1.0  0.39202  0.64300  0.15715  1.0000
  C   C419      1.0  0.29704  0.92297  0.34822  1.0000
  H   H489      1.0  0.19794  0.02819  0.20809  1.0000
  C   C420      1.0  0.08670  0.05617  0.35249  1.0000
  H   H490      1.0  0.42418  0.00516  0.27769  1.0000
  S   S123      1.0  0.03701  0.71590  0.17160  1.0000
  Fe  Fe61      1.0  0.17622  0.85185  0.21228  1.0000
  C   C421      1.0  0.14969  0.75940  0.11879  1.0000
  S   S124      1.0  0.21956  0.82862  0.18825  1.0000
  C   C422      1.0  0.01897  0.77492  0.27648  1.0000
  C   C423      1.0  0.01842  0.59392  0.16312  1.0000
  C   C424      1.0  0.41709  0.02671  0.25570  1.0000
  H   H491      1.0  0.19660  0.06804  0.22430  1.0000
  H   H492      1.0  0.12956  0.91005  0.12909  1.0000
  C   C425      1.0  0.09569  0.72366  0.29981  1.0000
  C   C426      1.0  0.18245  0.59172  0.33525  1.0000
  N   N29       1.0  0.24058  0.05068  0.19863  1.0000
  H   H493      1.0  0.02030  0.91144  0.18806  1.0000
  H   H494      1.0  0.06374  0.84936  0.29020  1.0000
  H   H495      1.0  0.25461  0.97013  0.24535  1.0000
  C   C427      1.0  0.02054  0.88886  0.21383  1.0000
  C   C428      1.0  0.04408  0.88190  0.23888  1.0000
  H   H496      1.0  0.29011  0.04888  0.24218  1.0000
  H   H497      1.0  0.29307  0.03159  0.35127  1.0000
  H   H498      1.0  0.06408  0.00932  0.30564  1.0000
  H   H499      1.0  0.01496  0.60938  0.12379  1.0000
  Fe  Fe62      1.0  0.39649  0.66454  0.24520  1.0000
  H   H500      1.0  0.41764  0.98067  0.18663  1.0000
  S   S125      1.0  0.43578  0.63821  0.25254  1.0000
  H   H501      1.0  0.31028  0.70213  0.16593  1.0000
  C   C429      1.0  0.26667  0.95737  0.27421  1.0000
  H   H502      1.0  0.97966  0.82117  0.25941  1.0000
  C   C430      1.0  0.33646  0.86061  0.27006  1.0000
  H   H503      1.0  0.14487  0.92506  0.28853  1.0000
  C   C431      1.0  0.25225  0.94684  0.34002  1.0000
  H   H504      1.0  0.22887  0.74407  0.33251  1.0000
  H   H505      1.0  0.14770  0.64192  0.22722  1.0000
  S   S126      1.0  0.19358  0.89160  0.13503  1.0000
  H   H506      1.0  0.09245  0.92596  0.28825  1.0000
  C   C432      1.0  0.15912  0.96606  0.22064  1.0000
  H   H507      1.0  0.96549  0.66503  0.36648  1.0000
  C   C433      1.0  0.34709  0.85044  0.32280  1.0000
  C   C434      1.0  0.04460  0.85304  0.27267  1.0000
  H   H508      1.0  0.44411  0.84145  0.31060  1.0000
  H   H509      1.0  0.15294  0.73560  0.32934  1.0000
  C   C435      1.0  0.13822  0.94313  0.25855  1.0000
  C   C436      1.0  0.29605  0.95067  0.24516  1.0000
  H   H510      1.0  0.97955  0.87195  0.20073  1.0000
  H   H511      1.0  0.19975  0.62567  0.24850  1.0000
  S   S127      1.0  0.19648  0.96416  0.21816  1.0000
  H   H512      1.0  0.43483  0.77751  0.22047  1.0000
  S   S128      1.0  0.40798  0.84746  0.13318  1.0000
  H   H513      1.0  0.13095  0.60767  0.21019  1.0000
  Fe  Fe63      1.0  0.25758  0.69134  0.13216  1.0000
  H   H514      1.0  0.33013  0.84335  0.13414  1.0000
  H   H515      1.0  0.13364  0.78123  0.33733  1.0000
  S   S129      1.0  0.24729  0.64201  0.12537  1.0000
  H   H516      1.0  0.37599  0.59616  0.36062  1.0000
  C   C437      1.0  0.21685  0.76485  0.34818  1.0000
  H   H517      1.0  0.39190  0.99277  0.14420  1.0000
  H   H518      1.0  0.42286  0.79792  0.29130  1.0000
  C   C438      1.0  0.19468  0.64407  0.36061  1.0000
  H   H519      1.0  0.05802  0.06734  0.22463  1.0000
  H   H520      1.0  0.96555  0.06036  0.11922  1.0000
  H   H521      1.0  0.25361  0.69149  0.36546  1.0000
  H   H522      1.0  0.22947  0.95280  0.36000  1.0000
  H   H523      1.0  0.44436  0.76069  0.35819  1.0000
  C   C439      1.0  0.99457  0.00586  0.57815  1.0000
  S   S130      1.0  0.18612  0.00937  0.56771  1.0000
  H   H524      1.0  0.33548  0.82851  0.42193  1.0000
  H   H525      1.0  0.44459  0.75885  0.48775  1.0000
  N   N30       1.0  0.18461  0.61153  0.38651  1.0000
  Fe  Fe64      1.0  0.00877  0.78305  0.55970  1.0000
  C   C440      1.0  0.19504  0.66252  0.56220  1.0000
  S   S131      1.0  0.26277  0.61756  0.59226  1.0000
  H   H526      1.0  0.14741  0.58892  0.46500  1.0000
  C   C441      1.0  0.37317  0.57384  0.38919  1.0000
  C   C442      1.0  0.20623  0.59890  0.41916  1.0000
  H   H527      1.0  0.45614  0.80963  0.51927  1.0000
  C   C443      1.0  0.21851  0.02133  0.38207  1.0000
  C   C444      1.0  0.15220  0.91023  0.58185  1.0000
  H   H528      1.0  0.19833  0.57597  0.44718  1.0000
  C   C445      1.0  0.34478  0.64131  0.51628  1.0000
  H   H529      1.0  0.31389  0.96639  0.59060  1.0000
  H   H530      1.0  0.38504  0.77221  0.49831  1.0000
  H   H531      1.0  0.24778  0.01508  0.44260  1.0000
  C   C446      1.0  0.37797  0.72266  0.50710  1.0000
  H   H532      1.0  0.11115  0.71097  0.61224  1.0000
  C   C447      1.0  0.39544  0.66020  0.46777  1.0000
  H   H533      1.0  0.15579  0.62761  0.47457  1.0000
  H   H534      1.0  0.22548  0.77163  0.38835  1.0000
  H   H535      1.0  0.13607  0.92549  0.50024  1.0000
  Fe  Fe65      1.0  0.28002  0.57816  0.53542  1.0000
  N   N31       1.0  0.36735  0.66527  0.51872  1.0000
  H   H536      1.0  0.99309  0.77314  0.40805  1.0000
  C   C448      1.0  0.26678  0.92878  0.37884  1.0000
  H   H537      1.0  0.23754  0.65081  0.49990  1.0000
  H   H538      1.0  0.40212  0.63610  0.47305  1.0000
  N   N32       1.0  0.97340  0.65262  0.46045  1.0000
  C   C449      1.0  0.32738  0.83584  0.38081  1.0000
  C   C450      1.0  0.35114  0.98626  0.44240  1.0000
  S   S132      1.0  0.97471  0.74792  0.55338  1.0000
  H   H539      1.0  0.08767  0.73442  0.39976  1.0000
  H   H540      1.0  0.21068  0.89044  0.50404  1.0000
  H   H541      1.0  0.00581  0.61841  0.45848  1.0000
  C   C451      1.0  0.08936  0.74184  0.55843  1.0000
  H   H542      1.0  0.99366  0.81410  0.41010  1.0000
  H   H543      1.0  0.39953  0.71931  0.51414  1.0000
  H   H544      1.0  0.29714  0.67789  0.40408  1.0000
  H   H545      1.0  0.01071  0.67196  0.48510  1.0000
  H   H546      1.0  0.99086  0.01057  0.53058  1.0000
  H   H547      1.0  0.42117  0.01480  0.42591  1.0000
  S   S133      1.0  0.31624  0.99916  0.44261  1.0000
  H   H548      1.0  0.16897  0.84697  0.47903  1.0000
  H   H549      1.0  0.39081  0.67538  0.58833  1.0000
  C   C452      1.0  0.37210  0.66033  0.58456  1.0000
  H   H550      1.0  0.05713  0.80666  0.61316  1.0000
  H   H551      1.0  0.18011  0.74632  0.47051  1.0000
  H   H552      1.0  0.37366  0.03101  0.41030  1.0000
  C   C453      1.0  0.17542  0.73632  0.42837  1.0000
  C   C454      1.0  0.40571  0.96755  0.45555  1.0000
  H   H553      1.0  0.19582  0.65819  0.40079  1.0000
  C   C455      1.0  0.99386  0.79549  0.37778  1.0000
  H   H554      1.0  0.06256  0.93322  0.55974  1.0000
  C   C456      1.0  0.26804  0.89647  0.47987  1.0000
  S   S134      1.0  0.05223  0.99740  0.51063  1.0000
  H   H555      1.0  0.19628  0.80244  0.44466  1.0000
  H   H556      1.0  0.44541  0.59165  0.46666  1.0000
  C   C457      1.0  0.17734  0.80691  0.42692  1.0000
  C   C458      1.0  0.21941  0.72329  0.53519  1.0000
  C   C459      1.0  0.19023  0.71651  0.57574  1.0000
  C   C460      1.0  0.16147  0.83238  0.44807  1.0000
  C   C461      1.0  0.13569  0.83861  0.43109  1.0000
  H   H557      1.0  0.35224  0.61760  0.52310  1.0000
  C   C462      1.0  0.99621  0.67787  0.45329  1.0000
  H   H558      1.0  0.20607  0.91602  0.43861  1.0000
  Fe  Fe66      1.0  0.14947  0.03525  0.54408  1.0000
  H   H559      1.0  0.38456  0.92178  0.47890  1.0000
  H   H560      1.0  0.28889  0.90805  0.48291  1.0000
  C   C463      1.0  0.16844  0.78732  0.38578  1.0000
  H   H561      1.0  0.27375  0.87606  0.45248  1.0000
  H   H562      1.0  0.21010  0.61404  0.45525  1.0000
  C   C464      1.0  0.24611  0.02196  0.39372  1.0000
  H   H563      1.0  0.43645  0.06109  0.52533  1.0000
  H   H564      1.0  0.41443  0.67533  0.46969  1.0000
  S   S135      1.0  0.23413  0.76149  0.51818  1.0000
  Fe  Fe67      1.0  0.05526  0.57428  0.54738  1.0000
  S   S136      1.0  0.15573  0.79218  0.59845  1.0000
  H   H565      1.0  0.10622  0.82489  0.37749  1.0000
  C   C465      1.0  0.17785  0.68636  0.58785  1.0000
  S   S137      1.0  0.20878  0.83599  0.61574  1.0000
  C   C466      1.0  0.40281  0.99812  0.43431  1.0000
  C   C467      1.0  0.03669  0.67654  0.58449  1.0000
  H   H566      1.0  0.34029  0.64348  0.46764  1.0000
  S   S138      1.0  0.13491  0.03220  0.45359  1.0000
  H   H567      1.0  0.17679  0.73445  0.59734  1.0000
  H   H568      1.0  0.29602  0.80005  0.58152  1.0000
  C   C468      1.0  0.22221  0.90093  0.45301  1.0000
  H   H569      1.0  0.26523  0.95848  0.48189  1.0000
  H   H570      1.0  0.39308  0.66488  0.41751  1.0000
  H   H571      1.0  0.32354  0.64261  0.55571  1.0000
  H   H572      1.0  0.22383  0.04606  0.60969  1.0000
  H   H573      1.0  0.01076  0.68268  0.40158  1.0000
  S   S139      1.0  0.97895  0.82221  0.56125  1.0000
  S   S140      1.0  0.43798  0.95761  0.47549  1.0000
  S   S141      1.0  0.18041  0.62455  0.58526  1.0000
  C   C469      1.0  0.17473  0.97079  0.57164  1.0000
  C   C470      1.0  0.14822  0.93193  0.53344  1.0000
  C   C471      1.0  0.06110  0.90830  0.57802  1.0000
  H   H574      1.0  0.08400  0.90063  0.57202  1.0000
  H   H575      1.0  0.31010  0.90949  0.37346  1.0000
  S   S142      1.0  0.06397  0.62542  0.53869  1.0000
  H   H576      1.0  0.98612  0.69974  0.46763  1.0000
  C   C472      1.0  0.22420  0.66909  0.52103  1.0000
  H   H577      1.0  0.18797  0.71512  0.42074  1.0000
  H   H578      1.0  0.09035  0.63864  0.37439  1.0000
  H   H579      1.0  0.97334  0.60591  0.43583  1.0000
  S   S143      1.0  0.10331  0.02701  0.61342  1.0000
  H   H580      1.0  0.05492  0.68954  0.54830  1.0000
  H   H581      1.0  0.13772  0.61948  0.41404  1.0000
  H   H582      1.0  0.28214  0.81888  0.43029  1.0000
  C   C473      1.0  0.15951  0.96213  0.52837  1.0000
  C   C474      1.0  0.02268  0.99832  0.58227  1.0000
  C   C475      1.0  0.37565  0.00740  0.42717  1.0000
  S   S144      1.0  0.45302  0.69719  0.53633  1.0000
  C   C476      1.0  0.32274  0.73438  0.48888  1.0000
  C   C477      1.0  0.98921  0.62576  0.43278  1.0000
  H   H583      1.0  0.22898  0.95977  0.47046  1.0000
  H   H584      1.0  0.22824  0.59647  0.38285  1.0000
  C   C478      1.0  0.07348  0.76849  0.55940  1.0000
  H   H585      1.0  0.07905  0.04585  0.40451  1.0000
  C   C479      1.0  0.24446  0.94442  0.48685  1.0000
  N   N33       1.0  0.18399  0.75885  0.36894  1.0000
  H   H586      1.0  0.15113  0.72985  0.44417  1.0000
  H   H587      1.0  0.30123  0.73918  0.48206  1.0000
  Fe  Fe68      1.0  0.20339  0.78754  0.59264  1.0000
  C   C480      1.0  0.03585  0.64438  0.59152  1.0000
  H   H588      1.0  0.04894  0.81164  0.37740  1.0000
  H   H589      1.0  0.23403  0.93712  0.54006  1.0000
  C   C481      1.0  0.29723  0.83078  0.38566  1.0000
  S   S145      1.0  0.05576  0.77817  0.49897  1.0000
  C   C482      1.0  0.08880  0.68559  0.39303  1.0000
  H   H590      1.0  0.02862  0.05216  0.45224  1.0000
  H   H591      1.0  0.05227  0.89544  0.54443  1.0000
  C   C483      1.0  0.23628  0.69958  0.50709  1.0000
  H   H592      1.0  0.25877  0.70477  0.47560  1.0000
  C   C484      1.0  0.34239  0.75877  0.48911  1.0000
  H   H593      1.0  0.40740  0.00814  0.57420  1.0000
  H   H594      1.0  0.96890  0.59921  0.54933  1.0000
  Fe  Fe69      1.0  0.08868  0.02811  0.52250  1.0000
  C   C485      1.0  0.36998  0.75297  0.49792  1.0000
  S   S146      1.0  0.13543  0.87360  0.59022  1.0000
  H   H595      1.0  0.15637  0.97859  0.49066  1.0000
  C   C486      1.0  0.35848  0.69715  0.50756  1.0000
  C   C487      1.0  0.35453  0.95521  0.45947  1.0000
  H   H596      1.0  0.33611  0.78227  0.48318  1.0000
  H   H597      1.0  0.08504  0.67988  0.44542  1.0000
  S   S147      1.0  0.31515  0.58659  0.43880  1.0000
  Fe  Fe70      1.0  0.21748  0.59713  0.60112  1.0000
  C   C488      1.0  0.15515  0.61184  0.43678  1.0000
  Fe  Fe71      1.0  0.42580  0.91568  0.54862  1.0000
  H   H598      1.0  0.25515  0.88738  0.53098  1.0000
  C   C489      1.0  0.06867  0.78568  0.61308  1.0000
  H   H599      1.0  0.19875  0.01372  0.42209  1.0000
  H   H600      1.0  0.22591  0.88200  0.42074  1.0000
  H   H601      1.0  0.12316  0.85804  0.44903  1.0000
  H   H602      1.0  0.09357  0.72876  0.51659  1.0000
  Fe  Fe72      1.0  0.38504  0.85792  0.60110  1.0000
  C   C490      1.0  0.38194  0.94581  0.46570  1.0000
  S   S148      1.0  0.42999  0.86666  0.52732  1.0000
  S   S149      1.0  0.35229  0.82561  0.58055  1.0000
  H   H603      1.0  0.31412  0.68622  0.49778  1.0000
  C   C491      1.0  0.33047  0.70396  0.49820  1.0000
  H   H604      1.0  0.33592  0.93854  0.46939  1.0000
  Fe  Fe73      1.0  0.31977  0.05076  0.43461  1.0000
  N   N34       1.0  0.25084  0.91767  0.44836  1.0000
  H   H605      1.0  0.03951  0.01589  0.38268  1.0000
  C   C492      1.0  0.12618  0.81985  0.39106  1.0000
  C   C493      1.0  0.45435  0.76017  0.52750  1.0000
  C   C494      1.0  0.09884  0.73150  0.61301  1.0000
  H   H606      1.0  0.41223  0.06727  0.43637  1.0000
  H   H607      1.0  0.38796  0.06240  0.59990  1.0000
  H   H608      1.0  0.00327  0.89570  0.61442  1.0000
  H   H609      1.0  0.00190  0.63135  0.37986  1.0000
  H   H610      1.0  0.36352  0.97685  0.59778  1.0000
  H   H611      1.0  0.37774  0.63625  0.59577  1.0000
  Fe  Fe74      1.0  0.44663  0.85960  0.61531  1.0000
  S   S150      1.0  0.37908  0.90762  0.61491  1.0000
  C   C495      1.0  0.14227  0.79462  0.36830  1.0000
  C   C496      1.0  0.09037  0.71630  0.36732  1.0000
  H   H612      1.0  0.04604  0.77161  0.36997  1.0000
  C   C497      1.0  0.07994  0.93770  0.67451  1.0000
  H   H613      1.0  0.07975  0.68027  0.84216  1.0000
  C   C498      1.0  0.35310  0.59285  0.80418  1.0000
  Fe  Fe75      1.0  0.14559  0.77428  0.70428  1.0000
  H   H614      1.0  0.04925  0.98725  0.64702  1.0000
  H   H615      1.0  0.96284  0.62015  0.84756  1.0000
  H   H616      1.0  0.35173  0.66497  0.62406  1.0000
  H   H617      1.0  0.10679  0.58854  0.79644  1.0000
  C   C499      1.0  0.18819  0.70076  0.83796  1.0000
  C   C500      1.0  0.38507  0.74146  0.67146  1.0000
  S   S151      1.0  0.22989  0.00239  0.82972  1.0000
  C   C501      1.0  0.45432  0.94329  0.82914  1.0000
  H   H618      1.0  0.11021  0.96743  0.70314  1.0000
  H   H619      1.0  0.98347  0.74797  0.82892  1.0000
  H   H620      1.0  0.01351  0.90673  0.77852  1.0000
  C   C502      1.0  0.31750  0.82483  0.63931  1.0000
  H   H621      1.0  0.22314  0.75285  0.80481  1.0000
  H   H622      1.0  0.97839  0.69129  0.83688  1.0000
  H   H623      1.0  0.28239  0.84621  0.79087  1.0000
  H   H624      1.0  0.08641  0.63136  0.65323  1.0000
  C   C503      1.0  0.43368  0.93078  0.80127  1.0000
  C   C504      1.0  0.22982  0.92051  0.73687  1.0000
  H   H625      1.0  0.08033  0.68413  0.73043  1.0000
  S   S152      1.0  0.22470  0.82528  0.78326  1.0000
  C   C505      1.0  0.20548  0.65422  0.78543  1.0000
  S   S153      1.0  0.95886  0.69475  0.71427  1.0000
  C   C506      1.0  0.29039  0.91327  0.71743  1.0000
  H   H626      1.0  0.22511  0.67423  0.85105  1.0000
  H   H627      1.0  0.00787  0.98956  0.74893  1.0000
  H   H628      1.0  0.17486  0.04042  0.72997  1.0000
  C   C507      1.0  0.31769  0.98440  0.61939  1.0000
  C   C508      1.0  0.02751  0.99283  0.64385  1.0000
  H   H629      1.0  0.18596  0.97805  0.77685  1.0000
  C   C509      1.0  0.01238  0.62784  0.63964  1.0000
  H   H630      1.0  0.42786  0.01022  0.63272  1.0000
  C   C510      1.0  0.09672  0.62885  0.69408  1.0000
  H   H631      1.0  0.25157  0.06821  0.63161  1.0000
  H   H632      1.0  0.98897  0.05921  0.75912  1.0000
  C   C511      1.0  0.07847  0.77568  0.66707  1.0000
  C   C512      1.0  0.17651  0.06235  0.69816  1.0000
  H   H633      1.0  0.04540  0.67082  0.79016  1.0000
  H   H634      1.0  0.37267  0.70078  0.77906  1.0000
  C   C513      1.0  0.39603  0.96215  0.86220  1.0000
  H   H635      1.0  0.17108  0.05666  0.65311  1.0000
  C   C514      1.0  0.27336  0.92294  0.77814  1.0000
  H   H636      1.0  0.03470  0.02474  0.81483  1.0000
  C   C515      1.0  0.16848  0.91833  0.62384  1.0000
  C   C516      1.0  0.03437  0.92030  0.75975  1.0000
  H   H637      1.0  0.37293  0.98940  0.75480  1.0000
  C   C517      1.0  0.09109  0.65951  0.84805  1.0000
  S   S154      1.0  0.10858  0.73849  0.73168  1.0000
  H   H638      1.0  0.34840  0.72478  0.83392  1.0000
  H   H639      1.0  0.02781  0.86259  0.71969  1.0000
  H   H640      1.0  0.03816  0.61154  0.74122  1.0000
  S   S155      1.0  0.27570  0.60322  0.76139  1.0000
  C   C518      1.0  0.17964  0.94888  0.61899  1.0000
  H   H641      1.0  0.27936  0.66626  0.77605  1.0000
  H   H642      1.0  0.44966  0.79111  0.78955  1.0000
  S   S156      1.0  0.96410  0.84561  0.74216  1.0000
  H   H643      1.0  0.40534  0.75230  0.67931  1.0000
  H   H644      1.0  0.11684  0.64494  0.68010  1.0000
  C   C519      1.0  0.16452  0.67974  0.76153  1.0000
  H   H645      1.0  0.95817  0.77546  0.81666  1.0000
  H   H646      1.0  0.05875  0.58796  0.78322  1.0000
  Fe  Fe76      1.0  0.15962  0.83815  0.63252  1.0000
  H   H647      1.0  0.10438  0.60508  0.69560  1.0000
  H   H648      1.0  0.06550  0.86269  0.66742  1.0000
  C   C520      1.0  0.01357  0.69215  0.62343  1.0000
  C   C521      1.0  0.16633  0.70171  0.80390  1.0000
  C   C522      1.0  0.26097  0.82295  0.73127  1.0000
  H   H649      1.0  0.39033  0.71785  0.65813  1.0000
  C   C523      1.0  0.22054  0.74112  0.85494  1.0000
  C   C524      1.0  0.24678  0.90920  0.67977  1.0000
  H   H650      1.0  0.40275  0.01749  0.74585  1.0000
  H   H651      1.0  0.15033  0.71924  0.80880  1.0000
  C   C525      1.0  0.97161  0.00897  0.63566  1.0000
  H   H652      1.0  0.37512  0.57158  0.64887  1.0000
  H   H653      1.0  0.36494  0.02819  0.77125  1.0000
  H   H654      1.0  0.16912  0.76091  0.84459  1.0000
  H   H655      1.0  0.42287  0.82874  0.83735  1.0000
  C   C526      1.0  0.33250  0.72596  0.71828  1.0000
  C   C527      1.0  0.08888  0.95441  0.71895  1.0000
  Fe  Fe77      1.0  0.26073  0.58519  0.68091  1.0000
  C   C528      1.0  0.31383  0.83765  0.69872  1.0000
  C   C529      1.0  0.40453  0.94001  0.81808  1.0000
  Fe  Fe78      1.0  0.44349  0.60180  0.69406  1.0000
  H   H656      1.0  0.38671  0.73657  0.79537  1.0000
  H   H657      1.0  0.32395  0.58597  0.65365  1.0000
  C   C530      1.0  0.97629  0.00287  0.69735  1.0000
  H   H658      1.0  0.02927  0.93718  0.85391  1.0000
  C   C531      1.0  0.29325  0.81031  0.62698  1.0000
  H   H659      1.0  0.99477  0.90396  0.69704  1.0000
  C   C532      1.0  0.24288  0.92760  0.78522  1.0000
  C   C533      1.0  0.04335  0.93740  0.80363  1.0000
  H   H660      1.0  0.01003  0.93412  0.63205  1.0000
  C   C534      1.0  0.00408  0.99413  0.70149  1.0000
  Fe  Fe79      1.0  0.96412  0.81109  0.67115  1.0000
  H   H661      1.0  0.02880  0.05882  0.73133  1.0000
  C   C535      1.0  0.28550  0.83632  0.74514  1.0000
  H   H662      1.0  0.97090  0.63088  0.71472  1.0000
  H   H663      1.0  0.19136  0.95569  0.65263  1.0000
  H   H664      1.0  0.28057  0.03805  0.71141  1.0000
  C   C536      1.0  0.14419  0.99492  0.83032  1.0000
  C   C537      1.0  0.09116  0.63480  0.80911  1.0000
  H   H665      1.0  0.30992  0.60868  0.85149  1.0000
  C   C538      1.0  0.33201  0.58796  0.69559  1.0000
  C   C539      1.0  0.18394  0.65598  0.75243  1.0000
  H   H666      1.0  0.17147  0.90136  0.66138  1.0000
  H   H667      1.0  0.42089  0.61495  0.83444  1.0000
  H   H668      1.0  0.07507  0.78937  0.70800  1.0000
  C   C540      1.0  0.32423  0.60106  0.80678  1.0000
  C   C541      1.0  0.17478  0.99100  0.81683  1.0000
  C   C542      1.0  0.38053  0.01395  0.73799  1.0000
  C   C543      1.0  0.28037  0.70050  0.69630  1.0000
  H   H669      1.0  0.41401  0.06047  0.64754  1.0000
  H   H670      1.0  0.23942  0.72595  0.85079  1.0000
  H   H671      1.0  0.33270  0.84852  0.70890  1.0000
  C   C544      1.0  0.30344  0.90098  0.84443  1.0000
  N   N35       1.0  0.01005  0.06560  0.83425  1.0000
  H   H672      1.0  0.32148  0.89536  0.80134  1.0000
  H   H673      1.0  0.03496  0.61548  0.82602  1.0000
  C   C545      1.0  0.36691  0.72491  0.78721  1.0000
  S   S157      1.0  0.44322  0.65221  0.70573  1.0000
  S   S158      1.0  0.99691  0.77503  0.66940  1.0000
  Fe  Fe80      1.0  0.39987  0.89920  0.69603  1.0000
  H   H674      1.0  0.33058  0.77380  0.78246  1.0000
  N   N36       1.0  0.35882  0.74079  0.73064  1.0000
  H   H675      1.0  0.98073  0.81797  0.85474  1.0000
  C   C546      1.0  0.31677  0.69897  0.75670  1.0000
  H   H676      1.0  0.07737  0.96782  0.81722  1.0000
  C   C547      1.0  0.29403  0.00121  0.65111  1.0000
  C   C548      1.0  0.07048  0.95456  0.78315  1.0000
  C   C549      1.0  0.01447  0.03256  0.85033  1.0000
  S   S159      1.0  0.14667  0.82080  0.73955  1.0000
  C   C550      1.0  0.31332  0.59765  0.75330  1.0000
  H   H677      1.0  0.31399  0.91041  0.70719  1.0000
  H   H678      1.0  0.40165  0.97865  0.64292  1.0000
  C   C551      1.0  0.36106  0.58012  0.69266  1.0000
  C   C552      1.0  0.30893  0.95528  0.80729  1.0000
  N   N37       1.0  0.28743  0.92828  0.83019  1.0000
  H   H679      1.0  0.44005  0.91363  0.76763  1.0000
  C   C553      1.0  0.29894  0.02486  0.68680  1.0000
  H   H680      1.0  0.20625  0.92313  0.74447  1.0000
  H   H681      1.0  0.18222  0.63890  0.71986  1.0000
  H   H682      1.0  0.27189  0.99595  0.64777  1.0000
  C   C554      1.0  0.29525  0.72690  0.65781  1.0000
  C   C555      1.0  0.39050  0.05491  0.64916  1.0000
  H   H683      1.0  0.36985  0.78383  0.76325  1.0000
  Fe  Fe81      1.0  0.96134  0.74200  0.66318  1.0000
  H   H684      1.0  0.22858  0.93625  0.82825  1.0000
  C   C556      1.0  0.27714  0.90605  0.66951  1.0000
  H   H685      1.0  0.29752  0.97623  0.79658  1.0000
  C   C557      1.0  0.98945  0.64356  0.67914  1.0000
  C   C558      1.0  0.37137  0.58197  0.74748  1.0000
  C   C559      1.0  0.22899  0.05643  0.65072  1.0000
  H   H686      1.0  0.32666  0.95172  0.76157  1.0000
  C   C560      1.0  0.09290  0.74819  0.66791  1.0000
  C   C561      1.0  0.98954  0.67564  0.67013  1.0000
  C   C562      1.0  0.04253  0.86911  0.66875  1.0000
  H   H687      1.0  0.26030  0.69099  0.68833  1.0000
  C   C563      1.0  0.05209  0.92050  0.69323  1.0000
  C   C564      1.0  0.32746  0.03161  0.69127  1.0000
  C   C565      1.0  0.26518  0.80927  0.67291  1.0000
  C   C566      1.0  0.01130  0.90939  0.64796  1.0000
  C   C567      1.0  0.32112  0.73927  0.66794  1.0000
  H   H688      1.0  0.05191  0.66515  0.70613  1.0000
  H   H689      1.0  0.32330  0.68729  0.79676  1.0000
  C   C568      1.0  0.35260  0.77291  0.74494  1.0000
  Fe  Fe82      1.0  0.19566  0.81461  0.72094  1.0000
  N   N38       1.0  0.04209  0.90232  0.64749  1.0000
  H   H690      1.0  0.23625  0.90255  0.64391  1.0000
  C   C569      1.0  0.20780  0.67636  0.82720  1.0000
  H   H691      1.0  0.03464  0.85448  0.63651  1.0000
  H   H692      1.0  0.21535  0.06339  0.77341  1.0000
  H   H693      1.0  0.13196  0.98490  0.80075  1.0000
  H   H694      1.0  0.38164  0.75510  0.62784  1.0000
  H   H695      1.0  0.14766  0.68116  0.73610  1.0000
  H   H696      1.0  0.32032  0.95985  0.84483  1.0000
  S   S160      1.0  0.37884  0.92447  0.78290  1.0000
  H   H697      1.0  0.99514  0.01769  0.84851  1.0000
  N   N39       1.0  0.07570  0.63533  0.75763  1.0000
  C   C570      1.0  0.05087  0.61150  0.77769  1.0000
  C   C571      1.0  0.29116  0.68658  0.74552  1.0000
  C   C572      1.0  0.06286  0.66519  0.74577  1.0000
  H   H698      1.0  0.99150  0.57578  0.80816  1.0000
  S   S161      1.0  0.19287  0.76618  0.69653  1.0000
  C   C573      1.0  0.35204  0.01468  0.66031  1.0000
  H   H699      1.0  0.22049  0.63560  0.77857  1.0000
  N   N40       1.0  0.38178  0.02160  0.66808  1.0000
  S   S162      1.0  0.40165  0.84836  0.68855  1.0000
  H   H700      1.0  0.33005  0.05023  0.71946  1.0000
  C   C574      1.0  0.10656  0.60862  0.82239  1.0000
  H   H701      1.0  0.35197  0.78795  0.70058  1.0000
  H   H702      1.0  0.24688  0.79788  0.66236  1.0000
  H   H703      1.0  0.36080  0.59402  0.84695  1.0000
  H   H704      1.0  0.01170  0.60302  0.64645  1.0000
  H   H705      1.0  0.22998  0.03633  0.68607  1.0000
  H   H706      1.0  0.33181  0.75986  0.63700  1.0000
  H   H707      1.0  0.01016  0.79343  0.85840  1.0000
  C   C575      1.0  0.40560  0.00391  0.62754  1.0000
  S   S163      1.0  0.44647  0.90986  0.63069  1.0000
  H   H708      1.0  0.29037  0.89698  0.62531  1.0000
  C   C576      1.0  0.96842  0.57649  0.80848  1.0000
  C   C577      1.0  0.96281  0.75896  0.85483  1.0000
  C   C578      1.0  0.19113  0.00513  0.85245  1.0000
  C   C579      1.0  0.34630  0.99082  0.62382  1.0000
  S   S164      1.0  0.30257  0.03436  0.86472  1.0000
  H   H709      1.0  0.20683  0.87819  0.85909  1.0000
  H   H710      1.0  0.15527  0.68155  0.61906  1.0000
  H   H711      1.0  0.28771  0.88042  0.86231  1.0000
  H   H712      1.0  0.09512  0.93889  0.62553  1.0000
  H   H713      1.0  0.28642  0.73813  0.62051  1.0000
  H   H714      1.0  0.01455  0.71697  0.61721  1.0000
  S   S165      1.0  0.76521  0.54321  0.01541  1.0000
  C   C580      1.0  0.48735  0.30151  0.96615  1.0000
  C   C581      1.0  0.62138  0.42030  0.05306  1.0000
  C   C582      1.0  0.46958  0.55864  0.09766  1.0000
  C   C583      1.0  0.52134  0.34529  0.95802  1.0000
  C   C584      1.0  0.63699  0.37193  0.00420  1.0000
  H   H715      1.0  0.92017  0.56539  0.99051  1.0000
  H   H716      1.0  0.77950  0.44374  0.03636  1.0000
  C   C585      1.0  0.49283  0.16604  0.96304  1.0000
  C   C586      1.0  0.52503  0.53868  0.02932  1.0000
  C   C587      1.0  0.52142  0.18013  0.94183  1.0000
  H   H717      1.0  0.50913  0.22792  0.06914  1.0000
  H   H718      1.0  0.63119  0.08922  0.87641  1.0000
  C   C588      1.0  0.50025  0.51782  0.05233  1.0000
  H   H719      1.0  0.57523  0.32462  0.02040  1.0000
  S   S166      1.0  0.62705  0.15447  0.04442  1.0000
  C   C589      1.0  0.75674  0.10223  0.95228  1.0000
  H   H720      1.0  0.64308  0.42296  0.92077  1.0000
  S   S167      1.0  0.57489  0.19700  0.95453  1.0000
  C   C590      1.0  0.88592  0.25944  0.88082  1.0000
  H   H721      1.0  0.58845  0.37556  0.03999  1.0000
  H   H722      1.0  0.73540  0.11244  0.11492  1.0000
  S   S168      1.0  0.93050  0.36354  0.05037  1.0000
  C   C591      1.0  0.90233  0.40514  0.93573  1.0000
  N   N41       1.0  0.64632  0.40330  0.01439  1.0000
  S   S169      1.0  0.87575  0.29622  0.06540  1.0000
  C   C592      1.0  0.49854  0.32428  0.99583  1.0000
  H   H723      1.0  0.67519  0.42490  0.06223  1.0000
  S   S170      1.0  0.55942  0.52643  0.98468  1.0000
  C   C593      1.0  0.66894  0.40178  0.05061  1.0000
  H   H724      1.0  0.80497  0.14043  0.01257  1.0000
  S   S171      1.0  0.70857  0.17639  0.94247  1.0000
  H   H725      1.0  0.78927  0.40612  0.05643  1.0000
  Fe  Fe83      1.0  0.80543  0.56069  0.04092  1.0000
  H   H726      1.0  0.52890  0.19345  0.89407  1.0000
  C   C594      1.0  0.55474  0.07740  0.93510  1.0000
  H   H727      1.0  0.93873  0.13847  0.88809  1.0000
  S   S172      1.0  0.90282  0.23728  0.93142  1.0000
  C   C595      1.0  0.92907  0.09808  0.95824  1.0000
  C   C596      1.0  0.68899  0.28917  0.06449  1.0000
  C   C597      1.0  0.82967  0.44487  0.07315  1.0000
  H   H728      1.0  0.56030  0.27886  0.87370  1.0000
  H   H729      1.0  0.47529  0.49773  0.91344  1.0000
  C   C598      1.0  0.94625  0.11637  0.90236  1.0000
  Fe  Fe84      1.0  0.86575  0.54123  0.04710  1.0000
  H   H730      1.0  0.47851  0.16894  0.93180  1.0000
  C   C599      1.0  0.50008  0.07675  0.96982  1.0000
  C   C600      1.0  0.53976  0.17781  0.98275  1.0000
  C   C601      1.0  0.60660  0.36147  0.01917  1.0000
  Fe  Fe85      1.0  0.76703  0.35680  0.93048  1.0000
  C   C602      1.0  0.77402  0.52095  0.94889  1.0000
  S   S173      1.0  0.94486  0.27427  0.03529  1.0000
  H   H731      1.0  0.73886  0.48624  0.99598  1.0000
  H   H732      1.0  0.77509  0.23809  0.91944  1.0000
  C   C603      1.0  0.95557  0.49871  0.96968  1.0000
  S   S174      1.0  0.51219  0.45435  0.95060  1.0000
  C   C604      1.0  0.65855  0.35121  0.97563  1.0000
  C   C605      1.0  0.79947  0.16213  0.99130  1.0000
  H   H733      1.0  0.69005  0.39249  0.02250  1.0000
  C   C606      1.0  0.93809  0.55009  0.97972  1.0000
  H   H734      1.0  0.46903  0.28616  0.99538  1.0000
  C   C607      1.0  0.52783  0.09179  0.93730  1.0000
  H   H735      1.0  0.49433  0.41909  0.10398  1.0000
  C   C608      1.0  0.71705  0.30487  0.04302  1.0000
  C   C609      1.0  0.86436  0.36442  0.95324  1.0000
  S   S175      1.0  0.85089  0.56757  0.96877  1.0000
  H   H736      1.0  0.73457  0.29655  0.00449  1.0000
  C   C610      1.0  0.94654  0.16696  0.06946  1.0000
  H   H737      1.0  0.52856  0.08637  0.08665  1.0000
  H   H738      1.0  0.83979  0.09720  0.03016  1.0000
  C   C611      1.0  0.72246  0.14012  0.04002  1.0000
  Fe  Fe86      1.0  0.91873  0.31312  0.07919  1.0000
  H   H739      1.0  0.76990  0.08754  0.91834  1.0000
  H   H740      1.0  0.54723  0.23520  0.06444  1.0000
  H   H741      1.0  0.75420  0.45170  0.90847  1.0000
  H   H742      1.0  0.60452  0.42493  0.02666  1.0000
  H   H743      1.0  0.60917  0.07468  0.95809  1.0000
  Fe  Fe87      1.0  0.66711  0.18763  0.01762  1.0000
  C   C612      1.0  0.93219  0.51822  0.98749  1.0000
  C   C613      1.0  0.86198  0.27738  0.90714  1.0000
  H   H744      1.0  0.65638  0.07894  0.06221  1.0000
  H   H745      1.0  0.60994  0.40707  0.10160  1.0000
  H   H746      1.0  0.59426  0.29779  0.87506  1.0000
  H   H747      1.0  0.50250  0.49385  0.04545  1.0000
  C   C614      1.0  0.62864  0.54318  0.03616  1.0000
  H   H748      1.0  0.70233  0.54810  0.02032  1.0000
  C   C615      1.0  0.52495  0.24494  0.07845  1.0000
  C   C616      1.0  0.88048  0.42562  0.95992  1.0000
  H   H749      1.0  0.94037  0.19131  0.06600  1.0000
  N   N42       1.0  0.58374  0.09259  0.89510  1.0000
  H   H750      1.0  0.87017  0.37981  0.08968  1.0000
  H   H751      1.0  0.88808  0.44868  0.96378  1.0000
  C   C617      1.0  0.75768  0.49312  0.95327  1.0000
  H   H752      1.0  0.92573  0.41266  0.92182  1.0000
  C   C618      1.0  0.49952  0.29913  0.89890  1.0000
  C   C619      1.0  0.79805  0.52989  0.89295  1.0000
  H   H753      1.0  0.91129  0.35858  0.91515  1.0000
  S   S176      1.0  0.89565  0.50269  0.02077  1.0000
  C   C620      1.0  0.83177  0.46715  0.96462  1.0000
  H   H754      1.0  0.52580  0.26566  0.04316  1.0000
  S   S177      1.0  0.74173  0.39089  0.88701  1.0000
  H   H755      1.0  0.95101  0.47410  0.97438  1.0000
  H   H756      1.0  0.68996  0.08796  0.96305  1.0000
  C   C621      1.0  0.52990  0.16034  0.04433  1.0000
  Fe  Fe88      1.0  0.90124  0.25611  0.02641  1.0000
  H   H757      1.0  0.81016  0.55184  0.88827  1.0000
  H   H758      1.0  0.77789  0.17755  0.08512  1.0000
  C   C622      1.0  0.66602  0.30027  0.11318  1.0000
  H   H759      1.0  0.81831  0.36236  0.10628  1.0000
  N   N43       1.0  0.82698  0.43796  0.00862  1.0000
  S   S178      1.0  0.58406  0.45036  0.91435  1.0000
  C   C623      1.0  0.47255  0.52776  0.08636  1.0000
  H   H760      1.0  0.85238  0.45399  0.06922  1.0000
  H   H761      1.0  0.47287  0.39737  0.03739  1.0000
  Fe  Fe89      1.0  0.60318  0.19553  0.02185  1.0000
  H   H762      1.0  0.90845  0.10612  0.98824  1.0000
  H   H763      1.0  0.63552  0.52092  0.89553  1.0000
  H   H764      1.0  0.57158  0.14004  0.89255  1.0000
  S   S179      1.0  0.75642  0.35246  0.03996  1.0000
  H   H765      1.0  0.58165  0.12574  0.96465  1.0000
  H   H766      1.0  0.47989  0.08825  0.97044  1.0000
  S   S180      1.0  0.64346  0.22799  0.98970  1.0000
  H   H767      1.0  0.66150  0.50988  0.03570  1.0000
  C   C624      1.0  0.53331  0.34331  0.89052  1.0000
  C   C625      1.0  0.79586  0.42620  0.01846  1.0000
  Fe  Fe90      1.0  0.55199  0.48757  0.92845  1.0000
  H   H768      1.0  0.81967  0.37518  0.99363  1.0000
  H   H769      1.0  0.83208  0.46268  0.91403  1.0000
  C   C626      1.0  0.50109  0.14592  0.06545  1.0000
  C   C627      1.0  0.68052  0.55630  0.02334  1.0000
  H   H770      1.0  0.85307  0.27726  0.95985  1.0000
  C   C628      1.0  0.84969  0.41616  0.98084  1.0000
  C   C629      1.0  0.58659  0.12471  0.91069  1.0000
  H   H771      1.0  0.74438  0.13033  0.87716  1.0000
  H   H772      1.0  0.81397  0.48319  0.98271  1.0000
  H   H773      1.0  0.68206  0.35768  0.96056  1.0000
  H   H774      1.0  0.89263  0.50786  0.87925  1.0000
  H   H775      1.0  0.82453  0.42403  0.10950  1.0000
  Fe  Fe91      1.0  0.63274  0.23702  0.09497  1.0000
  H   H776      1.0  0.70948  0.15488  0.07399  1.0000
  C   C630      1.0  0.84234  0.38474  0.97750  1.0000
  C   C631      1.0  0.72560  0.14568  0.97270  1.0000
  Fe  Fe92      1.0  0.54468  0.41792  0.92743  1.0000
  C   C632      1.0  0.79852  0.19607  0.89360  1.0000
  H   H777      1.0  0.66021  0.38693  0.09812  1.0000
  C   C633      1.0  0.78282  0.21688  0.93693  1.0000
  H   H778      1.0  0.94431  0.19285  0.95881  1.0000
  C   C634      1.0  0.72236  0.33116  0.07143  1.0000
  H   H779      1.0  0.68491  0.26902  0.04189  1.0000
  H   H780      1.0  0.62919  0.44308  0.06328  1.0000
  H   H781      1.0  0.67906  0.41045  0.91865  1.0000
  C   C635      1.0  0.78420  0.18301  0.03228  1.0000
  H   H782      1.0  0.83405  0.08539  0.92389  1.0000
  C   C636      1.0  0.48245  0.14930  0.02498  1.0000
  C   C637      1.0  0.80624  0.16828  0.92303  1.0000
  H   H783      1.0  0.79261  0.41962  0.97179  1.0000
  C   C638      1.0  0.65946  0.42132  0.94936  1.0000
  H   H784      1.0  0.49272  0.13355  0.11407  1.0000
  H   H785      1.0  0.66726  0.30609  0.94455  1.0000
  C   C639      1.0  0.75424  0.09712  0.01925  1.0000
  H   H786      1.0  0.81670  0.15058  0.89354  1.0000
  C   C640      1.0  0.62034  0.31178  0.98236  1.0000
  H   H787      1.0  0.93163  0.15261  0.05043  1.0000
  H   H788      1.0  0.52799  0.11449  0.91223  1.0000
  H   H789      1.0  0.54411  0.15866  0.07611  1.0000
  C   C641      1.0  0.60975  0.07663  0.90539  1.0000
  C   C642      1.0  0.74260  0.12663  0.92895  1.0000
  H   H790      1.0  0.85822  0.34048  0.95155  1.0000
  C   C643      1.0  0.59857  0.33187  0.00819  1.0000
  H   H791      1.0  0.81426  0.46260  0.09409  1.0000
  C   C644      1.0  0.73722  0.11614  0.06314  1.0000
  H   H792      1.0  0.48907  0.32604  0.04781  1.0000
  H   H793      1.0  0.85260  0.48022  0.96235  1.0000
  C   C645      1.0  0.65726  0.53417  0.03187  1.0000
  C   C646      1.0  0.89426  0.37460  0.93222  1.0000
  S   S181      1.0  0.53383  0.37445  0.99563  1.0000
  C   C647      1.0  0.77586  0.21029  0.00524  1.0000
  H   H794      1.0  0.61061  0.52602  0.04243  1.0000
  H   H795      1.0  0.76335  0.22613  0.03741  1.0000
  H   H796      1.0  0.61408  0.28856  0.97587  1.0000
  C   C648      1.0  0.65026  0.32156  0.96541  1.0000
  C   C649      1.0  0.76643  0.47342  0.90378  1.0000
  H   H797      1.0  0.58458  0.25865  0.91043  1.0000
  H   H798      1.0  0.66697  0.44512  0.95425  1.0000
  H   H799      1.0  0.72188  0.49733  0.10833  1.0000
  H   H800      1.0  0.82988  0.30791  0.88573  1.0000
  C   C650      1.0  0.84711  0.07567  0.01140  1.0000
  H   H801      1.0  0.71463  0.06926  0.90068  1.0000
  S   S182      1.0  0.76224  0.32011  0.86717  1.0000
  H   H802      1.0  0.92969  0.47176  0.11337  1.0000
  H   H803      1.0  0.46861  0.37028  0.10903  1.0000
  H   H804      1.0  0.53878  0.29752  0.11458  1.0000
  C   C651      1.0  0.58413  0.27548  0.86843  1.0000
  H   H805      1.0  0.60936  0.13563  0.88670  1.0000
  C   C652      1.0  0.93842  0.06937  0.97530  1.0000
  C   C653      1.0  0.49318  0.56611  0.87731  1.0000
  H   H806      1.0  0.67625  0.07024  0.90416  1.0000
  S   S183      1.0  0.61125  0.44380  0.35061  1.0000
  C   C654      1.0  0.76205  0.32050  0.28510  1.0000
  H   H807      1.0  0.84601  0.22257  0.34154  1.0000
  H   H808      1.0  0.76960  0.37201  0.15249  1.0000
  H   H809      1.0  0.46420  0.40427  0.33076  1.0000
  S   S184      1.0  0.88883  0.22800  0.12474  1.0000
  C   C655      1.0  0.89208  0.06958  0.19155  1.0000
  C   C656      1.0  0.73774  0.50051  0.32186  1.0000
  H   H810      1.0  0.63926  0.23846  0.22797  1.0000
  H   H811      1.0  0.84182  0.47789  0.29970  1.0000
  H   H812      1.0  0.65986  0.52624  0.32364  1.0000
  Fe  Fe93      1.0  0.93010  0.24980  0.13737  1.0000
  H   H813      1.0  0.53384  0.54085  0.31716  1.0000
  H   H814      1.0  0.47876  0.26999  0.21592  1.0000
  S   S185      1.0  0.62248  0.39153  0.24519  1.0000
  C   C657      1.0  0.47350  0.38779  0.29730  1.0000
  H   H815      1.0  0.71071  0.54919  0.28829  1.0000
  C   C658      1.0  0.47801  0.55319  0.24938  1.0000
  H   H816      1.0  0.58754  0.52408  0.28331  1.0000
  C   C659      1.0  0.62776  0.22601  0.27692  1.0000
  C   C660      1.0  0.88601  0.55094  0.36073  1.0000
  H   H817      1.0  0.49799  0.52110  0.33492  1.0000
  C   C661      1.0  0.65593  0.56041  0.21909  1.0000
  C   C662      1.0  0.88809  0.16305  0.28879  1.0000
  H   H818      1.0  0.48549  0.14996  0.22966  1.0000
  C   C663      1.0  0.92269  0.07686  0.16635  1.0000
  C   C664      1.0  0.91552  0.38079  0.34118  1.0000
  H   H819      1.0  0.86350  0.29117  0.31817  1.0000
  H   H820      1.0  0.77298  0.29990  0.29928  1.0000
  S   S186      1.0  0.66014  0.19953  0.12088  1.0000
  S   S187      1.0  0.79769  0.11741  0.16206  1.0000
  H   H821      1.0  0.54438  0.19525  0.31618  1.0000
  H   H822      1.0  0.61933  0.20333  0.26756  1.0000
  H   H823      1.0  0.46090  0.53963  0.29040  1.0000
  C   C665      1.0  0.72247  0.47952  0.14660  1.0000
  S   S188      1.0  0.80615  0.39246  0.36151  1.0000
  H   H824      1.0  0.72431  0.41706  0.28638  1.0000
  S   S189      1.0  0.57937  0.44854  0.23212  1.0000
  H   H825      1.0  0.47961  0.47932  0.25432  1.0000
  Fe  Fe94      1.0  0.82024  0.08757  0.22197  1.0000
  C   C666      1.0  0.75483  0.20852  0.32696  1.0000
  H   H826      1.0  0.91322  0.30593  0.32684  1.0000
  H   H827      1.0  0.62197  0.51161  0.35508  1.0000
  H   H828      1.0  0.89766  0.51122  0.14692  1.0000
  Fe  Fe95      1.0  0.77888  0.42994  0.33566  1.0000
  C   C667      1.0  0.47816  0.42968  0.14148  1.0000
  S   S190      1.0  0.86806  0.09920  0.21477  1.0000
  C   C668      1.0  0.61029  0.08441  0.28536  1.0000
  H   H829      1.0  0.88895  0.13830  0.30592  1.0000
  H   H830      1.0  0.73882  0.31254  0.28973  1.0000
  C   C669      1.0  0.49877  0.19733  0.19126  1.0000
  C   C670      1.0  0.65278  0.28135  0.30574  1.0000
  H   H831      1.0  0.60785  0.23852  0.30081  1.0000
  Fe  Fe96      1.0  0.77605  0.07383  0.14662  1.0000
  H   H832      1.0  0.89285  0.52365  0.22601  1.0000
  C   C671      1.0  0.53149  0.22319  0.24129  1.0000
  H   H833      1.0  0.83239  0.13824  0.35803  1.0000
  H   H834      1.0  0.76096  0.33726  0.32151  1.0000
  H   H835      1.0  0.89265  0.37241  0.18079  1.0000
  C   C672      1.0  0.67398  0.20598  0.28276  1.0000
  Fe  Fe97      1.0  0.86696  0.26975  0.16500  1.0000
  H   H836      1.0  0.87189  0.42953  0.21123  1.0000
  S   S191      1.0  0.73668  0.07398  0.23521  1.0000
  H   H837      1.0  0.74018  0.47883  0.35094  1.0000
  H   H838      1.0  0.77287  0.24876  0.35634  1.0000
  H   H839      1.0  0.93129  0.10010  0.16577  1.0000
  H   H840      1.0  0.87271  0.48791  0.32726  1.0000
  Fe  Fe98      1.0  0.62520  0.44290  0.24076  1.0000
  H   H841      1.0  0.66984  0.10782  0.32774  1.0000
  C   C673      1.0  0.53154  0.19595  0.28132  1.0000
  H   H842      1.0  0.53157  0.28641  0.20030  1.0000
  H   H843      1.0  0.88497  0.16382  0.23893  1.0000
  C   C674      1.0  0.46746  0.34346  0.24165  1.0000
  H   H844      1.0  0.64575  0.50099  0.27890  1.0000
  H   H845      1.0  0.58972  0.08487  0.32432  1.0000
  H   H846      1.0  0.49115  0.31148  0.34882  1.0000
  H   H847      1.0  0.75294  0.30451  0.17573  1.0000
  S   S192      1.0  0.73380  0.15621  0.29040  1.0000
  C   C675      1.0  0.51592  0.53473  0.29554  1.0000
  C   C676      1.0  0.53694  0.08280  0.24016  1.0000
  H   H848      1.0  0.86266  0.34759  0.28959  1.0000
  N   N44       1.0  0.72478  0.52442  0.36487  1.0000
  H   H849      1.0  0.73727  0.35564  0.21397  1.0000
  H   H850      1.0  0.67676  0.42733  0.26312  1.0000
  S   S193      1.0  0.82621  0.26830  0.25215  1.0000
  C   C677      1.0  0.82296  0.34092  0.26027  1.0000
  C   C678      1.0  0.72395  0.43459  0.24765  1.0000
  Fe  Fe99      1.0  0.61775  0.17014  0.14530  1.0000
  S   S194      1.0  0.59026  0.20815  0.12450  1.0000
  H   H851      1.0  0.51771  0.40920  0.27077  1.0000
  H   H852      1.0  0.51589  0.14849  0.30705  1.0000
  H   H853      1.0  0.76049  0.50790  0.28878  1.0000
  H   H854      1.0  0.60083  0.55315  0.21276  1.0000
  N   N45       1.0  0.63007  0.54689  0.27376  1.0000
  C   C679      1.0  0.66466  0.08443  0.18739  1.0000
  H   H855      1.0  0.86384  0.44820  0.32087  1.0000
  Fe  Fe100     1.0  0.57549  0.39713  0.24399  1.0000
  H   H856      1.0  0.88241  0.45655  0.13863  1.0000
  H   H857      1.0  0.48547  0.28563  0.13178  1.0000
  H   H858      1.0  0.86978  0.54671  0.33304  1.0000
  H   H859      1.0  0.52482  0.51870  0.25789  1.0000
  H   H860      1.0  0.54949  0.09531  0.26551  1.0000
  H   H861      1.0  0.66695  0.18376  0.26846  1.0000
  C   C680      1.0  0.80438  0.21695  0.21463  1.0000
  C   C681      1.0  0.95625  0.45388  0.26743  1.0000
  C   C682      1.0  0.51602  0.36993  0.21784  1.0000
  N   N46       1.0  0.50474  0.56258  0.26787  1.0000
  H   H862      1.0  0.86091  0.51347  0.20115  1.0000
  S   S195      1.0  0.55453  0.37048  0.18295  1.0000
  C   C683      1.0  0.85264  0.35100  0.24996  1.0000
  H   H863      1.0  0.68919  0.20046  0.31299  1.0000
  H   H864      1.0  0.86193  0.21312  0.26027  1.0000
  Fe  Fe101     1.0  0.56485  0.44532  0.34242  1.0000
  S   S196      1.0  0.59864  0.14162  0.24172  1.0000
  C   C684      1.0  0.85678  0.36927  0.13758  1.0000
  H   H865      1.0  0.83380  0.16142  0.28346  1.0000
  C   C685      1.0  0.47061  0.46434  0.22625  1.0000
  C   C686      1.0  0.78375  0.19210  0.22349  1.0000
  C   C687      1.0  0.51588  0.22438  0.19317  1.0000
  H   H866      1.0  0.46923  0.24759  0.15807  1.0000
  H   H867      1.0  0.74766  0.56000  0.28838  1.0000
  C   C688      1.0  0.86449  0.21044  0.31045  1.0000
  C   C689      1.0  0.72480  0.55276  0.32083  1.0000
  H   H868      1.0  0.81526  0.17443  0.36013  1.0000
  H   H869      1.0  0.54461  0.24267  0.24784  1.0000
  N   N47       1.0  0.51639  0.25236  0.14778  1.0000
  S   S197      1.0  0.66274  0.47119  0.16754  1.0000
  Fe  Fe102     1.0  0.60466  0.39250  0.35455  1.0000
  N   N48       1.0  0.64815  0.22261  0.31835  1.0000
  H   H870      1.0  0.82312  0.22039  0.17058  1.0000
  H   H871      1.0  0.72377  0.49536  0.28978  1.0000
  C   C690      1.0  0.87098  0.45399  0.19230  1.0000
  H   H872      1.0  0.66590  0.54295  0.18545  1.0000
  H   H873      1.0  0.76932  0.48727  0.13144  1.0000
  C   C691      1.0  0.65898  0.25236  0.33368  1.0000
  H   H874      1.0  0.94699  0.53129  0.30079  1.0000
  N   N49       1.0  0.86368  0.17760  0.33541  1.0000
  C   C692      1.0  0.60758  0.53475  0.24442  1.0000
  C   C693      1.0  0.53780  0.27740  0.15136  1.0000
  H   H875      1.0  0.78790  0.29084  0.18122  1.0000
  C   C694      1.0  0.48965  0.45006  0.17603  1.0000
  H   H876      1.0  0.48526  0.19679  0.15807  1.0000
  H   H877      1.0  0.56998  0.28488  0.32576  1.0000
  C   C695      1.0  0.51553  0.16952  0.27615  1.0000
  C   C696      1.0  0.63978  0.52034  0.30940  1.0000
  C   C697      1.0  0.50381  0.39081  0.26255  1.0000
  C   C698      1.0  0.66300  0.30896  0.32222  1.0000
  H   H878      1.0  0.91732  0.36788  0.29951  1.0000
  H   H879      1.0  0.91014  0.17514  0.28154  1.0000
  H   H880      1.0  0.59388  0.33523  0.33066  1.0000
  S   S198      1.0  0.90775  0.29025  0.18223  1.0000
  S   S199      1.0  0.55733  0.39404  0.35351  1.0000
  C   C699      1.0  0.94485  0.54472  0.25736  1.0000
  C   C700      1.0  0.93610  0.46642  0.15768  1.0000
  C   C701      1.0  0.88390  0.50716  0.19919  1.0000
  C   C702      1.0  0.64802  0.11055  0.19141  1.0000
  H   H881      1.0  0.61659  0.51667  0.21170  1.0000
  H   H882      1.0  0.50677  0.33210  0.16827  1.0000
  H   H883      1.0  0.81134  0.32971  0.30868  1.0000
  H   H884      1.0  0.70375  0.36193  0.14400  1.0000
  H   H885      1.0  0.51355  0.45418  0.16462  1.0000
  C   C703      1.0  0.48623  0.26438  0.16409  1.0000
  C   C704      1.0  0.83511  0.16236  0.33453  1.0000
  H   H886      1.0  0.55482  0.11398  0.15199  1.0000
  N   N50       1.0  0.77790  0.33473  0.21770  1.0000
  N   N51       1.0  0.88445  0.47503  0.22785  1.0000
  H   H887      1.0  0.50399  0.34846  0.36258  1.0000
  C   C705      1.0  0.77636  0.31181  0.17155  1.0000
  C   C706      1.0  0.49759  0.34717  0.20516  1.0000
  C   C707      1.0  0.77577  0.23317  0.31874  1.0000
  H   H888      1.0  0.63963  0.28342  0.27179  1.0000
  H   H889      1.0  0.86989  0.39151  0.35245  1.0000
  H   H890      1.0  0.76353  0.38017  0.23576  1.0000
  C   C708      1.0  0.54045  0.09356  0.17442  1.0000
  H   H891      1.0  0.68573  0.08441  0.14966  1.0000
  C   C709      1.0  0.86501  0.47212  0.29698  1.0000
  H   H892      1.0  0.65724  0.33078  0.30186  1.0000
  H   H893      1.0  0.60535  0.07497  0.13452  1.0000
  S   S200      1.0  0.78393  0.08946  0.31631  1.0000
  C   C710      1.0  0.80933  0.34468  0.20891  1.0000
  C   C711      1.0  0.91562  0.46749  0.22111  1.0000
  H   H894      1.0  0.65634  0.13067  0.15658  1.0000
  H   H895      1.0  0.91304  0.46181  0.32618  1.0000
  C   C712      1.0  0.76140  0.36180  0.20437  1.0000
  H   H896      1.0  0.78670  0.17665  0.18624  1.0000
  C   C713      1.0  0.69628  0.46289  0.18369  1.0000
  H   H897      1.0  0.65367  0.33464  0.18040  1.0000
  C   C714      1.0  0.52579  0.07803  0.13765  1.0000
  H   H898      1.0  0.48350  0.53821  0.20873  1.0000
  H   H899      1.0  0.68744  0.22004  0.23689  1.0000
  C   C715      1.0  0.75021  0.45145  0.21072  1.0000
  C   C716      1.0  0.49873  0.17033  0.23207  1.0000
  C   C717      1.0  0.62065  0.11028  0.23990  1.0000
  C   C718      1.0  0.92672  0.46136  0.27602  1.0000
  C   C719      1.0  0.86951  0.36510  0.18879  1.0000
  C   C720      1.0  0.74941  0.47367  0.15969  1.0000
  H   H900      1.0  0.53307  0.55817  0.16951  1.0000
  H   H901      1.0  0.84724  0.45847  0.19794  1.0000
  S   S201      1.0  0.78374  0.44687  0.23033  1.0000
  Fe  Fe103     1.0  0.75974  0.11586  0.25465  1.0000
  H   H902      1.0  0.88586  0.22277  0.30848  1.0000
  S   S202      1.0  0.95491  0.22055  0.19264  1.0000
  C   C721      1.0  0.75902  0.18782  0.27944  1.0000
  C   C722      1.0  0.80047  0.23736  0.26240  1.0000
  C   C723      1.0  0.69698  0.44032  0.23422  1.0000
  H   H903      1.0  0.56094  0.26964  0.14095  1.0000
  C   C724      1.0  0.82721  0.35913  0.14732  1.0000
  H   H904      1.0  0.94144  0.15968  0.12325  1.0000
  C   C725      1.0  0.67150  0.32614  0.14273  1.0000
  S   S203      1.0  0.63032  0.28230  0.13597  1.0000
  C   C726      1.0  0.69982  0.34140  0.12242  1.0000
  H   H905      1.0  0.89726  0.52935  0.36643  1.0000
  H   H906      1.0  0.78696  0.32078  0.11934  1.0000
  C   C727      1.0  0.93995  0.38413  0.36557  1.0000
  C   C728      1.0  0.86811  0.28679  0.36478  1.0000
  C   C729      1.0  0.67960  0.30864  0.36658  1.0000
  S   S204      1.0  0.82010  0.53175  0.11702  1.0000
  C   C730      1.0  0.63633  0.49978  0.49554  1.0000
  H   H907      1.0  0.52101  0.29680  0.53103  1.0000
  C   C731      1.0  0.53458  0.50426  0.43662  1.0000
  H   H908      1.0  0.89820  0.48054  0.45377  1.0000
  H   H909      1.0  0.62346  0.21360  0.51423  1.0000
  C   C732      1.0  0.69343  0.11102  0.42709  1.0000
  C   C733      1.0  0.74897  0.25052  0.56698  1.0000
  H   H910      1.0  0.63748  0.54583  0.52254  1.0000
  Fe  Fe104     1.0  0.76431  0.37427  0.43900  1.0000
  H   H911      1.0  0.45996  0.44201  0.57300  1.0000
  C   C734      1.0  0.88274  0.08751  0.43891  1.0000
  H   H912      1.0  0.70000  0.10160  0.47039  1.0000
  Fe  Fe105     1.0  0.76642  0.12897  0.54899  1.0000
  C   C735      1.0  0.83031  0.09571  0.48584  1.0000
  S   S205      1.0  0.74319  0.32693  0.45388  1.0000
  H   H913      1.0  0.61344  0.21626  0.41033  1.0000
  C   C736      1.0  0.89199  0.16579  0.41938  1.0000
  C   C737      1.0  0.64340  0.18604  0.57711  1.0000
  H   H914      1.0  0.49982  0.56567  0.50524  1.0000
  H   H915      1.0  0.53540  0.08377  0.37170  1.0000
  C   C738      1.0  0.71748  0.49236  0.56974  1.0000
  H   H916      1.0  0.64962  0.11048  0.53601  1.0000
  Fe  Fe106     1.0  0.48510  0.15240  0.58642  1.0000
  C   C739      1.0  0.69431  0.51566  0.40860  1.0000
  C   C740      1.0  0.53443  0.33896  0.55773  1.0000
  H   H917      1.0  0.64887  0.36799  0.52415  1.0000
  H   H918      1.0  0.91071  0.42979  0.48505  1.0000
  H   H919      1.0  0.73731  0.54893  0.43726  1.0000
  C   C741      1.0  0.90299  0.51834  0.50787  1.0000
  C   C742      1.0  0.74085  0.27178  0.52361  1.0000
  H   H920      1.0  0.72404  0.26501  0.50158  1.0000
  C   C743      1.0  0.74687  0.50010  0.56760  1.0000
  C   C744      1.0  0.56146  0.50818  0.45121  1.0000
  C   C745      1.0  0.68697  0.28070  0.39288  1.0000
  C   C746      1.0  0.94026  0.47103  0.59981  1.0000
  C   C747      1.0  0.58986  0.31771  0.37192  1.0000
  S   S206      1.0  0.92259  0.08453  0.51000  1.0000
  H   H921      1.0  0.68802  0.36269  0.48821  1.0000
  H   H922      1.0  0.47113  0.27109  0.44250  1.0000
  C   C748      1.0  0.85421  0.09037  0.43177  1.0000
  H   H923      1.0  0.70052  0.28061  0.42608  1.0000
  S   S207      1.0  0.53351  0.16548  0.56331  1.0000
  H   H924      1.0  0.91117  0.15860  0.38321  1.0000
  H   H925      1.0  0.50616  0.27423  0.45678  1.0000
  C   C749      1.0  0.83469  0.09670  0.54756  1.0000
  H   H926      1.0  0.60036  0.30436  0.52283  1.0000
  H   H927      1.0  0.76395  0.48392  0.55301  1.0000
  H   H928      1.0  0.64184  0.45504  0.46151  1.0000
  H   H929      1.0  0.91905  0.25081  0.59315  1.0000
  H   H930      1.0  0.73763  0.22821  0.57870  1.0000
  H   H931      1.0  0.52532  0.31622  0.36973  1.0000
  H   H932      1.0  0.46258  0.55421  0.38856  1.0000
  H   H933      1.0  0.95243  0.47711  0.40437  1.0000
  H   H934      1.0  0.94646  0.49489  0.60131  1.0000
  H   H935      1.0  0.45772  0.15609  0.36931  1.0000
  C   C750      1.0  0.89608  0.29508  0.36974  1.0000
  H   H936      1.0  0.47275  0.27784  0.52311  1.0000
  C   C751      1.0  0.78425  0.28823  0.58203  1.0000
  C   C752      1.0  0.51692  0.54963  0.49064  1.0000
  N   N52       1.0  0.66206  0.10175  0.43384  1.0000
  C   C753      1.0  0.56585  0.53272  0.48614  1.0000
  H   H937      1.0  0.67560  0.39742  0.52380  1.0000
  H   H938      1.0  0.90925  0.31740  0.53280  1.0000
  H   H939      1.0  0.78601  0.33304  0.52820  1.0000
  S   S208      1.0  0.73667  0.40949  0.40703  1.0000
  H   H940      1.0  0.64460  0.14156  0.48153  1.0000
  C   C754      1.0  0.61987  0.20039  0.56139  1.0000
  H   H941      1.0  0.61896  0.10869  0.50055  1.0000
  C   C755      1.0  0.51652  0.38535  0.51610  1.0000
  S   S209      1.0  0.85523  0.43103  0.45915  1.0000
  Fe  Fe107     1.0  0.71237  0.16883  0.56466  1.0000
  C   C756      1.0  0.65947  0.30661  0.55987  1.0000
  C   C757      1.0  0.45832  0.46731  0.56577  1.0000
  H   H942      1.0  0.67277  0.50704  0.59131  1.0000
  H   H943      1.0  0.82421  0.26681  0.41560  1.0000
  H   H944      1.0  0.57357  0.20937  0.59478  1.0000
  C   C758      1.0  0.59373  0.30017  0.47990  1.0000
  Fe  Fe108     1.0  0.84733  0.56213  0.57657  1.0000
  Fe  Fe109     1.0  0.81248  0.42171  0.43720  1.0000
  H   H945      1.0  0.85693  0.23207  0.59377  1.0000
  C   C759      1.0  0.84610  0.27293  0.41974  1.0000
  S   S210      1.0  0.77268  0.40059  0.51730  1.0000
  H   H946      1.0  0.69724  0.13655  0.42271  1.0000
  C   C760      1.0  0.88713  0.08879  0.50064  1.0000
  H   H947      1.0  0.87086  0.31601  0.57911  1.0000
  C   C761      1.0  0.73216  0.55011  0.60228  1.0000
  C   C762      1.0  0.88703  0.41175  0.42319  1.0000
  H   H948      1.0  0.81623  0.09981  0.58990  1.0000
  H   H949      1.0  0.70915  0.10286  0.38284  1.0000
  C   C763      1.0  0.64929  0.52926  0.49123  1.0000
  H   H950      1.0  0.72128  0.35914  0.56798  1.0000
  S   S211      1.0  0.70821  0.45798  0.54278  1.0000
  Fe  Fe110     1.0  0.74773  0.43721  0.48007  1.0000
  H   H951      1.0  0.49136  0.52197  0.44628  1.0000
  H   H952      1.0  0.92394  0.29750  0.43141  1.0000
  S   S212      1.0  0.71729  0.11847  0.58239  1.0000
  C   C764      1.0  0.84412  0.18262  0.51993  1.0000
  H   H953      1.0  0.91469  0.55621  0.55501  1.0000
  H   H954      1.0  0.57839  0.49186  0.43745  1.0000
  C   C765      1.0  0.67143  0.37190  0.52972  1.0000
  S   S213      1.0  0.86494  0.51732  0.54770  1.0000
  H   H955      1.0  0.85081  0.08898  0.38405  1.0000
  Fe  Fe111     1.0  0.91929  0.08743  0.61576  1.0000
  H   H956      1.0  0.65122  0.31769  0.52180  1.0000
  H   H957      1.0  0.54798  0.32778  0.58531  1.0000
  H   H958      1.0  0.54628  0.38447  0.57580  1.0000
  H   H959      1.0  0.68765  0.55970  0.45029  1.0000
  H   H960      1.0  0.47719  0.47616  0.52244  1.0000
  H   H961      1.0  0.91303  0.15579  0.49566  1.0000
  H   H962      1.0  0.85844  0.45027  0.57565  1.0000
  C   C766      1.0  0.92286  0.53941  0.52119  1.0000
  C   C767      1.0  0.89149  0.30307  0.57087  1.0000
  H   H963      1.0  0.61457  0.49341  0.53016  1.0000
  H   H964      1.0  0.93883  0.56263  0.37922  1.0000
  C   C768      1.0  0.50083  0.36792  0.48403  1.0000
  S   S214      1.0  0.47010  0.10481  0.57177  1.0000
  C   C769      1.0  0.54335  0.55309  0.50691  1.0000
  C   C770      1.0  0.86941  0.17218  0.53442  1.0000
  H   H965      1.0  0.69102  0.46774  0.38619  1.0000
  N   N53       1.0  0.48573  0.31756  0.45081  1.0000
  H   H966      1.0  0.64946  0.26185  0.53409  1.0000
  Fe  Fe112     1.0  0.52328  0.21109  0.52088  1.0000
  H   H967      1.0  0.92074  0.38493  0.59532  1.0000
  S   S215      1.0  0.61526  0.35935  0.43047  1.0000
  C   C771      1.0  0.86230  0.25538  0.60554  1.0000
  C   C772      1.0  0.91384  0.25465  0.54545  1.0000
  H   H968      1.0  0.87281  0.55529  0.41135  1.0000
  H   H969      1.0  0.87172  0.39105  0.56485  1.0000
  H   H970      1.0  0.83407  0.25608  0.52044  1.0000
  H   H971      1.0  0.57478  0.25440  0.51940  1.0000
  C   C773      1.0  0.65822  0.27440  0.56652  1.0000
  C   C774      1.0  0.51873  0.32131  0.52596  1.0000
  C   C775      1.0  0.57636  0.28912  0.36909  1.0000
  C   C776      1.0  0.67182  0.32363  0.60028  1.0000
  C   C777      1.0  0.69551  0.51324  0.58888  1.0000
  H   H972      1.0  0.80105  0.29470  0.60443  1.0000
  C   C778      1.0  0.84267  0.18483  0.45524  1.0000
  H   H973      1.0  0.51638  0.41029  0.51041  1.0000
  H   H974      1.0  0.48956  0.38043  0.45332  1.0000
  H   H975      1.0  0.93407  0.26663  0.50996  1.0000
  C   C779      1.0  0.86301  0.09300  0.55507  1.0000
  C   C780      1.0  0.75418  0.30143  0.50922  1.0000
  S   S216      1.0  0.67853  0.18796  0.51838  1.0000
  H   H976      1.0  0.64634  0.19605  0.41041  1.0000
  C   C781      1.0  0.67800  0.53703  0.44922  1.0000
  C   C782      1.0  0.91367  0.49650  0.46448  1.0000
  S   S217      1.0  0.52774  0.47381  0.39366  1.0000
  C   C783      1.0  0.70303  0.54243  0.60298  1.0000
  C   C784      1.0  0.59159  0.19817  0.60730  1.0000
  C   C785      1.0  0.75415  0.52894  0.58461  1.0000
  C   C786      1.0  0.77138  0.25808  0.59447  1.0000
  C   C787      1.0  0.90207  0.28988  0.43003  1.0000
  H   H977      1.0  0.90133  0.08413  0.39671  1.0000
  C   C788      1.0  0.53342  0.37089  0.55262  1.0000
  H   H978      1.0  0.91129  0.23173  0.52825  1.0000
  C   C789      1.0  0.93788  0.40106  0.41867  1.0000
  C   C790      1.0  0.50120  0.33531  0.48832  1.0000
  C   C791      1.0  0.95449  0.42062  0.57155  1.0000
  H   H979      1.0  0.87023  0.16979  0.58481  1.0000
  C   C792      1.0  0.45885  0.10616  0.50057  1.0000
  C   C793      1.0  0.70224  0.36963  0.60138  1.0000
  N   N54       1.0  0.67359  0.35773  0.59415  1.0000
  H   H980      1.0  0.74516  0.50925  0.43893  1.0000
  H   H981      1.0  0.58636  0.53573  0.49841  1.0000
  H   H982      1.0  0.46255  0.52831  0.57504  1.0000
  C   C794      1.0  0.65172  0.47819  0.45674  1.0000
  C   C795      1.0  0.94424  0.49482  0.43600  1.0000
  H   H983      1.0  0.86603  0.09357  0.60312  1.0000
  S   S218      1.0  0.76147  0.17859  0.52088  1.0000
  H   H984      1.0  0.77672  0.53469  0.58416  1.0000
  C   C796      1.0  0.92488  0.40927  0.59620  1.0000
  C   C797      1.0  0.68022  0.48587  0.41357  1.0000
  C   C798      1.0  0.85203  0.26711  0.48009  1.0000
  H   H985      1.0  0.82534  0.18873  0.55904  1.0000
  H   H986      1.0  0.70545  0.39510  0.59066  1.0000
  C   C799      1.0  0.77568  0.30999  0.53900  1.0000
  H   H987      1.0  0.49705  0.08754  0.37456  1.0000
  C   C800      1.0  0.74466  0.53014  0.40555  1.0000
  N   N55       1.0  0.88668  0.27210  0.55132  1.0000
  C   C801      1.0  0.95359  0.53745  0.49325  1.0000
  C   C802      1.0  0.48382  0.28377  0.46949  1.0000
  C   C803      1.0  0.46614  0.13219  0.45444  1.0000
  C   C804      1.0  0.57912  0.27194  0.47811  1.0000
  C   C805      1.0  0.88020  0.27578  0.48727  1.0000
  C   C806      1.0  0.51239  0.52507  0.45644  1.0000
  H   H988      1.0  0.82294  0.19379  0.44609  1.0000
  C   C807      1.0  0.91171  0.41542  0.44623  1.0000
  C   C808      1.0  0.64286  0.11600  0.49061  1.0000
  S   S219      1.0  0.78813  0.46094  0.40621  1.0000
  C   C809      1.0  0.89349  0.16429  0.48411  1.0000
  S   S220      1.0  0.47537  0.19686  0.53699  1.0000
  H   H989      1.0  0.48152  0.15009  0.45851  1.0000
  C   C810      1.0  0.57025  0.26655  0.42282  1.0000
  S   S221      1.0  0.79502  0.10045  0.47593  1.0000
  S   S222      1.0  0.55046  0.23230  0.42065  1.0000
  C   C811      1.0  0.59862  0.32331  0.42723  1.0000
  H   H990      1.0  0.68338  0.23187  0.39847  1.0000
  C   C812      1.0  0.86613  0.17553  0.40326  1.0000
  C   C813      1.0  0.51351  0.07094  0.38229  1.0000
  H   H991      1.0  0.73591  0.20508  0.37083  1.0000
  C   C814      1.0  0.66924  0.25831  0.61306  1.0000
  C   C815      1.0  0.63166  0.20342  0.38004  1.0000
  H   H992      1.0  0.68634  0.55915  0.61400  1.0000
  S   S223      1.0  0.51411  0.23301  0.61517  1.0000
  C   C816      1.0  0.67693  0.25293  0.37680  1.0000
  C   C817      1.0  0.50215  0.32357  0.37991  1.0000
  H   H993      1.0  0.76800  0.53648  0.37484  1.0000
  H   H994      1.0  0.68690  0.33009  0.38039  1.0000
  C   C818      1.0  0.88876  0.39416  0.37091  1.0000
  H   H995      1.0  0.63156  0.10838  0.37658  1.0000
  C   C819      1.0  0.65488  0.11500  0.37401  1.0000
  H   H996      1.0  0.62108  0.18202  0.37005  1.0000
  H   H997      1.0  0.65772  0.14055  0.36767  1.0000
  H   H998      1.0  0.66946  0.23349  0.61658  1.0000
  H   H999      1.0  0.84164  0.26821  0.61656  1.0000
  C   C820      1.0  0.58547  0.09334  0.82459  1.0000
  S   S224      1.0  0.84319  0.31488  0.74319  1.0000
  S   S225      1.0  0.80389  0.45659  0.78877  1.0000
  C   C821      1.0  0.53185  0.50865  0.65402  1.0000
  H   H1000     1.0  0.52173  0.10306  0.76812  1.0000
  H   H1001     1.0  0.65000  0.39390  0.64504  1.0000
  N   N56       1.0  0.87010  0.41783  0.64535  1.0000
  S   S226      1.0  0.71157  0.17799  0.66664  1.0000
  H   H1002     1.0  0.79267  0.15563  0.80900  1.0000
  H   H1003     1.0  0.77552  0.23740  0.81321  1.0000
  C   C822      1.0  0.89659  0.25881  0.81270  1.0000
  H   H1004     1.0  0.57331  0.22108  0.82879  1.0000
  C   C823      1.0  0.89516  0.53405  0.72288  1.0000
  C   C824      1.0  0.95476  0.55176  0.78920  1.0000
  H   H1005     1.0  0.83878  0.40423  0.73898  1.0000
  C   C825      1.0  0.63519  0.22079  0.80042  1.0000
  C   C826      1.0  0.65485  0.08773  0.69541  1.0000
  C   C827      1.0  0.66198  0.20985  0.80694  1.0000
  C   C828      1.0  0.52224  0.32033  0.86082  1.0000
  H   H1006     1.0  0.55150  0.35904  0.86154  1.0000
  H   H1007     1.0  0.88134  0.51484  0.71375  1.0000
  H   H1008     1.0  0.69027  0.31727  0.68362  1.0000
  C   C829      1.0  0.61048  0.16838  0.68613  1.0000
  H   H1009     1.0  0.56787  0.48061  0.66087  1.0000
  S   S227      1.0  0.81181  0.56518  0.67112  1.0000
  C   C830      1.0  0.53233  0.45438  0.64205  1.0000
  C   C831      1.0  0.58670  0.18160  0.66913  1.0000
  H   H1010     1.0  0.69130  0.44697  0.69918  1.0000
  H   H1011     1.0  0.53149  0.31873  0.80863  1.0000
  H   H1012     1.0  0.94640  0.50585  0.71244  1.0000
  H   H1013     1.0  0.72505  0.48296  0.72412  1.0000
  H   H1014     1.0  0.66166  0.11098  0.67421  1.0000
  H   H1015     1.0  0.76360  0.18213  0.82053  1.0000
  H   H1016     1.0  0.60712  0.10410  0.79239  1.0000
  C   C832      1.0  0.68152  0.30633  0.64927  1.0000
  C   C833      1.0  0.86385  0.38871  0.61951  1.0000
  H   H1017     1.0  0.76438  0.51016  0.75597  1.0000
  H   H1018     1.0  0.69020  0.26161  0.68895  1.0000
  C   C834      1.0  0.85985  0.29433  0.79681  1.0000
  H   H1019     1.0  0.47830  0.37022  0.80386  1.0000
  H   H1020     1.0  0.49401  0.53169  0.64625  1.0000
  H   H1021     1.0  0.62341  0.08251  0.64110  1.0000
  Fe  Fe113     1.0  0.87500  0.09085  0.74999  1.0000
  S   S228      1.0  0.82730  0.09951  0.79664  1.0000
  N   N57       1.0  0.45872  0.48253  0.62491  1.0000
  C   C835      1.0  0.48298  0.12372  0.82483  1.0000
  H   H1022     1.0  0.60693  0.15604  0.73430  1.0000
  H   H1023     1.0  0.46091  0.35046  0.75388  1.0000
  H   H1024     1.0  0.65703  0.16036  0.65295  1.0000
  S   S229      1.0  0.90030  0.12688  0.67070  1.0000
  N   N58       1.0  0.90818  0.52480  0.77689  1.0000
  C   C836      1.0  0.92742  0.49884  0.75730  1.0000
  C   C837      1.0  0.48898  0.48271  0.63306  1.0000
  H   H1025     1.0  0.64986  0.35886  0.69610  1.0000
  C   C838      1.0  0.67782  0.37715  0.79098  1.0000
  S   S230      1.0  0.76947  0.13604  0.64973  1.0000
  C   C839      1.0  0.57929  0.24100  0.79023  1.0000
  H   H1026     1.0  0.89413  0.47676  0.63998  1.0000
  H   H1027     1.0  0.93682  0.48996  0.79732  1.0000
  H   H1028     1.0  0.91282  0.54142  0.67602  1.0000
  H   H1029     1.0  0.56781  0.10693  0.81219  1.0000
  S   S231      1.0  0.90999  0.08843  0.80217  1.0000
  H   H1030     1.0  0.81152  0.25133  0.81739  1.0000
  Fe  Fe114     1.0  0.80476  0.34152  0.79620  1.0000
  Fe  Fe115     1.0  0.93678  0.12162  0.71798  1.0000
  C   C840      1.0  0.68276  0.22951  0.82044  1.0000
  H   H1031     1.0  0.91495  0.47902  0.74639  1.0000
  S   S232      1.0  0.69300  0.09553  0.76814  1.0000
  Fe  Fe116     1.0  0.51788  0.46093  0.84230  1.0000
  C   C841      1.0  0.63325  0.07149  0.67647  1.0000
  C   C842      1.0  0.92417  0.55155  0.79170  1.0000
  C   C843      1.0  0.90170  0.42916  0.61976  1.0000
  N   N59       1.0  0.80586  0.20198  0.82107  1.0000
  H   H1032     1.0  0.86604  0.43317  0.74020  1.0000
  Fe  Fe117     1.0  0.71965  0.12807  0.68193  1.0000
  C   C844      1.0  0.62831  0.25198  0.80812  1.0000
  S   S233      1.0  0.55537  0.49695  0.82132  1.0000
  H   H1033     1.0  0.85212  0.21180  0.81120  1.0000
  C   C845      1.0  0.74210  0.51837  0.76858  1.0000
  H   H1034     1.0  0.87613  0.39389  0.73291  1.0000
  H   H1035     1.0  0.69300  0.27546  0.83854  1.0000
  C   C846      1.0  0.73591  0.54473  0.80085  1.0000
  H   H1036     1.0  0.82456  0.51768  0.79893  1.0000
  H   H1037     1.0  0.70335  0.22077  0.82604  1.0000
  C   C847      1.0  0.67898  0.42784  0.73298  1.0000
  H   H1038     1.0  0.64619  0.29520  0.82953  1.0000
  H   H1039     1.0  0.67514  0.50182  0.74745  1.0000
  H   H1040     1.0  0.89272  0.27608  0.71846  1.0000
  H   H1041     1.0  0.89793  0.30180  0.61710  1.0000
  H   H1042     1.0  0.76734  0.09596  0.78826  1.0000
  H   H1043     1.0  0.63076  0.50801  0.82156  1.0000
  C   C848      1.0  0.68420  0.54102  0.79664  1.0000
  C   C849      1.0  0.69131  0.51405  0.76442  1.0000
  H   H1044     1.0  0.63429  0.35749  0.84724  1.0000
  C   C850      1.0  0.64683  0.37723  0.81596  1.0000
  H   H1045     1.0  0.82694  0.43133  0.63759  1.0000
  H   H1046     1.0  0.87400  0.36875  0.63918  1.0000
  H   H1047     1.0  0.71796  0.40275  0.73129  1.0000
  Fe  Fe118     1.0  0.52108  0.18603  0.65935  1.0000
  C   C851      1.0  0.66645  0.07452  0.74404  1.0000
  C   C852      1.0  0.50368  0.50957  0.64447  1.0000
  Fe  Fe119     1.0  0.73989  0.35572  0.81851  1.0000
  Fe  Fe120     1.0  0.58474  0.45721  0.80882  1.0000
  H   H1048     1.0  0.84778  0.46087  0.65784  1.0000
  S   S234      1.0  0.47789  0.46200  0.80545  1.0000
  H   H1049     1.0  0.75356  0.55683  0.81362  1.0000
  S   S235      1.0  0.54767  0.42188  0.82038  1.0000
  S   S236      1.0  0.62909  0.45875  0.73392  1.0000
  S   S237      1.0  0.69571  0.34377  0.80465  1.0000
  H   H1050     1.0  0.64803  0.54075  0.71721  1.0000
  C   C853      1.0  0.71984  0.50299  0.75074  1.0000
  C   C854      1.0  0.79979  0.23365  0.79823  1.0000
  C   C855      1.0  0.78787  0.17995  0.79733  1.0000
  H   H1051     1.0  0.47396  0.34215  0.64041  1.0000
  C   C856      1.0  0.88386  0.27647  0.77086  1.0000
  C   C857      1.0  0.79094  0.48191  0.84872  1.0000
  C   C858      1.0  0.60519  0.29014  0.75173  1.0000
  Fe  Fe121     1.0  0.78564  0.40727  0.81540  1.0000
  N   N60       1.0  0.65400  0.55275  0.80877  1.0000
  H   H1052     1.0  0.60801  0.40248  0.81873  1.0000
  H   H1053     1.0  0.47266  0.28499  0.65386  1.0000
  H   H1054     1.0  0.84358  0.17324  0.79640  1.0000
  C   C859      1.0  0.80619  0.51058  0.84247  1.0000
  H   H1055     1.0  0.58398  0.29992  0.74859  1.0000
  C   C860      1.0  0.64994  0.27132  0.82224  1.0000
  C   C861      1.0  0.63196  0.40272  0.79982  1.0000
  H   H1056     1.0  0.91483  0.24468  0.79215  1.0000
  H   H1057     1.0  0.61929  0.30934  0.75972  1.0000
  H   H1058     1.0  0.70383  0.36491  0.65210  1.0000
  S   S238      1.0  0.81120  0.37538  0.86379  1.0000
  H   H1059     1.0  0.66658  0.18584  0.80233  1.0000
  C   C862      1.0  0.64894  0.36826  0.64668  1.0000
  C   C863      1.0  0.68089  0.27424  0.65416  1.0000
  H   H1060     1.0  0.55779  0.25060  0.78840  1.0000
  H   H1061     1.0  0.86653  0.53010  0.85069  1.0000
  S   S239      1.0  0.47308  0.16941  0.68607  1.0000
  H   H1062     1.0  0.61663  0.28240  0.70299  1.0000
  C   C864      1.0  0.63881  0.17064  0.63998  1.0000
  S   S240      1.0  0.48616  0.27000  0.86218  1.0000
  S   S241      1.0  0.78198  0.37464  0.74225  1.0000
  H   H1063     1.0  0.46967  0.32984  0.82228  1.0000
  H   H1064     1.0  0.62000  0.20419  0.79074  1.0000
  H   H1065     1.0  0.84459  0.20414  0.73585  1.0000
  C   C865      1.0  0.63130  0.52863  0.84808  1.0000
  S   S242      1.0  0.55067  0.17702  0.72380  1.0000
  C   C866      1.0  0.70745  0.55608  0.81464  1.0000
  C   C867      1.0  0.67680  0.26022  0.82784  1.0000
  C   C868      1.0  0.49908  0.09900  0.80019  1.0000
  H   H1066     1.0  0.94374  0.38935  0.75401  1.0000
  C   C869      1.0  0.64805  0.56101  0.74504  1.0000
  H   H1067     1.0  0.49337  0.14689  0.81214  1.0000
  C   C870      1.0  0.86252  0.41199  0.71767  1.0000
  H   H1068     1.0  0.58932  0.23225  0.74184  1.0000
  C   C871      1.0  0.64797  0.42783  0.75737  1.0000
  H   H1069     1.0  0.88013  0.55334  0.73390  1.0000
  H   H1070     1.0  0.86819  0.25237  0.65241  1.0000
  C   C872      1.0  0.46136  0.35160  0.80522  1.0000
  C   C873      1.0  0.83792  0.19765  0.78994  1.0000
  C   C874      1.0  0.88379  0.51309  0.83653  1.0000
  H   H1071     1.0  0.79225  0.18383  0.74303  1.0000
  C   C875      1.0  0.69400  0.40282  0.75109  1.0000
  H   H1072     1.0  0.87211  0.49188  0.82897  1.0000
  N   N61       1.0  0.59967  0.26417  0.80458  1.0000
  H   H1073     1.0  0.50192  0.54562  0.85560  1.0000
  H   H1074     1.0  0.80742  0.23834  0.74369  1.0000
  Fe  Fe122     1.0  0.76108  0.18538  0.62418  1.0000
  C   C876      1.0  0.54617  0.48117  0.65272  1.0000
  S   S243      1.0  0.78439  0.22863  0.63902  1.0000
  C   C877      1.0  0.50412  0.45500  0.63259  1.0000
  Fe  Fe123     1.0  0.46682  0.21496  0.63496  1.0000
  H   H1075     1.0  0.54327  0.43295  0.64255  1.0000
  H   H1076     1.0  0.54261  0.52952  0.66240  1.0000
  C   C878      1.0  0.77607  0.07336  0.78401  1.0000
  C   C879      1.0  0.91037  0.46031  0.62206  1.0000
  H   H1077     1.0  0.62692  0.36080  0.64199  1.0000
  H   H1078     1.0  0.60842  0.53713  0.85971  1.0000
  H   H1079     1.0  0.94836  0.30649  0.86351  1.0000
  H   H1080     1.0  0.83962  0.38208  0.63413  1.0000
  C   C880      1.0  0.85013  0.44096  0.62837  1.0000
  H   H1081     1.0  0.49383  0.43349  0.62665  1.0000
  H   H1082     1.0  0.58293  0.06968  0.81071  1.0000
  C   C881      1.0  0.84879  0.29465  0.86515  1.0000
  C   C882      1.0  0.65926  0.92109  0.94499  1.0000
  C   C883      1.0  0.46678  0.74036  0.02564  1.0000
  H   H1083     1.0  0.70176  0.05614  0.05214  1.0000
  H   H1084     1.0  0.47518  0.85216  0.93109  1.0000
  H   H1085     1.0  0.94133  0.59036  0.09536  1.0000
  H   H1086     1.0  0.76285  0.87503  0.98093  1.0000
  C   C884      1.0  0.75072  0.83237  0.95039  1.0000
  C   C885      1.0  0.86503  0.01869  0.96335  1.0000
  C   C886      1.0  0.85717  0.96311  0.98366  1.0000
  C   C887      1.0  0.69155  0.06760  0.93503  1.0000
  S   S244      1.0  0.95416  0.99757  0.09857  1.0000
  S   S245      1.0  0.48980  0.82628  0.05380  1.0000
  H   H1087     1.0  0.71575  0.01603  0.90209  1.0000
  H   H1088     1.0  0.77288  0.83015  0.91806  1.0000
  H   H1089     1.0  0.89052  0.78567  0.10704  1.0000
  C   C888      1.0  0.93735  0.78488  0.95000  1.0000
  H   H1090     1.0  0.71204  0.88078  0.05431  1.0000
  H   H1091     1.0  0.70211  0.74864  0.99839  1.0000
  C   C889      1.0  0.72462  0.60872  0.95116  1.0000
  H   H1092     1.0  0.67801  0.01213  0.90197  1.0000
  N   N62       1.0  0.87527  0.98911  0.93872  1.0000
  C   C890      1.0  0.62630  0.89449  0.89719  1.0000
  C   C891      1.0  0.67623  0.87750  0.88388  1.0000
  H   H1093     1.0  0.80255  0.70459  0.04733  1.0000
  C   C892      1.0  0.87293  0.98590  0.87164  1.0000
  H   H1094     1.0  0.70289  0.90341  0.92891  1.0000
  C   C893      1.0  0.77627  0.98903  0.04454  1.0000
  C   C894      1.0  0.69179  0.64356  0.01251  1.0000
  H   H1095     1.0  0.88361  0.71339  0.05176  1.0000
  H   H1096     1.0  0.86230  0.81774  0.04696  1.0000
  C   C895      1.0  0.71297  0.60495  0.06906  1.0000
  H   H1097     1.0  0.74429  0.62442  0.94716  1.0000
  H   H1098     1.0  0.56177  0.77589  0.02368  1.0000
  H   H1099     1.0  0.54147  0.58560  0.02501  1.0000
  C   C896      1.0  0.61293  0.05722  0.10229  1.0000
  H   H1100     1.0  0.73314  0.58529  0.94781  1.0000
  C   C897      1.0  0.89371  0.81499  0.95223  1.0000
  C   C898      1.0  0.57263  0.77192  0.11513  1.0000
  H   H1101     1.0  0.78974  0.00305  0.06540  1.0000
  C   C899      1.0  0.64625  0.59672  0.02417  1.0000
  C   C900      1.0  0.47132  0.61994  0.92907  1.0000
  C   C901      1.0  0.75224  0.74479  0.06108  1.0000
  H   H1102     1.0  0.68371  0.65068  0.96955  1.0000
  C   C902      1.0  0.90698  0.98636  0.93623  1.0000
  H   H1103     1.0  0.67438  0.64739  0.05872  1.0000
  C   C903      1.0  0.59386  0.03198  0.10393  1.0000
  H   H1104     1.0  0.52833  0.76574  0.89458  1.0000
  C   C904      1.0  0.85878  0.05430  0.04814  1.0000
  C   C905      1.0  0.77591  0.75532  0.00542  1.0000
  H   H1105     1.0  0.69509  0.60402  0.11624  1.0000
  H   H1106     1.0  0.91490  0.63572  0.04604  1.0000
  H   H1107     1.0  0.47681  0.03440  0.02202  1.0000
  C   C906      1.0  0.82221  0.69695  0.06211  1.0000
  C   C907      1.0  0.49454  0.57936  0.07650  1.0000
  H   H1108     1.0  0.63961  0.99157  0.99340  1.0000
  H   H1109     1.0  0.87613  0.01013  0.05571  1.0000
  H   H1110     1.0  0.79230  0.01650  0.95051  1.0000
  H   H1111     1.0  0.88134  0.82941  0.92642  1.0000
  Fe  Fe124     1.0  0.57643  0.94833  0.88958  1.0000
  H   H1112     1.0  0.56551  0.86519  0.86854  1.0000
  H   H1113     1.0  0.50352  0.76282  0.04777  1.0000
  C   C908      1.0  0.56173  0.81980  0.06211  1.0000
  H   H1114     1.0  0.64028  0.62043  0.02254  1.0000
  C   C909      1.0  0.47113  0.79485  0.03525  1.0000
  C   C910      1.0  0.63321  0.01062  0.02220  1.0000
  C   C911      1.0  0.79063  0.78404  0.00195  1.0000
  H   H1115     1.0  0.84935  0.98528  0.87074  1.0000
  H   H1116     1.0  0.52264  0.00843  0.02116  1.0000
  H   H1117     1.0  0.71692  0.61495  0.90735  1.0000
  C   C912      1.0  0.68467  0.75949  0.97930  1.0000
  H   H1118     1.0  0.78853  0.69123  0.92206  1.0000
  C   C913      1.0  0.70441  0.03664  0.02146  1.0000
  C   C914      1.0  0.55209  0.04718  0.96832  1.0000
  H   H1119     1.0  0.84972  0.03755  0.88055  1.0000
  C   C915      1.0  0.93383  0.67488  0.89336  1.0000
  C   C916      1.0  0.46269  0.57068  0.89251  1.0000
  Fe  Fe125     1.0  0.85660  0.60892  0.01971  1.0000
  C   C917      1.0  0.92052  0.80348  0.91750  1.0000
  H   H1120     1.0  0.73035  0.62297  0.06860  1.0000
  C   C918      1.0  0.69918  0.81157  0.00111  1.0000
  S   S246      1.0  0.80286  0.83501  0.05645  1.0000
  S   S247      1.0  0.46444  0.65752  0.09278  1.0000
  C   C919      1.0  0.75696  0.96427  0.08320  1.0000
  C   C920      1.0  0.92868  0.64778  0.00045  1.0000
  S   S248      1.0  0.61794  0.77146  0.87567  1.0000
  C   C921      1.0  0.68163  0.90104  0.91977  1.0000
  H   H1121     1.0  0.92080  0.00702  0.90776  1.0000
  H   H1122     1.0  0.66106  0.80661  0.92802  1.0000
  H   H1123     1.0  0.80984  0.79159  0.96051  1.0000
  C   C922      1.0  0.59291  0.88518  0.10645  1.0000
  C   C923      1.0  0.63183  0.91831  0.93207  1.0000
  H   H1124     1.0  0.60505  0.89201  0.88800  1.0000
  H   H1125     1.0  0.82016  0.67140  0.07021  1.0000
  H   H1126     1.0  0.89966  0.90883  0.89285  1.0000
  H   H1127     1.0  0.58930  0.98896  0.06521  1.0000
  H   H1128     1.0  0.83321  0.96436  0.98674  1.0000
  S   S249      1.0  0.60449  0.94469  0.95878  1.0000
  H   H1129     1.0  0.84196  0.70337  0.01873  1.0000
  S   S250      1.0  0.87745  0.65393  0.96340  1.0000
  H   H1130     1.0  0.67203  0.84265  0.06494  1.0000
  H   H1131     1.0  0.86400  0.94047  0.96594  1.0000
  C   C924      1.0  0.60396  0.00882  0.06372  1.0000
  H   H1132     1.0  0.57113  0.03409  0.96894  1.0000
  H   H1133     1.0  0.67774  0.77111  0.10616  1.0000
  H   H1134     1.0  0.69367  0.76436  0.92495  1.0000
  H   H1135     1.0  0.83092  0.65913  0.87675  1.0000
  C   C925      1.0  0.78130  0.80228  0.05384  1.0000
  C   C926      1.0  0.65184  0.80075  0.98226  1.0000
  C   C927      1.0  0.91587  0.65888  0.95187  1.0000
  C   C928      1.0  0.71664  0.86095  0.02714  1.0000
  H   H1136     1.0  0.49266  0.60298  0.08672  1.0000
  H   H1137     1.0  0.64365  0.75916  0.09058  1.0000
  C   C929      1.0  0.52420  0.03208  0.99915  1.0000
  S   S251      1.0  0.80950  0.60446  0.08557  1.0000
  H   H1138     1.0  0.76125  0.98720  0.89847  1.0000
  H   H1139     1.0  0.69025  0.99007  0.96408  1.0000
  S   S252      1.0  0.73420  0.70076  0.88893  1.0000
  H   H1140     1.0  0.85915  0.96252  0.03435  1.0000
  C   C930      1.0  0.64820  0.87373  0.87440  1.0000
  H   H1141     1.0  0.51178  0.81744  0.89417  1.0000
  H   H1142     1.0  0.84893  0.75035  0.06018  1.0000
  C   C931      1.0  0.72841  0.80915  0.95868  1.0000
  H   H1143     1.0  0.92518  0.05530  0.01918  1.0000
  C   C932      1.0  0.75992  0.98105  0.94964  1.0000
  C   C933      1.0  0.64219  0.05928  0.06069  1.0000
  H   H1144     1.0  0.93714  0.76545  0.04920  1.0000
  C   C934      1.0  0.58753  0.82296  0.87223  1.0000
  H   H1145     1.0  0.86089  0.05979  0.09493  1.0000
  H   H1146     1.0  0.72165  0.93119  0.07887  1.0000
  C   C935      1.0  0.88298  0.80853  0.02030  1.0000
  C   C936      1.0  0.84402  0.06900  0.95132  1.0000
  H   H1147     1.0  0.53068  0.87445  0.05974  1.0000
  H   H1148     1.0  0.60082  0.58127  0.03553  1.0000
  H   H1149     1.0  0.91026  0.98390  0.98593  1.0000
  C   C937      1.0  0.73808  0.94928  0.05281  1.0000
  H   H1150     1.0  0.59113  0.82578  0.91910  1.0000
  C   C938      1.0  0.86739  0.02605  0.02507  1.0000
  C   C939      1.0  0.65332  0.03595  0.01956  1.0000
  S   S253      1.0  0.53428  0.92017  0.89999  1.0000
  S   S254      1.0  0.47193  0.98216  0.90640  1.0000
  H   H1151     1.0  0.55534  0.83065  0.02110  1.0000
  H   H1152     1.0  0.47551  0.71789  0.02815  1.0000
  H   H1153     1.0  0.56897  0.88158  0.00895  1.0000
  C   C940      1.0  0.74505  0.85786  0.98559  1.0000
  C   C941      1.0  0.85285  0.04103  0.92731  1.0000
  H   H1154     1.0  0.71099  0.66004  0.00846  1.0000
  C   C942      1.0  0.50170  0.61503  0.91410  1.0000
  H   H1155     1.0  0.60984  0.87977  0.06082  1.0000
  S   S255      1.0  0.87498  0.58289  0.09308  1.0000
  H   H1156     1.0  0.66344  0.93900  0.97330  1.0000
  H   H1157     1.0  0.59229  0.91074  0.10382  1.0000
  C   C943      1.0  0.69239  0.01291  0.93494  1.0000
  S   S256      1.0  0.73816  0.70659  0.07200  1.0000
  H   H1158     1.0  0.63242  0.78409  0.99097  1.0000
  C   C944      1.0  0.89893  0.79049  0.05394  1.0000
  H   H1159     1.0  0.65373  0.57596  0.89355  1.0000
  C   C945      1.0  0.48269  0.76583  0.03666  1.0000
  C   C946      1.0  0.78766  0.67658  0.88449  1.0000
  C   C947      1.0  0.66069  0.77851  0.08193  1.0000
  C   C948      1.0  0.69387  0.83858  0.03377  1.0000
  H   H1160     1.0  0.64322  0.82215  0.00317  1.0000
  C   C949      1.0  0.52230  0.56939  0.04233  1.0000
  C   C950      1.0  0.87881  0.70142  0.10068  1.0000
  N   N63       1.0  0.70061  0.61115  0.01305  1.0000
  C   C951      1.0  0.49827  0.04670  0.99949  1.0000
  H   H1161     1.0  0.92517  0.69448  0.08765  1.0000
  C   C952      1.0  0.73974  0.95758  0.98703  1.0000
  H   H1162     1.0  0.69956  0.01514  0.05612  1.0000
  H   H1163     1.0  0.72371  0.58275  0.06859  1.0000
  C   C953      1.0  0.56512  0.78805  0.06331  1.0000
  H   H1164     1.0  0.91644  0.96592  0.91191  1.0000
  C   C954      1.0  0.77782  0.99707  0.97862  1.0000
  H   H1165     1.0  0.61082  0.05323  0.88858  1.0000
  H   H1166     1.0  0.47060  0.88483  0.87923  1.0000
  H   H1167     1.0  0.51699  0.63270  0.92036  1.0000
  C   C955      1.0  0.55301  0.88439  0.05776  1.0000
  H   H1168     1.0  0.55098  0.90968  0.05918  1.0000
  C   C956      1.0  0.92577  0.77881  0.01971  1.0000
  H   H1169     1.0  0.72835  0.03762  0.99251  1.0000
  H   H1170     1.0  0.46440  0.64194  0.94543  1.0000
  H   H1171     1.0  0.78361  0.74077  0.96631  1.0000
  N   N64       1.0  0.68478  0.03803  0.97821  1.0000
  H   H1172     1.0  0.73460  0.78974  0.93097  1.0000
  H   H1173     1.0  0.66599  0.74184  0.98826  1.0000
  C   C957      1.0  0.67574  0.58830  0.01959  1.0000
  H   H1174     1.0  0.72520  0.94572  0.96496  1.0000
  N   N65       1.0  0.67474  0.78785  0.01066  1.0000
  C   C958      1.0  0.51084  0.77147  0.87248  1.0000
  N   N66       1.0  0.56334  0.87022  0.11275  1.0000
  H   H1175     1.0  0.81093  0.75581  0.09921  1.0000
  C   C959      1.0  0.48004  0.86178  0.87873  1.0000
  H   H1176     1.0  0.64881  0.79734  0.10808  1.0000
  C   C960      1.0  0.62316  0.57436  0.03224  1.0000
  C   C961      1.0  0.50095  0.80131  0.87196  1.0000
  C   C962      1.0  0.56591  0.83646  0.11311  1.0000
  S   S257      1.0  0.77218  0.06667  0.04750  1.0000
  C   C963      1.0  0.83057  0.74416  0.10634  1.0000
  C   C964      1.0  0.51260  0.58811  0.88856  1.0000
  C   C965      1.0  0.74190  0.76383  0.11091  1.0000
  C   C966      1.0  0.75643  0.79258  0.10728  1.0000
  H   H1177     1.0  0.56905  0.62648  0.10939  1.0000
  H   H1178     1.0  0.53622  0.58460  0.87628  1.0000
  Fe  Fe126     1.0  0.45660  0.86062  0.09129  1.0000
  H   H1179     1.0  0.57488  0.74724  0.11610  1.0000
  H   H1180     1.0  0.94445  0.74069  0.87051  1.0000
  S   S258      1.0  0.78796  0.79118  0.23155  1.0000
  S   S259      1.0  0.67282  0.02452  0.21947  1.0000
  H   H1181     1.0  0.47460  0.93502  0.34328  1.0000
  C   C967      1.0  0.46124  0.75729  0.31092  1.0000
  C   C968      1.0  0.90021  0.01687  0.16684  1.0000
  Fe  Fe127     1.0  0.63962  0.91631  0.24481  1.0000
  H   H1182     1.0  0.86515  0.65742  0.27390  1.0000
  C   C969      1.0  0.62217  0.84038  0.25729  1.0000
  H   H1183     1.0  0.79903  0.93793  0.12669  1.0000
  H   H1184     1.0  0.55006  0.70924  0.25788  1.0000
  H   H1185     1.0  0.58295  0.77495  0.20615  1.0000
  C   C970      1.0  0.86903  0.66923  0.22497  1.0000
  C   C971      1.0  0.84918  0.69694  0.14289  1.0000
  C   C972      1.0  0.77870  0.62049  0.25892  1.0000
  C   C973      1.0  0.93659  0.96118  0.30615  1.0000
  H   H1186     1.0  0.73892  0.97577  0.24503  1.0000
  C   C974      1.0  0.49234  0.78091  0.20544  1.0000
  C   C975      1.0  0.54185  0.87740  0.17516  1.0000
  N   N67       1.0  0.75559  0.95620  0.15298  1.0000
  Fe  Fe128     1.0  0.82906  0.80043  0.26009  1.0000
  H   H1187     1.0  0.46739  0.57373  0.23352  1.0000
  C   C976      1.0  0.51794  0.05649  0.27172  1.0000
  C   C977      1.0  0.93611  0.80371  0.18788  1.0000
  H   H1188     1.0  0.80892  0.01422  0.32077  1.0000
  C   C978      1.0  0.78602  0.95404  0.15996  1.0000
  H   H1189     1.0  0.94640  0.98405  0.28552  1.0000
  C   C979      1.0  0.94202  0.05436  0.14016  1.0000
  C   C980      1.0  0.52783  0.57518  0.20640  1.0000
  H   H1190     1.0  0.91063  0.60466  0.19982  1.0000
  C   C981      1.0  0.65347  0.05788  0.23028  1.0000
  C   C982      1.0  0.50084  0.63597  0.35424  1.0000
  H   H1191     1.0  0.61834  0.03779  0.31446  1.0000
  H   H1192     1.0  0.52900  0.62267  0.26607  1.0000
  H   H1193     1.0  0.90362  0.72080  0.25669  1.0000
  H   H1194     1.0  0.74878  0.80699  0.14670  1.0000
  C   C983      1.0  0.82434  0.96875  0.30638  1.0000
  H   H1195     1.0  0.77969  0.90287  0.34292  1.0000
  C   C984      1.0  0.65091  0.84643  0.21444  1.0000
  S   S260      1.0  0.63640  0.66781  0.31880  1.0000
  C   C985      1.0  0.89003  0.60471  0.32408  1.0000
  H   H1196     1.0  0.78857  0.62296  0.20653  1.0000
  C   C986      1.0  0.53582  0.96522  0.22144  1.0000
  C   C987      1.0  0.50367  0.85473  0.36371  1.0000
  H   H1197     1.0  0.51139  0.65904  0.34524  1.0000
  Fe  Fe129     1.0  0.80214  0.83405  0.16152  1.0000
  H   H1198     1.0  0.79505  0.71526  0.21843  1.0000
  C   C988      1.0  0.50411  0.04067  0.23212  1.0000
  H   H1199     1.0  0.68201  0.00644  0.35369  1.0000
  H   H1200     1.0  0.60139  0.87766  0.14853  1.0000
  H   H1201     1.0  0.83655  0.75446  0.14695  1.0000
  H   H1202     1.0  0.90485  0.62563  0.30153  1.0000
  S   S261      1.0  0.85525  0.76028  0.27590  1.0000
  H   H1203     1.0  0.84747  0.97674  0.28520  1.0000
  H   H1204     1.0  0.53742  0.90233  0.17412  1.0000
  C   C989      1.0  0.73788  0.62931  0.35367  1.0000
  H   H1205     1.0  0.57613  0.57698  0.29914  1.0000
  N   N68       1.0  0.46908  0.78646  0.26663  1.0000
  H   H1206     1.0  0.94255  0.85198  0.36631  1.0000
  S   S262      1.0  0.82097  0.57951  0.26478  1.0000
  C   C990      1.0  0.61873  0.57016  0.31969  1.0000
  N   N69       1.0  0.90746  0.57714  0.32732  1.0000
  H   H1207     1.0  0.59457  0.67954  0.24593  1.0000
  C   C991      1.0  0.75185  0.63395  0.28596  1.0000
  H   H1208     1.0  0.77185  0.68986  0.35053  1.0000
  C   C992      1.0  0.54008  0.02665  0.34380  1.0000
  C   C993      1.0  0.91260  0.74395  0.23772  1.0000
  H   H1209     1.0  0.52010  0.86431  0.18445  1.0000
  C   C994      1.0  0.77252  0.97974  0.34970  1.0000
  H   H1210     1.0  0.49698  0.03893  0.13742  1.0000
  H   H1211     1.0  0.56142  0.04064  0.32561  1.0000
  H   H1212     1.0  0.74870  0.90714  0.15297  1.0000
  H   H1213     1.0  0.60632  0.85794  0.26261  1.0000
  C   C995      1.0  0.57951  0.67451  0.21817  1.0000
  C   C996      1.0  0.95464  0.77901  0.17926  1.0000
  Fe  Fe130     1.0  0.64478  0.65630  0.21534  1.0000
  H   H1214     1.0  0.90567  0.89960  0.26087  1.0000
  S   S263      1.0  0.47625  0.97019  0.11840  1.0000
  H   H1215     1.0  0.52005  0.59564  0.18230  1.0000
  S   S264      1.0  0.84235  0.91223  0.27476  1.0000
  C   C997      1.0  0.51856  0.95174  0.28346  1.0000
  C   C998      1.0  0.92460  0.58565  0.20166  1.0000
  H   H1216     1.0  0.92663  0.85037  0.29942  1.0000
  C   C999      1.0  0.74052  0.98055  0.19190  1.0000
  H   H1217     1.0  0.54914  0.58176  0.21571  1.0000
  H   H1218     1.0  0.49055  0.01957  0.25078  1.0000
  C   C1000     1.0  0.92144  0.84783  0.35399  1.0000
  C   C1001     1.0  0.51063  0.61481  0.30846  1.0000
  Fe  Fe131     1.0  0.65079  0.71601  0.27462  1.0000
  C   C1002     1.0  0.47512  0.95049  0.24413  1.0000
  H   H1219     1.0  0.54997  0.87197  0.21861  1.0000
  Fe  Fe132     1.0  0.76641  0.82247  0.30631  1.0000
  H   H1220     1.0  0.82320  0.67498  0.24051  1.0000
  H   H1221     1.0  0.67741  0.77540  0.23152  1.0000
  Fe  Fe133     1.0  0.81977  0.86853  0.26215  1.0000
  H   H1222     1.0  0.92653  0.95147  0.21792  1.0000
  H   H1223     1.0  0.51154  0.76937  0.21535  1.0000
  C   C1003     1.0  0.76439  0.94828  0.35869  1.0000
  C   C1004     1.0  0.46522  0.83687  0.31889  1.0000
  C   C1005     1.0  0.79506  0.70500  0.17271  1.0000
  H   H1224     1.0  0.89144  0.99367  0.16711  1.0000
  H   H1225     1.0  0.71668  0.57254  0.34842  1.0000
  H   H1226     1.0  0.77707  0.71574  0.15566  1.0000
  H   H1227     1.0  0.46708  0.03692  0.36378  1.0000
  C   C1006     1.0  0.67087  0.82294  0.20476  1.0000
  C   C1007     1.0  0.81595  0.93753  0.31046  1.0000
  S   S265      1.0  0.53426  0.94437  0.34796  1.0000
  C   C1008     1.0  0.90562  0.79835  0.22073  1.0000
  H   H1228     1.0  0.54219  0.00778  0.31172  1.0000
  H   H1229     1.0  0.52322  0.65560  0.12395  1.0000
  H   H1230     1.0  0.80709  0.71158  0.33054  1.0000
  C   C1009     1.0  0.94201  0.57754  0.14093  1.0000
  H   H1231     1.0  0.69330  0.82759  0.17223  1.0000
  H   H1232     1.0  0.72334  0.75605  0.15337  1.0000
  C   C1010     1.0  0.92563  0.56948  0.26201  1.0000
  C   C1011     1.0  0.57356  0.81926  0.16505  1.0000
  C   C1012     1.0  0.47680  0.85884  0.34984  1.0000
  C   C1013     1.0  0.50786  0.05150  0.16635  1.0000
  C   C1014     1.0  0.57695  0.78753  0.16589  1.0000
  C   C1015     1.0  0.78613  0.92710  0.33853  1.0000
  C   C1016     1.0  0.91319  0.91306  0.29352  1.0000
  C   C1017     1.0  0.91078  0.90117  0.35925  1.0000
  S   S266      1.0  0.69900  0.71101  0.26697  1.0000
  S   S267      1.0  0.69200  0.64601  0.20495  1.0000
  S   S268      1.0  0.66835  0.94183  0.29147  1.0000
  H   H1233     1.0  0.48772  0.00239  0.35262  1.0000
  H   H1234     1.0  0.67374  0.57027  0.23703  1.0000
  H   H1235     1.0  0.68569  0.06217  0.34167  1.0000
  S   S269      1.0  0.60428  0.90369  0.34046  1.0000
  C   C1018     1.0  0.66194  0.79347  0.23843  1.0000
  H   H1236     1.0  0.73913  0.92014  0.23369  1.0000
  H   H1237     1.0  0.51995  0.78594  0.30538  1.0000
  Fe  Fe134     1.0  0.82786  0.57600  0.15663  1.0000
  C   C1019     1.0  0.58462  0.65072  0.17759  1.0000
  H   H1238     1.0  0.94512  0.82678  0.16754  1.0000
  C   C1020     1.0  0.63324  0.78776  0.28211  1.0000
  H   H1239     1.0  0.74128  0.64657  0.25393  1.0000
  C   C1021     1.0  0.56480  0.64442  0.14200  1.0000
  C   C1022     1.0  0.80255  0.98992  0.32589  1.0000
  H   H1240     1.0  0.59117  0.80667  0.32501  1.0000
  H   H1241     1.0  0.89135  0.81737  0.22714  1.0000
  C   C1023     1.0  0.61342  0.81122  0.29171  1.0000
  S   S270      1.0  0.80675  0.82856  0.34049  1.0000
  Fe  Fe135     1.0  0.70246  0.69579  0.16745  1.0000
  S   S271      1.0  0.80170  0.04374  0.19821  1.0000
  S   S272      1.0  0.61510  0.62827  0.17444  1.0000
  C   C1024     1.0  0.48051  0.81004  0.30016  1.0000
  Fe  Fe136     1.0  0.68478  0.66180  0.30468  1.0000
  H   H1242     1.0  0.91667  0.66624  0.19786  1.0000
  Fe  Fe137     1.0  0.58410  0.94730  0.31743  1.0000
  H   H1243     1.0  0.94438  0.60186  0.34326  1.0000
  C   C1025     1.0  0.93065  0.02458  0.13871  1.0000
  C   C1026     1.0  0.51895  0.82837  0.34733  1.0000
  S   S273      1.0  0.50033  0.70281  0.20961  1.0000
  H   H1244     1.0  0.53950  0.82487  0.35967  1.0000
  C   C1027     1.0  0.55419  0.69134  0.22511  1.0000
  Fe  Fe138     1.0  0.76395  0.04757  0.28918  1.0000
  S   S274      1.0  0.62118  0.75119  0.32322  1.0000
  C   C1028     1.0  0.62653  0.05797  0.28003  1.0000
  H   H1245     1.0  0.57137  0.03011  0.13706  1.0000
  S   S275      1.0  0.74510  0.00640  0.36145  1.0000
  C   C1029     1.0  0.92547  0.94275  0.26797  1.0000
  S   S276      1.0  0.66150  0.88349  0.17383  1.0000
  S   S277      1.0  0.65560  0.70519  0.17184  1.0000
  C   C1030     1.0  0.89370  0.76825  0.24336  1.0000
  N   N70       1.0  0.51446  0.04507  0.34131  1.0000
  S   S278      1.0  0.61738  0.95781  0.21737  1.0000
  S   S279      1.0  0.77755  0.86503  0.23375  1.0000
  C   C1031     1.0  0.94308  0.74936  0.20647  1.0000
  H   H1246     1.0  0.64914  0.57935  0.18903  1.0000
  Fe  Fe139     1.0  0.64406  0.98275  0.27033  1.0000
  H   H1247     1.0  0.87468  0.86189  0.31401  1.0000
  H   H1248     1.0  0.85758  0.03323  0.21596  1.0000
  H   H1249     1.0  0.55918  0.97112  0.21254  1.0000
  H   H1250     1.0  0.48371  0.76545  0.17563  1.0000
  C   C1032     1.0  0.90275  0.69047  0.12063  1.0000
  C   C1033     1.0  0.53353  0.68403  0.19253  1.0000
  H   H1251     1.0  0.78540  0.94537  0.21101  1.0000
  H   H1252     1.0  0.71511  0.92663  0.18435  1.0000
  C   C1034     1.0  0.84491  0.68001  0.20546  1.0000
  C   C1035     1.0  0.48814  0.94484  0.29497  1.0000
  C   C1036     1.0  0.89791  0.67430  0.18252  1.0000
  S   S280      1.0  0.84520  0.84073  0.18400  1.0000
  H   H1253     1.0  0.71753  0.98257  0.18835  1.0000
  C   C1037     1.0  0.73901  0.92624  0.18190  1.0000
  H   H1254     1.0  0.79867  0.97669  0.15000  1.0000
  H   H1255     1.0  0.78836  0.68007  0.18424  1.0000
  C   C1038     1.0  0.49664  0.58479  0.31768  1.0000
  Fe  Fe140     1.0  0.46324  0.67787  0.18592  1.0000
  C   C1039     1.0  0.53898  0.66093  0.15000  1.0000
  C   C1040     1.0  0.49240  0.96378  0.18210  1.0000
  C   C1041     1.0  0.88101  0.03928  0.19416  1.0000
  C   C1042     1.0  0.59031  0.58238  0.32849  1.0000
  H   H1256     1.0  0.75221  0.00362  0.17416  1.0000
  H   H1257     1.0  0.57703  0.83036  0.20536  1.0000
  C   C1043     1.0  0.52266  0.97148  0.17089  1.0000
  H   H1258     1.0  0.87373  0.60139  0.29616  1.0000
  C   C1044     1.0  0.79187  0.60274  0.29942  1.0000
  H   H1259     1.0  0.48093  0.74768  0.32284  1.0000
  C   C1045     1.0  0.50758  0.80626  0.31619  1.0000
  C   C1046     1.0  0.63604  0.58066  0.35881  1.0000
  H   H1260     1.0  0.50094  0.80280  0.17361  1.0000
  H   H1261     1.0  0.65844  0.57380  0.35264  1.0000
  S   S281      1.0  0.45887  0.88465  0.17752  1.0000
  H   H1262     1.0  0.53594  0.98172  0.12283  1.0000
  H   H1263     1.0  0.73006  0.87115  0.34879  1.0000
  N   N71       1.0  0.82448  0.71038  0.12186  1.0000
  H   H1264     1.0  0.46458  0.87903  0.36388  1.0000
  C   C1047     1.0  0.89426  0.75295  0.42450  1.0000
  H   H1265     1.0  0.87102  0.02539  0.43261  1.0000
  C   C1048     1.0  0.89160  0.86294  0.45732  1.0000
  H   H1266     1.0  0.87983  0.83991  0.47606  1.0000
  H   H1267     1.0  0.50830  0.89567  0.58980  1.0000
  H   H1268     1.0  0.82286  0.99903  0.60340  1.0000
  C   C1049     1.0  0.53514  0.00813  0.59033  1.0000
  C   C1050     1.0  0.70179  0.98049  0.54868  1.0000
  H   H1269     1.0  0.75548  0.85408  0.45464  1.0000
  S   S282      1.0  0.87408  0.60392  0.58424  1.0000
  H   H1270     1.0  0.79562  0.73802  0.49468  1.0000
  H   H1271     1.0  0.57670  0.93077  0.47007  1.0000
  H   H1272     1.0  0.89862  0.77198  0.38624  1.0000
  H   H1273     1.0  0.75638  0.06340  0.58859  1.0000
  H   H1274     1.0  0.63147  0.66887  0.56006  1.0000
  Fe  Fe141     1.0  0.50743  0.60648  0.60407  1.0000
  C   C1051     1.0  0.47404  0.79112  0.59599  1.0000
  H   H1275     1.0  0.51242  0.87189  0.38792  1.0000
  H   H1276     1.0  0.74335  0.92913  0.57350  1.0000
  S   S283      1.0  0.73553  0.75781  0.58825  1.0000
  C   C1052     1.0  0.49865  0.98650  0.54523  1.0000
  C   C1053     1.0  0.47395  0.73522  0.61082  1.0000
  H   H1277     1.0  0.63056  0.06073  0.54448  1.0000
  S   S284      1.0  0.82288  0.58712  0.51413  1.0000
  C   C1054     1.0  0.93815  0.66905  0.56289  1.0000
  C   C1055     1.0  0.65477  0.00225  0.45454  1.0000
  C   C1056     1.0  0.88122  0.00988  0.46344  1.0000
  H   H1278     1.0  0.62832  0.00509  0.55410  1.0000
  H   H1279     1.0  0.67249  0.94327  0.54090  1.0000
  H   H1280     1.0  0.56742  0.97905  0.60907  1.0000
  H   H1281     1.0  0.69672  0.91240  0.38906  1.0000
  H   H1282     1.0  0.46963  0.64446  0.44586  1.0000
  C   C1057     1.0  0.87306  0.97050  0.55525  1.0000
  H   H1283     1.0  0.93842  0.69173  0.53810  1.0000
  C   C1058     1.0  0.59307  0.73526  0.56358  1.0000
  C   C1059     1.0  0.71359  0.65518  0.57699  1.0000
  H   H1284     1.0  0.80012  0.67664  0.38582  1.0000
  C   C1060     1.0  0.51020  0.01142  0.56813  1.0000
  C   C1061     1.0  0.64275  0.72512  0.49700  1.0000
  H   H1285     1.0  0.71206  0.98336  0.49597  1.0000
  S   S285      1.0  0.81771  0.87511  0.58311  1.0000
  H   H1286     1.0  0.63801  0.60721  0.43773  1.0000
  H   H1287     1.0  0.66415  0.81324  0.58583  1.0000
  C   C1062     1.0  0.70660  0.66796  0.52160  1.0000
  C   C1063     1.0  0.68954  0.88861  0.40612  1.0000
  C   C1064     1.0  0.55973  0.91370  0.50287  1.0000
  H   H1288     1.0  0.93444  0.64508  0.42883  1.0000
  H   H1289     1.0  0.59814  0.71309  0.44651  1.0000
  C   C1065     1.0  0.46072  0.78903  0.54571  1.0000
  C   C1066     1.0  0.62464  0.60003  0.40741  1.0000
  S   S286      1.0  0.70062  0.63799  0.38459  1.0000
  C   C1067     1.0  0.80347  0.72678  0.44856  1.0000
  H   H1290     1.0  0.65361  0.97731  0.45938  1.0000
  C   C1068     1.0  0.88350  0.91895  0.59694  1.0000
  S   S287      1.0  0.51215  0.65736  0.60787  1.0000
  C   C1069     1.0  0.57937  0.60234  0.37622  1.0000
  C   C1070     1.0  0.69895  0.83441  0.40462  1.0000
  H   H1291     1.0  0.58464  0.89934  0.59715  1.0000
  H   H1292     1.0  0.48224  0.01971  0.42571  1.0000
  H   H1293     1.0  0.86125  0.83847  0.38928  1.0000
  H   H1294     1.0  0.78354  0.68562  0.54540  1.0000
  H   H1295     1.0  0.74193  0.61092  0.44787  1.0000
  H   H1296     1.0  0.82765  0.02771  0.53389  1.0000
  H   H1297     1.0  0.47916  0.98882  0.52832  1.0000
  H   H1298     1.0  0.77175  0.90561  0.47488  1.0000
  Fe  Fe142     1.0  0.94360  0.78590  0.56428  1.0000
  H   H1299     1.0  0.77005  0.99711  0.55728  1.0000
  C   C1071     1.0  0.76234  0.68175  0.53677  1.0000
  H   H1300     1.0  0.73881  0.06660  0.49392  1.0000
  H   H1301     1.0  0.85768  0.92647  0.53141  1.0000
  H   H1302     1.0  0.65834  0.70741  0.47634  1.0000
  C   C1072     1.0  0.70196  0.86053  0.60075  1.0000
  C   C1073     1.0  0.74143  0.66200  0.58430  1.0000
  C   C1074     1.0  0.46107  0.73320  0.55980  1.0000
  N   N72       1.0  0.73324  0.02555  0.56182  1.0000
  H   H1303     1.0  0.89596  0.99499  0.43021  1.0000
  C   C1075     1.0  0.61636  0.68643  0.58334  1.0000
  Fe  Fe143     1.0  0.84685  0.62946  0.52895  1.0000
  N   N73       1.0  0.89887  0.86917  0.38454  1.0000
  C   C1076     1.0  0.67893  0.95758  0.57384  1.0000
  C   C1077     1.0  0.59628  0.61070  0.41628  1.0000
  C   C1078     1.0  0.79943  0.82719  0.52729  1.0000
  H   H1304     1.0  0.91184  0.86265  0.47423  1.0000
  H   H1305     1.0  0.94379  0.68466  0.43171  1.0000
  H   H1306     1.0  0.59915  0.76402  0.47052  1.0000
  C   C1079     1.0  0.89394  0.73129  0.53327  1.0000
  C   C1080     1.0  0.58844  0.76124  0.52315  1.0000
  H   H1307     1.0  0.57013  0.89108  0.50221  1.0000
  H   H1308     1.0  0.54136  0.91138  0.48026  1.0000
  C   C1081     1.0  0.57530  0.92251  0.59720  1.0000
  H   H1309     1.0  0.61353  0.67781  0.46534  1.0000
  C   C1082     1.0  0.75221  0.89340  0.50913  1.0000
  C   C1083     1.0  0.59974  0.69644  0.48791  1.0000
  H   H1310     1.0  0.59477  0.67364  0.61023  1.0000
  C   C1084     1.0  0.48666  0.02531  0.37174  1.0000
  C   C1085     1.0  0.87044  0.93791  0.55779  1.0000
  C   C1086     1.0  0.87772  0.69954  0.46115  1.0000
  H   H1311     1.0  0.71319  0.82534  0.53147  1.0000
  C   C1087     1.0  0.71854  0.84794  0.54306  1.0000
  C   C1088     1.0  0.74318  0.86432  0.49806  1.0000
  Fe  Fe144     1.0  0.46625  0.65884  0.59750  1.0000
  C   C1089     1.0  0.70830  0.86524  0.38288  1.0000
  H   H1312     1.0  0.79005  0.58786  0.39981  1.0000
  H   H1313     1.0  0.64252  0.74154  0.45401  1.0000
  H   H1314     1.0  0.74837  0.73746  0.37728  1.0000
  C   C1090     1.0  0.78086  0.80130  0.52831  1.0000
  C   C1091     1.0  0.72736  0.68774  0.47349  1.0000
  H   H1315     1.0  0.65267  0.73778  0.52924  1.0000
  C   C1092     1.0  0.72250  0.04675  0.51643  1.0000
  H   H1316     1.0  0.57683  0.68626  0.51358  1.0000
  C   C1093     1.0  0.46368  0.59821  0.42247  1.0000
  C   C1094     1.0  0.92275  0.92045  0.39668  1.0000
  C   C1095     1.0  0.73972  0.04394  0.61166  1.0000
  N   N74       1.0  0.54952  0.92318  0.57027  1.0000
  H   H1317     1.0  0.78353  0.79026  0.48400  1.0000
  N   N75       1.0  0.85827  0.99121  0.51702  1.0000
  S   S288      1.0  0.86627  0.66407  0.44188  1.0000
  H   H1318     1.0  0.64660  0.86735  0.60028  1.0000
  H   H1319     1.0  0.94479  0.96413  0.39928  1.0000
  Fe  Fe145     1.0  0.63139  0.93247  0.38491  1.0000
  H   H1320     1.0  0.82727  0.99097  0.45930  1.0000
  H   H1321     1.0  0.53788  0.01593  0.39458  1.0000
  C   C1096     1.0  0.67076  0.82696  0.44957  1.0000
  C   C1097     1.0  0.52649  0.89996  0.61185  1.0000
  N   N76       1.0  0.61265  0.71117  0.53404  1.0000
  C   C1098     1.0  0.76402  0.74303  0.40531  1.0000
  C   C1099     1.0  0.88332  0.72462  0.41312  1.0000
  H   H1322     1.0  0.56595  0.80329  0.51756  1.0000
  H   H1323     1.0  0.58741  0.62568  0.45409  1.0000
  C   C1100     1.0  0.73629  0.90652  0.56477  1.0000
  C   C1101     1.0  0.83856  0.97469  0.48633  1.0000
  H   H1324     1.0  0.75132  0.75482  0.44794  1.0000
  C   C1102     1.0  0.75858  0.79027  0.58623  1.0000
  H   H1325     1.0  0.89565  0.02478  0.48260  1.0000
  H   H1326     1.0  0.71903  0.03545  0.47461  1.0000
  H   H1327     1.0  0.72125  0.69602  0.43021  1.0000
  C   C1103     1.0  0.71151  0.89042  0.60992  1.0000
  C   C1104     1.0  0.64052  0.01797  0.50761  1.0000
  H   H1328     1.0  0.89822  0.73378  0.57973  1.0000
  H   H1329     1.0  0.63018  0.84459  0.50752  1.0000
  H   H1330     1.0  0.70085  0.05569  0.54292  1.0000
  C   C1105     1.0  0.79513  0.84249  0.58363  1.0000
  C   C1106     1.0  0.65211  0.85040  0.47347  1.0000
  H   H1331     1.0  0.55739  0.61097  0.38329  1.0000
  H   H1332     1.0  0.81860  0.74385  0.41062  1.0000
  C   C1107     1.0  0.75242  0.61410  0.39510  1.0000
  Fe  Fe146     1.0  0.78921  0.59362  0.60941  1.0000
  C   C1108     1.0  0.47350  0.57691  0.37713  1.0000
  H   H1333     1.0  0.85133  0.95999  0.44922  1.0000
  H   H1334     1.0  0.87725  0.68366  0.55998  1.0000
  H   H1335     1.0  0.91423  0.59015  0.41722  1.0000
  H   H1336     1.0  0.81648  0.83577  0.48261  1.0000
  H   H1337     1.0  0.87640  0.87995  0.48246  1.0000
  N   N77       1.0  0.77793  0.71554  0.42743  1.0000
  H   H1338     1.0  0.68540  0.66158  0.51480  1.0000
  H   H1339     1.0  0.82076  0.95996  0.52408  1.0000
  C   C1109     1.0  0.95523  0.61749  0.56843  1.0000
  S   S289      1.0  0.91635  0.79136  0.49444  1.0000
  C   C1110     1.0  0.51187  0.95822  0.54468  1.0000
  C   C1111     1.0  0.54839  0.97987  0.59047  1.0000
  C   C1112     1.0  0.53684  0.95381  0.56841  1.0000
  S   S290      1.0  0.63797  0.91062  0.47797  1.0000
  C   C1113     1.0  0.66163  0.88122  0.45180  1.0000
  C   C1114     1.0  0.76166  0.01347  0.52456  1.0000
  H   H1340     1.0  0.59377  0.93905  0.56755  1.0000
  C   C1115     1.0  0.67066  0.01864  0.39504  1.0000
  C   C1116     1.0  0.56941  0.78386  0.54949  1.0000
  H   H1341     1.0  0.81768  0.70780  0.45654  1.0000
  H   H1342     1.0  0.50720  0.06292  0.43589  1.0000
  H   H1343     1.0  0.50219  0.93969  0.52583  1.0000
  C   C1117     1.0  0.78975  0.69767  0.37085  1.0000
  H   H1344     1.0  0.92293  0.91308  0.44625  1.0000
  C   C1118     1.0  0.75576  0.69561  0.48008  1.0000
  C   C1119     1.0  0.71064  0.99982  0.59037  1.0000
  H   H1345     1.0  0.77903  0.03247  0.50233  1.0000
  H   H1346     1.0  0.66339  0.80309  0.46581  1.0000
  C   C1120     1.0  0.64213  0.05019  0.50138  1.0000
  H   H1347     1.0  0.49979  0.03329  0.56908  1.0000
  H   H1348     1.0  0.75930  0.00124  0.48298  1.0000
  C   C1121     1.0  0.90028  0.75621  0.48391  1.0000
  C   C1122     1.0  0.88214  0.70299  0.52220  1.0000
  C   C1123     1.0  0.67261  0.05078  0.38851  1.0000
  C   C1124     1.0  0.47724  0.62781  0.41087  1.0000
  H   H1349     1.0  0.88006  0.89411  0.60041  1.0000
  H   H1350     1.0  0.54414  0.02743  0.60856  1.0000
  H   H1351     1.0  0.85300  0.02779  0.58091  1.0000
  S   S291      1.0  0.54816  0.58200  0.55520  1.0000
  S   S292      1.0  0.72277  0.80506  0.37855  1.0000
  H   H1352     1.0  0.78080  0.76023  0.37183  1.0000
  H   H1353     1.0  0.85400  0.87870  0.38630  1.0000
  S   S293      1.0  0.46303  0.60850  0.58439  1.0000
  C   C1125     1.0  0.55438  0.78126  0.61654  1.0000
  H   H1354     1.0  0.69774  0.63937  0.61374  1.0000
  C   C1126     1.0  0.83965  0.01221  0.56066  1.0000
  H   H1355     1.0  0.87652  0.60964  0.37397  1.0000
  H   H1356     1.0  0.74120  0.94044  0.37809  1.0000
  H   H1357     1.0  0.91354  0.82345  0.37145  1.0000
  C   C1127     1.0  0.65835  0.06767  0.44128  1.0000
  C   C1128     1.0  0.95352  0.66223  0.42019  1.0000
  S   S294      1.0  0.60897  0.97576  0.36863  1.0000
  C   C1129     1.0  0.89079  0.98282  0.59162  1.0000
  H   H1358     1.0  0.89469  0.00741  0.59030  1.0000
  C   C1130     1.0  0.95565  0.64613  0.53048  1.0000
  C   C1131     1.0  0.93547  0.94996  0.37020  1.0000
  C   C1132     1.0  0.87110  0.86197  0.36769  1.0000
  H   H1359     1.0  0.87893  0.72208  0.36702  1.0000
  C   C1133     1.0  0.92708  0.58322  0.36853  1.0000
  C   C1134     1.0  0.77964  0.60103  0.36788  1.0000
  S   S295      1.0  0.76385  0.91893  0.85306  1.0000
  H   H1360     1.0  0.53584  0.87712  0.61846  1.0000
  C   C1135     1.0  0.95219  0.60139  0.83144  1.0000
  C   C1136     1.0  0.62328  0.04173  0.70590  1.0000
  H   H1361     1.0  0.71942  0.05409  0.64159  1.0000
  C   C1137     1.0  0.63431  0.02859  0.75583  1.0000
  Fe  Fe147     1.0  0.83626  0.60930  0.67429  1.0000
  C   C1138     1.0  0.77257  0.83166  0.64088  1.0000
  H   H1362     1.0  0.94682  0.88484  0.84387  1.0000
  H   H1363     1.0  0.49871  0.04979  0.79894  1.0000
  C   C1139     1.0  0.81030  0.72016  0.67196  1.0000
  S   S296      1.0  0.81755  0.93388  0.71403  1.0000
  H   H1364     1.0  0.90772  0.84362  0.71114  1.0000
  H   H1365     1.0  0.77916  0.73846  0.79176  1.0000
  S   S297      1.0  0.92680  0.77716  0.67453  1.0000
  H   H1366     1.0  0.91585  0.97349  0.66084  1.0000
  C   C1140     1.0  0.46605  0.78616  0.81495  1.0000
  S   S298      1.0  0.84407  0.90834  0.86441  1.0000
  H   H1367     1.0  0.64925  0.80097  0.67150  1.0000
  H   H1368     1.0  0.79380  0.72499  0.64439  1.0000
  C   C1141     1.0  0.76160  0.65665  0.81327  1.0000
  C   C1142     1.0  0.64991  0.58057  0.84473  1.0000
  H   H1369     1.0  0.57655  0.81420  0.70197  1.0000
  C   C1143     1.0  0.76308  0.67647  0.86002  1.0000
  C   C1144     1.0  0.45666  0.06410  0.85747  1.0000
  C   C1145     1.0  0.89975  0.93181  0.63402  1.0000
  C   C1146     1.0  0.92004  0.63495  0.66371  1.0000
  C   C1147     1.0  0.81152  0.65826  0.85923  1.0000
  C   C1148     1.0  0.80490  0.06867  0.78728  1.0000
  H   H1370     1.0  0.70449  0.57709  0.83779  1.0000
  H   H1371     1.0  0.80721  0.99232  0.76802  1.0000
  C   C1149     1.0  0.48603  0.06919  0.81699  1.0000
  H   H1372     1.0  0.60595  0.68717  0.80554  1.0000
  H   H1373     1.0  0.46641  0.73850  0.79504  1.0000
  H   H1374     1.0  0.88540  0.57969  0.81577  1.0000
  N   N78       1.0  0.81646  0.74718  0.70444  1.0000
  C   C1150     1.0  0.49793  0.74887  0.84605  1.0000
  H   H1375     1.0  0.47580  0.87980  0.76559  1.0000
  H   H1376     1.0  0.78369  0.62249  0.75342  1.0000
  H   H1377     1.0  0.62814  0.84980  0.68215  1.0000
  S   S299      1.0  0.71295  0.69216  0.72393  1.0000
  Fe  Fe148     1.0  0.70557  0.70914  0.82245  1.0000
  H   H1378     1.0  0.62627  0.00577  0.77968  1.0000
  C   C1151     1.0  0.75873  0.04891  0.77339  1.0000
  C   C1152     1.0  0.87698  0.89044  0.82916  1.0000
  S   S300      1.0  0.64091  0.64245  0.73054  1.0000
  S   S301      1.0  0.84239  0.62117  0.76929  1.0000
  S   S302      1.0  0.53417  0.95779  0.75905  1.0000
  C   C1153     1.0  0.79854  0.01490  0.77188  1.0000
  H   H1379     1.0  0.74933  0.02985  0.64548  1.0000
  H   H1380     1.0  0.66509  0.60029  0.81575  1.0000
  S   S303      1.0  0.50607  0.67172  0.78496  1.0000
  H   H1381     1.0  0.93843  0.59069  0.66292  1.0000
  H   H1382     1.0  0.92418  0.68294  0.85510  1.0000
  S   S304      1.0  0.48738  0.59606  0.71312  1.0000
  H   H1383     1.0  0.73661  0.05256  0.76986  1.0000
  C   C1154     1.0  0.87642  0.73107  0.82225  1.0000
  H   H1384     1.0  0.51657  0.90726  0.66176  1.0000
  H   H1385     1.0  0.89089  0.72678  0.85299  1.0000
  C   C1155     1.0  0.82892  0.77299  0.65229  1.0000
  S   S305      1.0  0.65674  0.69671  0.85471  1.0000
  S   S306      1.0  0.74845  0.98977  0.75239  1.0000
  C   C1156     1.0  0.90866  0.57792  0.81278  1.0000
  C   C1157     1.0  0.93758  0.61212  0.63402  1.0000
  H   H1386     1.0  0.62607  0.69576  0.61990  1.0000
  H   H1387     1.0  0.83075  0.71352  0.63554  1.0000
  C   C1158     1.0  0.59847  0.79766  0.83928  1.0000
  C   C1159     1.0  0.47773  0.80943  0.84427  1.0000
  H   H1388     1.0  0.86053  0.86860  0.75914  1.0000
  C   C1160     1.0  0.67930  0.84134  0.71578  1.0000
  C   C1161     1.0  0.55830  0.75604  0.65762  1.0000
  C   C1162     1.0  0.66430  0.95318  0.64100  1.0000
  H   H1389     1.0  0.68044  0.86393  0.73504  1.0000
  S   S307      1.0  0.89135  0.05146  0.69146  1.0000
  H   H1390     1.0  0.70181  0.00662  0.69492  1.0000
  C   C1163     1.0  0.56985  0.84261  0.78145  1.0000
  S   S308      1.0  0.75261  0.90635  0.71384  1.0000
  H   H1391     1.0  0.65022  0.88437  0.67100  1.0000
  C   C1164     1.0  0.83744  0.74134  0.74368  1.0000
  Fe  Fe149     1.0  0.81020  0.90453  0.80993  1.0000
  C   C1165     1.0  0.92031  0.66333  0.62815  1.0000
  C   C1166     1.0  0.59404  0.79407  0.77833  1.0000
  C   C1167     1.0  0.87930  0.87203  0.77776  1.0000
  S   S309      1.0  0.59608  0.02184  0.68202  1.0000
  H   H1392     1.0  0.66521  0.57858  0.71351  1.0000
  H   H1393     1.0  0.54051  0.62512  0.71564  1.0000
  Fe  Fe150     1.0  0.76998  0.94512  0.75512  1.0000
  H   H1394     1.0  0.64589  0.93621  0.65999  1.0000
  Fe  Fe151     1.0  0.74878  0.87913  0.80991  1.0000
  H   H1395     1.0  0.56891  0.92784  0.64906  1.0000
  H   H1396     1.0  0.74690  0.65145  0.62699  1.0000
  C   C1168     1.0  0.81597  0.03936  0.78181  1.0000
  C   C1169     1.0  0.57339  0.84547  0.84325  1.0000
  C   C1170     1.0  0.78525  0.63814  0.78863  1.0000
  C   C1171     1.0  0.77007  0.01982  0.76687  1.0000
  C   C1172     1.0  0.81076  0.63987  0.80951  1.0000
  H   H1397     1.0  0.66065  0.82728  0.75262  1.0000
  C   C1173     1.0  0.66902  0.81277  0.63379  1.0000
  C   C1174     1.0  0.86281  0.75893  0.82074  1.0000
  Fe  Fe152     1.0  0.48897  0.64712  0.71544  1.0000
  H   H1398     1.0  0.77005  0.75674  0.72195  1.0000
  C   C1175     1.0  0.92252  0.60235  0.83247  1.0000
  C   C1176     1.0  0.47581  0.75621  0.81673  1.0000
  C   C1177     1.0  0.93041  0.86275  0.77419  1.0000
  H   H1399     1.0  0.59307  0.61295  0.69626  1.0000
  H   H1400     1.0  0.92825  0.80978  0.86498  1.0000
  H   H1401     1.0  0.88589  0.00483  0.83515  1.0000
  H   H1402     1.0  0.62601  0.57111  0.75174  1.0000
  C   C1178     1.0  0.90600  0.85795  0.75054  1.0000
  H   H1403     1.0  0.83785  0.03536  0.78568  1.0000
  H   H1404     1.0  0.70000  0.90144  0.65259  1.0000
  H   H1405     1.0  0.53937  0.79868  0.63665  1.0000
  C   C1179     1.0  0.56166  0.67976  0.79885  1.0000
  H   H1406     1.0  0.70021  0.83030  0.71609  1.0000
  Fe  Fe153     1.0  0.51731  0.96440  0.86597  1.0000
  H   H1407     1.0  0.73762  0.79721  0.68686  1.0000
  H   H1408     1.0  0.90750  0.68138  0.65233  1.0000
  H   H1409     1.0  0.49963  0.84885  0.74490  1.0000
  C   C1180     1.0  0.69621  0.99370  0.65905  1.0000
  Fe  Fe154     1.0  0.92854  0.05205  0.73687  1.0000
  S   S310      1.0  0.79481  0.86174  0.77581  1.0000
  H   H1410     1.0  0.80073  0.69997  0.70886  1.0000
  H   H1411     1.0  0.49057  0.76546  0.66792  1.0000
  H   H1412     1.0  0.88182  0.68673  0.78607  1.0000
  H   H1413     1.0  0.60184  0.77412  0.75343  1.0000
  H   H1414     1.0  0.55302  0.69845  0.82731  1.0000
  S   S311      1.0  0.55783  0.99293  0.86466  1.0000
  H   H1415     1.0  0.95042  0.01658  0.63207  1.0000
  C   C1181     1.0  0.57734  0.73332  0.63191  1.0000
  C   C1182     1.0  0.67350  0.97055  0.68370  1.0000
  C   C1183     1.0  0.64899  0.86222  0.65049  1.0000
  H   H1416     1.0  0.78882  0.77856  0.76559  1.0000
  S   S312      1.0  0.70066  0.75775  0.78588  1.0000
  H   H1417     1.0  0.50515  0.72561  0.84828  1.0000
  C   C1184     1.0  0.59169  0.67335  0.78645  1.0000
  S   S313      1.0  0.59743  0.94099  0.78400  1.0000
  H   H1418     1.0  0.47649  0.93532  0.81749  1.0000
  H   H1419     1.0  0.66278  0.96638  0.73631  1.0000
  C   C1185     1.0  0.48056  0.76412  0.62860  1.0000
  H   H1420     1.0  0.83380  0.78615  0.78198  1.0000
  Fe  Fe155     1.0  0.57560  0.98341  0.76006  1.0000
  C   C1186     1.0  0.85216  0.71340  0.74542  1.0000
  Fe  Fe156     1.0  0.66354  0.68392  0.75257  1.0000
  C   C1187     1.0  0.75469  0.80541  0.64237  1.0000
  H   H1421     1.0  0.66510  0.03454  0.81194  1.0000
  S   S314      1.0  0.48261  0.82728  0.61839  1.0000
  C   C1188     1.0  0.92807  0.88126  0.82517  1.0000
  Fe  Fe157     1.0  0.65198  0.74420  0.81095  1.0000
  H   H1422     1.0  0.88195  0.96405  0.85327  1.0000
  C   C1189     1.0  0.60304  0.64923  0.74958  1.0000
  C   C1190     1.0  0.90137  0.89487  0.85290  1.0000
  H   H1423     1.0  0.74206  0.65511  0.79682  1.0000
  Fe  Fe158     1.0  0.55428  0.91570  0.79220  1.0000
  S   S315      1.0  0.94847  0.00965  0.76846  1.0000
  Fe  Fe159     1.0  0.79940  0.89206  0.68208  1.0000
  H   H1424     1.0  0.54627  0.75390  0.70977  1.0000
  N   N79       1.0  0.67537  0.84425  0.64902  1.0000
  C   C1191     1.0  0.57938  0.81646  0.74974  1.0000
  C   C1192     1.0  0.55453  0.63841  0.73616  1.0000
  S   S316      1.0  0.70437  0.85303  0.84955  1.0000
  S   S317      1.0  0.55530  0.87260  0.74210  1.0000
  S   S318      1.0  0.74041  0.58607  0.62450  1.0000
  H   H1425     1.0  0.84877  0.69454  0.71861  1.0000
  C   C1193     1.0  0.58435  0.63146  0.72525  1.0000
  C   C1194     1.0  0.65612  0.04492  0.77447  1.0000
  H   H1426     1.0  0.62694  0.58866  0.85341  1.0000
  H   H1427     1.0  0.68806  0.79806  0.63251  1.0000
  C   C1195     1.0  0.87132  0.70851  0.78427  1.0000
  H   H1428     1.0  0.90697  0.63114  0.71503  1.0000
  H   H1429     1.0  0.46203  0.84513  0.74351  1.0000
  C   C1196     1.0  0.84376  0.76416  0.78174  1.0000
  C   C1197     1.0  0.54312  0.66251  0.77303  1.0000
  H   H1430     1.0  0.90922  0.91711  0.66563  1.0000
  H   H1431     1.0  0.64360  0.85518  0.84815  1.0000
  Fe  Fe160     1.0  0.70499  0.73996  0.68845  1.0000
  H   H1432     1.0  0.83123  0.79507  0.67286  1.0000
  S   S319      1.0  0.65563  0.73065  0.71023  1.0000
  H   H1433     1.0  0.76850  0.84357  0.68417  1.0000
  C   C1198     1.0  0.47651  0.85438  0.77093  1.0000
  C   C1199     1.0  0.78749  0.75565  0.74772  1.0000
  H   H1434     1.0  0.57901  0.71433  0.66664  1.0000
  C   C1200     1.0  0.90346  0.96367  0.63121  1.0000
  N   N80       1.0  0.46744  0.84112  0.84081  1.0000
  H   H1435     1.0  0.91002  0.62204  0.84907  1.0000
  H   H1436     1.0  0.50455  0.86579  0.85726  1.0000
  H   H1437     1.0  0.47910  0.71457  0.63640  1.0000
  H   H1438     1.0  0.86695  0.77655  0.85004  1.0000
  H   H1439     1.0  0.81445  0.77716  0.61975  1.0000
  H   H1440     1.0  0.85138  0.76819  0.62061  1.0000
  S   S320      1.0  0.81110  0.63852  0.61906  1.0000
