data_image0
_chemical_formula_structural       HC2FeHCSHCH2C3H2SCHSC2FeC2SH3NH2CSC2H4CFeCHC2H2CHCSH4FeHSHCHSHFeCHFeC2H2CH4SC6HS2H2CHFeHCH3SHFeHCHC2HSCSHC3HC2H4SC2H2CH6CHCH3SHCH2CSFeC3H3NHCSCNC4SC2SFeCHC5HCHC2HFeH3CNC2HNH2S2H3C3H2C2HSH2SHCSHSH3C2SCHC3HC2HC3HCFe2C2H2FeSHFeH2CH2CS2CH2CH4CH3C2HCH2CHCHCHC3H3CHCFeH2CH2SFeSHCHC2HCS2HCHSFeC2H2CSH6FeH2C3SHSCH2C2H2SFeH3CSNHC2HNSC2HC2H5CHCH5C2HCH3CHCHC2H2CH3CHCHCHSC2H2C3HNHC2HCSHCHC7H2SC3HCFeH2CH4CHCNCH3CH2CH2SH4CHCSCH2SCH2CH2CH2C2HCHSHCSHNSH2C4H2C2SFe2CFeNCHSHCHCHSC4HSHCH2C2H3SHSFeH2CHSHNHCH2C3HCH2SH7CHSHCHCH3C2HCFeHCHNC3H2CHC3HSCFeHNHNH4SH3FeHFe2SHCFeS2CHSCH2CHFeC2HNH3CH3CHFeHCHSCFeSCFeSC2HCH2SFeC5SHCSCHSC2NH2SC4H2CH3C3HC2H2CHNHFeH3NH2Fe2HCHCFeH3CH2SHC2SH2FeCHCH2CH3NCHCSHCH2CHSC2HCSCFeHCHSHS2CH3CHC3HC3SH3CH2C2H2NHC4HCSCHC4HCFe2HSH3CHC3NHCH4FeCHSC2HSC3H2CSCFe2SC2HFeHCHS2H3SCHFeSFeH4SCHSH3C4HC2H2C3H2SC2NHC2H2FeC3HCSH3SCH3C2FeHSC3SHCH2CH2C2HFeC2HSFeHCH3CH3NHCHCHS2CHCFeCH3C2SFeH3CHS3HFeH2SCH4CSHC2H7CHC2HC2SHSHCH2CN2C4SC2H5C3FeCHCH2SH2NC3H6CHC2FeH3C2H3C3SHCHC7HC2H4CH4SCSHSHCH3SC3H2SH2C2HSH2CHCHC2H2CH2CHFeH3CSCNC2H2CHSH3CH2CH2CHC2HC2HC2FeCH2CHC2NC3H3CHC2SCHSCHCHC4H2C2HCH2CH4C2NSH2C3SFeHFeHCFeHCH3NS3CHC3H2SHSHCH3C2HFeNCHCH2CH4FeC4H2CHC2H5CHC3H2CHC2H3CH4NHCHCFeSC2HCH2CSC2HCHC2SCH3C6H2CHSC2NCHC2SH2C4HC3HFeCH2CHCH4C3H2SCFeSH3C3SNH2SHCNHC3H2CH2CH2FeHSC2H5C2HC3H2C2SCHC2H3CFeHSCH4CHSCSCH5C3H4CHFeH
_chemical_formula_sum              "H648 C540 Fe72 S144 N36"
_cell_length_a       31.7072
_cell_length_b       29.442
_cell_length_c       28.3769
_cell_angle_alpha    105.468
_cell_angle_beta     95.7351
_cell_angle_gamma    125.335

_space_group_name_H-M_alt    "P 1"
_space_group_IT_number       1

loop_
  _space_group_symop_operation_xyz
  'x, y, z'

loop_
  _atom_site_type_symbol
  _atom_site_label
  _atom_site_symmetry_multiplicity
  _atom_site_fract_x
  _atom_site_fract_y
  _atom_site_fract_z
  _atom_site_occupancy
  H   H1        1.0  0.73515  0.60468  0.71211  1.0000
  C   C1        1.0  0.64708  0.81691  0.74606  1.0000
  C   C2        1.0  0.80149  0.73846  0.69882  1.0000
  Fe  Fe1       1.0  0.53958  0.83913  0.58866  1.0000
  H   H2        1.0  0.78842  0.63905  0.68496  1.0000
  C   C3        1.0  0.46880  0.81568  0.75022  1.0000
  S   S1        1.0  0.55883  0.71374  0.66614  1.0000
  H   H3        1.0  0.64426  0.92765  0.69011  1.0000
  C   C4        1.0  0.75282  0.75654  0.77337  1.0000
  H   H4        1.0  0.72760  0.63555  0.61860  1.0000
  H   H5        1.0  0.83577  0.76775  0.73599  1.0000
  C   C5        1.0  0.62850  0.76864  0.70019  1.0000
  C   C6        1.0  0.51893  0.92769  0.65367  1.0000
  C   C7        1.0  0.79538  0.50224  0.64118  1.0000
  H   H6        1.0  0.48822  0.51707  0.60784  1.0000
  H   H7        1.0  0.74085  0.55513  0.55935  1.0000
  S   S2        1.0  0.88116  0.89746  0.58010  1.0000
  C   C8        1.0  0.72182  0.81415  0.70397  1.0000
  H   H8        1.0  0.61802  0.81883  0.76137  1.0000
  S   S3        1.0  0.80855  0.93038  0.76910  1.0000
  C   C9        1.0  0.70327  0.86446  0.77058  1.0000
  C   C10       1.0  0.67375  0.94116  0.72609  1.0000
  Fe  Fe2       1.0  0.84043  0.92276  0.70295  1.0000
  C   C11       1.0  0.45318  0.73757  0.77701  1.0000
  C   C12       1.0  0.68183  0.64815  0.74579  1.0000
  S   S4        1.0  0.59575  0.81627  0.58323  1.0000
  H   H9        1.0  0.62153  0.62175  0.78483  1.0000
  H   H10       1.0  0.66246  0.60133  0.72237  1.0000
  H   H11       1.0  0.88106  0.69720  0.62393  1.0000
  N   N1        1.0  0.75302  0.68332  0.70122  1.0000
  H   H12       1.0  0.67438  0.60267  0.64599  1.0000
  H   H13       1.0  0.93651  0.52647  0.76745  1.0000
  C   C13       1.0  0.82173  0.52609  0.60731  1.0000
  S   S5        1.0  0.78117  0.87185  0.62286  1.0000
  C   C14       1.0  0.53253  0.97518  0.69749  1.0000
  C   C15       1.0  0.72960  0.69650  0.74019  1.0000
  H   H14       1.0  0.75058  0.81257  0.68802  1.0000
  H   H15       1.0  0.91788  0.61326  0.70602  1.0000
  H   H16       1.0  0.65148  0.72859  0.64467  1.0000
  H   H17       1.0  0.80104  0.67568  0.75243  1.0000
  C   C16       1.0  0.49445  0.55325  0.64072  1.0000
  Fe  Fe3       1.0  0.53829  0.74111  0.60698  1.0000
  C   C17       1.0  0.66582  0.76630  0.67989  1.0000
  H   H18       1.0  0.64961  0.91832  0.74984  1.0000
  C   C18       1.0  0.45706  0.58472  0.69792  1.0000
  C   C19       1.0  0.71153  0.64663  0.64906  1.0000
  H   H19       1.0  0.50735  0.59059  0.62774  1.0000
  H   H20       1.0  0.69475  0.92231  0.71418  1.0000
  C   C20       1.0  0.74040  0.86458  0.74775  1.0000
  H   H21       1.0  0.94061  0.52950  0.70587  1.0000
  C   C21       1.0  0.65813  0.65929  0.78146  1.0000
  S   S6        1.0  0.87576  0.87525  0.68781  1.0000
  H   H22       1.0  0.52934  0.57067  0.67353  1.0000
  H   H23       1.0  0.49196  0.60474  0.73210  1.0000
  H   H24       1.0  0.69782  0.96709  0.57743  1.0000
  H   H25       1.0  0.71751  0.90267  0.80518  1.0000
  Fe  Fe4       1.0  0.82005  0.82820  0.60669  1.0000
  H   H26       1.0  0.53161  0.81117  0.77723  1.0000
  S   S7        1.0  0.57034  0.93402  0.63002  1.0000
  H   H27       1.0  0.69848  0.67158  0.63856  1.0000
  C   C22       1.0  0.48870  0.79032  0.76919  1.0000
  H   H28       1.0  0.91518  0.80261  0.66696  1.0000
  S   S8        1.0  0.48730  0.76980  0.61915  1.0000
  H   H29       1.0  0.88750  0.52473  0.72769  1.0000
  Fe  Fe5       1.0  0.84791  0.94589  0.60495  1.0000
  C   C23       1.0  0.72806  0.51353  0.61402  1.0000
  H   H30       1.0  0.46915  0.62217  0.68535  1.0000
  Fe  Fe6       1.0  0.93468  0.94725  0.66285  1.0000
  C   C24       1.0  0.92463  0.73470  0.63932  1.0000
  C   C25       1.0  0.49263  0.96767  0.71986  1.0000
  H   H31       1.0  0.79070  0.76520  0.68875  1.0000
  H   H32       1.0  0.78959  0.79641  0.77281  1.0000
  C   C26       1.0  0.77005  0.64914  0.71328  1.0000
  H   H33       1.0  0.81721  0.72691  0.66829  1.0000
  H   H34       1.0  0.49625  0.85602  0.74303  1.0000
  H   H35       1.0  0.92642  0.67793  0.77979  1.0000
  H   H36       1.0  0.46871  0.71735  0.79071  1.0000
  S   S9        1.0  0.77205  0.72745  0.56897  1.0000
  C   C27       1.0  0.93129  0.54536  0.74041  1.0000
  C   C28       1.0  0.46473  0.87396  0.63064  1.0000
  C   C29       1.0  0.80337  0.54765  0.57964  1.0000
  C   C30       1.0  0.74933  0.49723  0.64538  1.0000
  C   C31       1.0  0.75581  0.54010  0.58204  1.0000
  C   C32       1.0  0.94390  0.79407  0.66348  1.0000
  H   H37       1.0  0.45372  0.83784  0.59588  1.0000
  S   S10       1.0  0.87573  0.52581  0.59880  1.0000
  S   S11       1.0  0.66563  0.49757  0.61454  1.0000
  H   H38       1.0  0.88341  0.80216  0.57137  1.0000
  H   H39       1.0  0.80937  0.48573  0.66284  1.0000
  C   C33       1.0  0.46673  0.85394  0.96135  1.0000
  H   H40       1.0  0.52076  0.75034  0.00407  1.0000
  Fe  Fe7       1.0  0.67163  0.83183  0.93389  1.0000
  H   H41       1.0  0.74675  0.81318  0.83326  1.0000
  C   C34       1.0  0.44798  0.87220  0.88671  1.0000
  H   H42       1.0  0.57457  0.64693  0.85964  1.0000
  H   H43       1.0  0.93760  0.87085  0.95571  1.0000
  H   H44       1.0  0.81257  0.92478  0.86655  1.0000
  S   S12       1.0  0.54264  0.81907  0.91526  1.0000
  H   H45       1.0  0.92750  0.82453  0.01895  1.0000
  Fe  Fe8       1.0  0.60172  0.84935  0.98914  1.0000
  H   H46       1.0  0.74825  0.90747  0.03841  1.0000
  C   C35       1.0  0.52464  0.56504  0.93244  1.0000
  H   H47       1.0  0.65750  0.61857  0.04385  1.0000
  C   C36       1.0  0.52575  0.58206  0.89099  1.0000
  C   C37       1.0  0.82405  0.72610  0.87982  1.0000
  H   H48       1.0  0.66324  0.72770  0.84028  1.0000
  S   S13       1.0  0.47521  0.64676  0.83829  1.0000
  C   C38       1.0  0.47524  0.93410  0.91769  1.0000
  S   S14       1.0  0.67563  0.91191  0.96967  1.0000
  H   H49       1.0  0.75541  0.61242  0.01973  1.0000
  C   C39       1.0  0.71960  0.70080  0.00431  1.0000
  C   C40       1.0  0.68145  0.71872  0.81270  1.0000
  C   C41       1.0  0.62252  0.65082  0.97608  1.0000
  H   H50       1.0  0.90749  0.67648  0.92596  1.0000
  C   C42       1.0  0.91418  0.67869  0.85180  1.0000
  C   C43       1.0  0.72869  0.76706  0.80875  1.0000
  H   H51       1.0  0.89902  0.70371  0.85247  1.0000
  H   H52       1.0  0.45275  0.66265  0.02283  1.0000
  H   H53       1.0  0.79623  0.69829  0.84064  1.0000
  H   H54       1.0  0.48641  0.52619  0.93245  1.0000
  S   S15       1.0  0.88514  0.81679  0.84647  1.0000
  C   C44       1.0  0.91469  0.63828  0.03365  1.0000
  C   C45       1.0  0.89791  0.79720  0.98062  1.0000
  H   H55       1.0  0.82137  0.82685  0.98505  1.0000
  H   H56       1.0  0.69175  0.77273  0.02051  1.0000
  C   C46       1.0  0.78184  0.86528  0.00591  1.0000
  H   H57       1.0  0.71146  0.65751  0.98308  1.0000
  H   H58       1.0  0.93411  0.93502  0.86981  1.0000
  H   H59       1.0  0.93034  0.95696  0.95286  1.0000
  H   H60       1.0  0.65817  0.70707  0.93210  1.0000
  H   H61       1.0  0.60669  0.94513  0.96118  1.0000
  H   H62       1.0  0.51278  0.93092  0.03403  1.0000
  C   C47       1.0  0.81588  0.85121  0.01646  1.0000
  H   H63       1.0  0.75785  0.72932  0.03742  1.0000
  C   C48       1.0  0.68506  0.74901  0.04688  1.0000
  H   H64       1.0  0.48014  0.93075  0.81957  1.0000
  H   H65       1.0  0.67008  0.54282  0.94523  1.0000
  H   H66       1.0  0.81550  0.95914  0.93040  1.0000
  S   S16       1.0  0.74566  0.83814  0.94142  1.0000
  H   H67       1.0  0.86950  0.93642  0.96724  1.0000
  C   C49       1.0  0.88947  0.94362  0.93692  1.0000
  H   H68       1.0  0.48861  0.55698  0.85913  1.0000
  H   H69       1.0  0.94485  0.62202  0.92611  1.0000
  C   C50       1.0  0.67034  0.53517  0.98055  1.0000
  S   S17       1.0  0.63106  0.94831  0.86686  1.0000
  Fe  Fe9       1.0  0.61654  0.87667  0.89359  1.0000
  C   C51       1.0  0.47338  0.70841  0.05037  1.0000
  C   C52       1.0  0.71853  0.57441  0.02236  1.0000
  C   C53       1.0  0.93998  0.63286  0.89336  1.0000
  H   H70       1.0  0.72973  0.72597  0.97882  1.0000
  H   H71       1.0  0.56783  0.58356  0.00579  1.0000
  H   H72       1.0  0.78663  0.65152  0.90398  1.0000
  N   N2        1.0  0.67284  0.68995  0.02129  1.0000
  H   H73       1.0  0.88510  0.62175  0.99768  1.0000
  C   C54       1.0  0.77469  0.89667  0.04653  1.0000
  S   S18       1.0  0.60322  0.77191  0.96050  1.0000
  C   C55       1.0  0.57212  0.59871  0.97456  1.0000
  N   N3        1.0  0.47887  0.97458  0.89354  1.0000
  C   C56       1.0  0.91912  0.66353  0.89339  1.0000
  C   C57       1.0  0.51217  0.75804  0.03986  1.0000
  C   C58       1.0  0.49411  0.91449  0.99289  1.0000
  C   C59       1.0  0.90365  0.82337  0.94469  1.0000
  S   S19       1.0  0.61721  0.79976  0.85598  1.0000
  C   C60       1.0  0.57440  0.63265  0.89119  1.0000
  C   C61       1.0  0.49853  0.95427  0.97165  1.0000
  S   S20       1.0  0.85375  0.69954  0.00731  1.0000
  Fe  Fe10      1.0  0.54824  0.74500  0.88490  1.0000
  C   C62       1.0  0.81879  0.69967  0.91560  1.0000
  H   H74       1.0  0.86388  0.89834  0.90389  1.0000
  C   C63       1.0  0.83720  0.96816  0.90140  1.0000
  C   C64       1.0  0.93927  0.96983  0.85917  1.0000
  C   C65       1.0  0.62210  0.66667  0.93298  1.0000
  C   C66       1.0  0.86794  0.78742  0.89380  1.0000
  C   C67       1.0  0.85652  0.73502  0.96567  1.0000
  H   H75       1.0  0.45179  0.71280  0.91224  1.0000
  C   C68       1.0  0.92988  0.66319  0.80993  1.0000
  H   H76       1.0  0.46414  0.82362  0.97804  1.0000
  C   C69       1.0  0.62273  0.48585  0.98383  1.0000
  C   C70       1.0  0.50579  0.97497  0.85359  1.0000
  H   H77       1.0  0.85509  0.57212  0.05739  1.0000
  Fe  Fe11      1.0  0.89287  0.76252  0.09136  1.0000
  H   H78       1.0  0.69043  0.58020  0.19035  1.0000
  H   H79       1.0  0.45433  0.48548  0.29196  1.0000
  H   H80       1.0  0.65507  0.81262  0.26049  1.0000
  C   C71       1.0  0.72525  0.73650  0.21817  1.0000
  N   N4        1.0  0.67947  0.88318  0.20481  1.0000
  C   C72       1.0  0.52732  0.82697  0.12151  1.0000
  C   C73       1.0  0.83331  0.89646  0.10824  1.0000
  H   H81       1.0  0.73556  0.78056  0.22705  1.0000
  N   N5        1.0  0.91639  0.60115  0.15211  1.0000
  H   H82       1.0  0.45668  0.85120  0.16771  1.0000
  H   H83       1.0  0.94433  0.60696  0.22780  1.0000
  S   S21       1.0  0.82911  0.75373  0.12472  1.0000
  S   S22       1.0  0.92999  0.75147  0.15468  1.0000
  H   H84       1.0  0.65196  0.91972  0.16592  1.0000
  H   H85       1.0  0.63573  0.94154  0.24012  1.0000
  H   H86       1.0  0.83539  0.57529  0.13150  1.0000
  C   C74       1.0  0.66854  0.66415  0.06075  1.0000
  C   C75       1.0  0.44640  0.77777  0.30404  1.0000
  C   C76       1.0  0.63026  0.91028  0.25675  1.0000
  H   H87       1.0  0.88615  0.64759  0.18431  1.0000
  H   H88       1.0  0.88328  0.51375  0.15313  1.0000
  C   C77       1.0  0.75401  0.67508  0.20869  1.0000
  C   C78       1.0  0.93532  0.63194  0.11634  1.0000
  H   H89       1.0  0.61660  0.58889  0.18714  1.0000
  S   S23       1.0  0.47098  0.61511  0.19230  1.0000
  H   H90       1.0  0.67591  0.50866  0.10663  1.0000
  H   H91       1.0  0.57951  0.50847  0.29105  1.0000
  S   S24       1.0  0.62296  0.69671  0.20758  1.0000
  H   H92       1.0  0.75900  0.94224  0.26143  1.0000
  C   C79       1.0  0.69998  0.62360  0.19754  1.0000
  S   S25       1.0  0.86146  0.91034  0.17157  1.0000
  H   H93       1.0  0.85723  0.57802  0.19266  1.0000
  S   S26       1.0  0.80755  0.67173  0.21090  1.0000
  H   H94       1.0  0.79538  0.93692  0.12932  1.0000
  H   H95       1.0  0.66318  0.82644  0.12799  1.0000
  H   H96       1.0  0.72916  0.86392  0.23837  1.0000
  C   C80       1.0  0.48798  0.77731  0.13169  1.0000
  C   C81       1.0  0.61145  0.83058  0.30334  1.0000
  S   S27       1.0  0.49005  0.51854  0.13812  1.0000
  C   C82       1.0  0.82260  0.53090  0.28728  1.0000
  H   H97       1.0  0.63796  0.66061  0.07931  1.0000
  C   C83       1.0  0.65111  0.87852  0.24396  1.0000
  C   C84       1.0  0.84075  0.86578  0.06746  1.0000
  C   C85       1.0  0.60075  0.90190  0.29151  1.0000
  H   H98       1.0  0.65058  0.74269  0.05956  1.0000
  C   C86       1.0  0.76634  0.73132  0.21874  1.0000
  C   C87       1.0  0.69040  0.93010  0.18568  1.0000
  H   H99       1.0  0.75602  0.90438  0.19870  1.0000
  C   C88       1.0  0.87210  0.60069  0.16561  1.0000
  C   C89       1.0  0.89495  0.53763  0.12653  1.0000
  C   C90       1.0  0.64097  0.83868  0.26862  1.0000
  H   H100      1.0  0.74172  0.51320  0.18679  1.0000
  C   C91       1.0  0.80109  0.91302  0.09785  1.0000
  Fe  Fe12      1.0  0.45193  0.50995  0.06183  1.0000
  Fe  Fe13      1.0  0.53516  0.61825  0.16297  1.0000
  C   C92       1.0  0.64535  0.82385  0.15993  1.0000
  C   C93       1.0  0.73293  0.89891  0.22668  1.0000
  H   H101      1.0  0.71229  0.93335  0.15685  1.0000
  H   H102      1.0  0.85787  0.51044  0.09229  1.0000
  Fe  Fe14      1.0  0.86841  0.74781  0.18986  1.0000
  S   S28       1.0  0.92286  0.84820  0.23658  1.0000
  H   H103      1.0  0.57375  0.97910  0.16871  1.0000
  Fe  Fe15      1.0  0.88848  0.85417  0.16778  1.0000
  H   H104      1.0  0.80801  0.77141  0.22836  1.0000
  H   H105      1.0  0.75706  0.59535  0.10018  1.0000
  C   C94       1.0  0.67121  0.68522  0.20641  1.0000
  H   H106      1.0  0.54867  0.87275  0.14946  1.0000
  H   H107      1.0  0.64070  0.78769  0.17033  1.0000
  C   C95       1.0  0.65828  0.62848  0.19561  1.0000
  S   S29       1.0  0.59094  0.87980  0.06470  1.0000
  S   S30       1.0  0.50241  0.61047  0.08512  1.0000
  C   C96       1.0  0.53953  0.81737  0.07559  1.0000
  H   H108      1.0  0.47937  0.78484  0.16763  1.0000
  H   H109      1.0  0.60355  0.80842  0.14442  1.0000
  C   C97       1.0  0.46075  0.71805  0.09598  1.0000
  H   H110      1.0  0.86515  0.85253  0.07508  1.0000
  H   H111      1.0  0.92590  0.53580  0.11310  1.0000
  H   H112      1.0  0.70787  0.69346  0.09303  1.0000
  H   H113      1.0  0.58480  0.92623  0.30009  1.0000
  C   C98       1.0  0.89782  0.61055  0.06838  1.0000
  H   H114      1.0  0.72267  0.78026  0.08139  1.0000
  H   H115      1.0  0.44731  0.64943  0.30836  1.0000
  H   H116      1.0  0.85938  0.55983  0.27847  1.0000
  C   C99       1.0  0.49282  0.49317  0.30534  1.0000
  C   C100      1.0  0.67242  0.51505  0.07109  1.0000
  H   H117      1.0  0.52537  0.53714  0.30379  1.0000
  C   C101      1.0  0.71944  0.56465  0.06765  1.0000
  H   H118      1.0  0.65749  0.48616  0.20596  1.0000
  H   H119      1.0  0.71614  0.97588  0.21779  1.0000
  C   C102      1.0  0.86347  0.75637  0.54512  1.0000
  H   H120      1.0  0.64067  0.94815  0.42525  1.0000
  C   C103      1.0  0.71670  0.80847  0.38073  1.0000
  H   H121      1.0  0.79352  0.59071  0.45427  1.0000
  C   C104      1.0  0.89149  0.74385  0.51624  1.0000
  H   H122      1.0  0.76822  0.77178  0.48281  1.0000
  C   C105      1.0  0.74425  0.78544  0.36905  1.0000
  C   C106      1.0  0.83205  0.97920  0.50304  1.0000
  C   C107      1.0  0.84423  0.94256  0.47735  1.0000
  H   H123      1.0  0.60038  0.90488  0.53723  1.0000
  H   H124      1.0  0.57257  0.89644  0.47392  1.0000
  H   H125      1.0  0.74950  0.77943  0.33147  1.0000
  C   C108      1.0  0.60700  0.64414  0.46159  1.0000
  H   H126      1.0  0.85041  0.79993  0.47467  1.0000
  C   C109      1.0  0.80947  0.70982  0.53937  1.0000
  Fe  Fe16      1.0  0.60996  0.52768  0.45639  1.0000
  H   H127      1.0  0.82958  0.60534  0.33779  1.0000
  H   H128      1.0  0.93286  0.78037  0.51978  1.0000
  C   C110      1.0  0.76506  0.77240  0.40560  1.0000
  H   H129      1.0  0.61119  0.63054  0.49238  1.0000
  H   H130      1.0  0.48107  0.87037  0.34706  1.0000
  S   S31       1.0  0.46880  0.97234  0.36217  1.0000
  Fe  Fe17      1.0  0.53759  0.75057  0.50265  1.0000
  S   S32       1.0  0.56228  0.74008  0.43162  1.0000
  H   H131      1.0  0.46308  0.77398  0.33665  1.0000
  C   C111      1.0  0.83014  0.95984  0.40040  1.0000
  H   H132      1.0  0.72717  0.65672  0.37029  1.0000
  C   C112      1.0  0.70238  0.96119  0.53835  1.0000
  C   C113      1.0  0.86609  0.68419  0.48301  1.0000
  H   H133      1.0  0.79190  0.67376  0.39294  1.0000
  C   C114      1.0  0.85206  0.79498  0.43490  1.0000
  S   S33       1.0  0.90202  0.53312  0.38949  1.0000
  S   S34       1.0  0.64368  0.58660  0.41212  1.0000
  H   H134      1.0  0.46258  0.51971  0.43419  1.0000
  C   C115      1.0  0.66644  0.94435  0.45088  1.0000
  H   H135      1.0  0.85431  0.90619  0.40642  1.0000
  S   S35       1.0  0.82384  0.51341  0.46169  1.0000
  Fe  Fe18      1.0  0.88852  0.53318  0.52394  1.0000
  C   C116      1.0  0.60604  0.90194  0.49878  1.0000
  C   C117      1.0  0.78467  0.64979  0.50761  1.0000
  H   H136      1.0  0.60373  0.79912  0.32098  1.0000
  H   H137      1.0  0.71975  0.81152  0.50144  1.0000
  C   C118      1.0  0.62159  0.62974  0.41847  1.0000
  S   S36       1.0  0.83102  0.95209  0.33716  1.0000
  H   H138      1.0  0.85371  0.92121  0.49675  1.0000
  H   H139      1.0  0.82761  0.72658  0.33751  1.0000
  H   H140      1.0  0.48012  0.63199  0.34595  1.0000
  H   H141      1.0  0.69957  0.92013  0.52366  1.0000
  H   H142      1.0  0.62916  0.63828  0.34608  1.0000
  H   H143      1.0  0.56781  0.85517  0.34100  1.0000
  Fe  Fe19      1.0  0.89304  0.59165  0.44907  1.0000
  H   H144      1.0  0.59581  0.97899  0.54858  1.0000
  H   H145      1.0  0.60040  0.85941  0.48185  1.0000
  C   C119      1.0  0.84395  0.93349  0.42608  1.0000
  C   C120      1.0  0.80563  0.55640  0.32059  1.0000
  C   C121      1.0  0.75844  0.51930  0.33250  1.0000
  S   S37       1.0  0.49250  0.91709  0.46351  1.0000
  H   H146      1.0  0.87749  0.78065  0.42849  1.0000
  S   S38       1.0  0.48505  0.67333  0.52586  1.0000
  C   C122      1.0  0.58919  0.67851  0.46604  1.0000
  H   H147      1.0  0.57992  0.69138  0.50035  1.0000
  H   H148      1.0  0.82576  0.57015  0.55637  1.0000
  C   C123      1.0  0.61745  0.64884  0.37931  1.0000
  C   C124      1.0  0.75496  0.78207  0.45353  1.0000
  H   H149      1.0  0.87408  0.84082  0.43409  1.0000
  H   H150      1.0  0.74275  0.61366  0.50298  1.0000
  S   S39       1.0  0.59605  0.54278  0.53333  1.0000
  Fe  Fe20      1.0  0.61842  0.48447  0.54064  1.0000
  H   H151      1.0  0.74796  0.54153  0.35965  1.0000
  H   H152      1.0  0.68714  0.83629  0.43748  1.0000
  H   H153      1.0  0.59461  0.69598  0.35246  1.0000
  C   C125      1.0  0.59788  0.68144  0.38291  1.0000
  S   S40       1.0  0.48490  0.77823  0.50641  1.0000
  N   N6        1.0  0.66056  0.95593  0.50317  1.0000
  H   H154      1.0  0.70224  0.81917  0.35262  1.0000
  C   C126      1.0  0.70870  0.81876  0.42862  1.0000
  C   C127      1.0  0.81323  0.63687  0.47980  1.0000
  H   H155      1.0  0.65450  0.89840  0.43215  1.0000
  N   N7        1.0  0.79681  0.75084  0.39574  1.0000
  S   S41       1.0  0.90001  0.67004  0.44410  1.0000
  C   C128      1.0  0.72729  0.80500  0.46473  1.0000
  C   C129      1.0  0.58461  0.69717  0.42671  1.0000
  H   H156      1.0  0.76358  0.69292  0.43773  1.0000
  C   C130      1.0  0.76880  0.69111  0.39932  1.0000
  C   C131      1.0  0.80389  0.74317  0.34400  1.0000
  H   H157      1.0  0.82636  0.78679  0.33884  1.0000
  H   H158      1.0  0.45235  0.90801  0.55011  1.0000
  H   H159      1.0  0.46884  0.59754  0.41204  1.0000
  H   H160      1.0  0.76369  0.70902  0.31278  1.0000
  H   H161      1.0  0.50074  0.49970  0.34667  1.0000
  C   C132      1.0  0.59115  0.86195  0.31455  1.0000
  H   H162      1.0  0.70926  0.97663  0.45171  1.0000
  C   C133      1.0  0.45665  0.83209  0.30981  1.0000
  H   H163      1.0  0.83608  0.24230  0.64174  1.0000
  H   H164      1.0  0.65785  0.38410  0.58355  1.0000
  H   H165      1.0  0.50337  0.00418  0.75401  1.0000
  H   H166      1.0  0.68983  0.16501  0.57254  1.0000
  H   H167      1.0  0.84679  0.05097  0.67563  1.0000
  C   C134      1.0  0.78582  0.03060  0.71312  1.0000
  C   C135      1.0  0.45713  0.22950  0.56443  1.0000
  H   H168      1.0  0.72847  0.47765  0.67090  1.0000
  C   C136      1.0  0.92261  0.21589  0.62270  1.0000
  H   H169      1.0  0.84362  0.26066  0.56286  1.0000
  H   H170      1.0  0.79452  0.00685  0.72999  1.0000
  H   H171      1.0  0.46170  0.06636  0.62086  1.0000
  C   C137      1.0  0.73342  0.06272  0.69380  1.0000
  H   H172      1.0  0.89059  0.32806  0.72743  1.0000
  C   C138      1.0  0.54516  0.31132  0.56342  1.0000
  H   H173      1.0  0.66058  0.01054  0.79656  1.0000
  C   C139      1.0  0.92924  0.39616  0.69632  1.0000
  C   C140      1.0  0.80479  0.08340  0.65615  1.0000
  H   H174      1.0  0.75393  0.10730  0.64093  1.0000
  H   H175      1.0  0.61059  0.07310  0.57883  1.0000
  C   C141      1.0  0.63580  0.27742  0.56140  1.0000
  H   H176      1.0  0.64789  0.01217  0.73538  1.0000
  H   H177      1.0  0.76805  0.00046  0.79722  1.0000
  H   H178      1.0  0.94190  0.46384  0.58211  1.0000
  C   C142      1.0  0.86340  0.28852  0.64449  1.0000
  H   H179      1.0  0.93616  0.02058  0.57041  1.0000
  C   C143      1.0  0.93403  0.40757  0.65157  1.0000
  H   H180      1.0  0.57406  0.01718  0.71484  1.0000
  C   C144      1.0  0.74963  0.02323  0.80342  1.0000
  H   H181      1.0  0.82732  0.10062  0.63061  1.0000
  S   S42       1.0  0.83229  0.99428  0.56695  1.0000
  C   C145      1.0  0.89411  0.33677  0.69277  1.0000
  C   C146      1.0  0.68144  0.02888  0.76926  1.0000
  H   H182      1.0  0.57375  0.35931  0.57216  1.0000
  H   H183      1.0  0.91601  0.21321  0.65884  1.0000
  C   C147      1.0  0.76353  0.08694  0.66201  1.0000
  C   C148      1.0  0.86813  0.29944  0.59955  1.0000
  C   C149      1.0  0.90393  0.35925  0.60166  1.0000
  H   H184      1.0  0.70079  0.06505  0.69530  1.0000
  N   N8        1.0  0.71295  0.00795  0.75460  1.0000
  H   H185      1.0  0.83683  0.15869  0.57985  1.0000
  C   C150      1.0  0.81576  0.05519  0.68155  1.0000
  C   C151      1.0  0.87793  0.18537  0.57818  1.0000
  H   H186      1.0  0.64241  0.29767  0.60326  1.0000
  C   C152      1.0  0.74468  0.03506  0.72145  1.0000
  S   S43       1.0  0.90504  0.00032  0.68613  1.0000
  H   H187      1.0  0.48859  0.32204  0.58948  1.0000
  C   C153      1.0  0.49629  0.29058  0.57398  1.0000
  H   H188      1.0  0.70846  0.07930  0.78832  1.0000
  C   C154      1.0  0.68443  0.12332  0.55985  1.0000
  C   C155      1.0  0.63990  0.07169  0.56329  1.0000
  C   C156      1.0  0.51037  0.03853  0.93070  1.0000
  C   C157      1.0  0.80127  0.20034  0.92781  1.0000
  C   C158      1.0  0.66382  0.10257  0.96253  1.0000
  C   C159      1.0  0.82010  0.16702  0.92442  1.0000
  C   C160      1.0  0.88641  0.28280  0.92330  1.0000
  H   H189      1.0  0.90946  0.35942  0.02489  1.0000
  H   H190      1.0  0.93134  0.31583  0.02799  1.0000
  S   S44       1.0  0.65049  0.13846  0.05609  1.0000
  C   C161      1.0  0.62251  0.47395  0.02929  1.0000
  C   C162      1.0  0.44815  0.13098  0.93515  1.0000
  C   C163      1.0  0.62331  0.98908  0.96151  1.0000
  H   H191      1.0  0.91295  0.32845  0.92491  1.0000
  C   C164      1.0  0.78563  0.11241  0.02778  1.0000
  Fe  Fe21      1.0  0.79259  0.30586  0.01198  1.0000
  H   H192      1.0  0.76122  0.18148  0.93121  1.0000
  H   H193      1.0  0.55316  0.05909  0.95010  1.0000
  C   C165      1.0  0.52425  0.38360  0.98762  1.0000
  H   H194      1.0  0.79434  0.12223  0.92483  1.0000
  H   H195      1.0  0.51236  0.41113  0.98161  1.0000
  H   H196      1.0  0.72732  0.00818  0.83100  1.0000
  H   H197      1.0  0.83622  0.00102  0.89018  1.0000
  C   C166      1.0  0.90579  0.25024  0.92127  1.0000
  H   H198      1.0  0.49144  0.04222  0.96095  1.0000
  C   C167      1.0  0.92077  0.00169  0.88138  1.0000
  N   N9        1.0  0.57402  0.42019  0.03326  1.0000
  C   C168      1.0  0.64786  0.08796  0.00400  1.0000
  H   H199      1.0  0.51252  0.06767  0.91126  1.0000
  H   H200      1.0  0.67081  0.07105  0.88802  1.0000
  H   H201      1.0  0.50913  0.21824  0.93474  1.0000
  C   C169      1.0  0.93163  0.40993  0.85004  1.0000
  H   H202      1.0  0.67870  0.14618  0.96254  1.0000
  H   H203      1.0  0.59524  0.36308  0.00425  1.0000
  C   C170      1.0  0.83461  0.25844  0.92767  1.0000
  H   H204      1.0  0.58688  0.45738  0.95004  1.0000
  H   H205      1.0  0.92374  0.08202  0.96107  1.0000
  S   S45       1.0  0.71482  0.28479  0.02247  1.0000
  H   H206      1.0  0.48850  0.34408  0.99230  1.0000
  H   H207      1.0  0.78663  0.07990  0.99799  1.0000
  H   H208      1.0  0.55161  0.33980  0.04369  1.0000
  H   H209      1.0  0.52064  0.00071  0.99839  1.0000
  C   C171      1.0  0.46587  0.18063  0.92277  1.0000
  H   H210      1.0  0.47764  0.13038  0.95729  1.0000
  C   C172      1.0  0.90260  0.34787  0.83604  1.0000
  S   S46       1.0  0.89931  0.15471  0.92496  1.0000
  C   C173      1.0  0.87293  0.19265  0.92244  1.0000
  H   H211      1.0  0.91304  0.43025  0.86316  1.0000
  H   H212      1.0  0.74313  0.09625  0.01647  1.0000
  S   S47       1.0  0.81511  0.30411  0.93936  1.0000
  C   C174      1.0  0.63848  0.00291  0.91961  1.0000
  H   H213      1.0  0.51424  0.00936  0.83818  1.0000
  H   H214      1.0  0.81143  0.15749  0.02547  1.0000
  C   C175      1.0  0.65902  0.05996  0.92025  1.0000
  H   H215      1.0  0.88391  0.16055  0.03159  1.0000
  H   H216      1.0  0.52982  0.36419  0.95175  1.0000
  C   C176      1.0  0.58620  0.37985  0.03859  1.0000
  H   H217      1.0  0.86162  0.32012  0.83843  1.0000
  H   H218      1.0  0.90673  0.03932  0.00005  1.0000
  C   C177      1.0  0.92963  0.04632  0.86362  1.0000
  C   C178      1.0  0.92438  0.04706  0.96828  1.0000
  H   H219      1.0  0.91529  0.07113  0.87748  1.0000
  C   C179      1.0  0.62823  0.03150  0.00364  1.0000
  H   H220      1.0  0.78355  0.07306  0.82321  1.0000
  S   S48       1.0  0.46099  0.22400  0.05349  1.0000
  H   H221      1.0  0.61622  0.02018  0.03577  1.0000
  C   C180      1.0  0.93352  0.35449  0.05129  1.0000
  S   S49       1.0  0.45180  0.08325  0.04117  1.0000
  H   H222      1.0  0.54523  0.98526  0.86954  1.0000
  N   N10       1.0  0.89356  0.99002  0.92124  1.0000
  S   S50       1.0  0.79169  0.24842  0.05043  1.0000
  H   H223      1.0  0.76641  0.02219  0.05775  1.0000
  H   H224      1.0  0.90439  0.27363  0.81047  1.0000
  C   C181      1.0  0.92687  0.32185  0.82048  1.0000
  C   C182      1.0  0.56207  0.12184  0.25444  1.0000
  C   C183      1.0  0.64080  0.35093  0.28834  1.0000
  C   C184      1.0  0.85854  0.13534  0.09596  1.0000
  H   H225      1.0  0.75973  0.14880  0.10654  1.0000
  H   H226      1.0  0.80596  0.44842  0.24006  1.0000
  C   C185      1.0  0.76209  0.05551  0.08062  1.0000
  C   C186      1.0  0.60804  0.02200  0.25183  1.0000
  S   S51       1.0  0.77217  0.10112  0.22555  1.0000
  Fe  Fe22      1.0  0.47936  0.27547  0.13650  1.0000
  Fe  Fe23      1.0  0.71790  0.23302  0.06631  1.0000
  C   C187      1.0  0.80083  0.16079  0.11744  1.0000
  Fe  Fe24      1.0  0.76897  0.36502  0.09873  1.0000
  N   N11       1.0  0.51540  0.09175  0.20776  1.0000
  C   C188      1.0  0.79261  0.46819  0.26595  1.0000
  H   H227      1.0  0.49866  0.35769  0.29273  1.0000
  S   S52       1.0  0.90968  0.34942  0.17758  1.0000
  H   H228      1.0  0.57880  0.29652  0.12816  1.0000
  C   C189      1.0  0.61447  0.34371  0.14132  1.0000
  H   H229      1.0  0.76585  0.05608  0.12013  1.0000
  C   C190      1.0  0.91427  0.28914  0.26421  1.0000
  H   H230      1.0  0.88061  0.35979  0.26967  1.0000
  S   S53       1.0  0.76687  0.44158  0.13072  1.0000
  C   C191      1.0  0.87854  0.13404  0.14226  1.0000
  C   C192      1.0  0.61087  0.01009  0.20157  1.0000
  C   C193      1.0  0.56063  0.43953  0.07933  1.0000
  C   C194      1.0  0.54800  0.46356  0.29194  1.0000
  H   H231      1.0  0.88351  0.27814  0.23272  1.0000
  S   S54       1.0  0.55241  0.37356  0.17687  1.0000
  H   H232      1.0  0.91165  0.45354  0.20794  1.0000
  C   C195      1.0  0.45916  0.34675  0.28676  1.0000
  H   H233      1.0  0.80929  0.16283  0.15724  1.0000
  H   H234      1.0  0.54861  0.06279  0.15575  1.0000
  C   C196      1.0  0.65877  0.45062  0.18507  1.0000
  C   C197      1.0  0.66165  0.03685  0.19358  1.0000
  H   H235      1.0  0.85385  0.11982  0.16709  1.0000
  H   H236      1.0  0.62242  0.40355  0.07261  1.0000
  H   H237      1.0  0.63510  0.43859  0.27962  1.0000
  S   S55       1.0  0.54371  0.98409  0.26032  1.0000
  H   H238      1.0  0.56510  0.15483  0.17427  1.0000
  S   S56       1.0  0.76565  0.31144  0.14365  1.0000
  Fe  Fe25      1.0  0.82346  0.10670  0.29057  1.0000
  H   H239      1.0  0.71927  0.03734  0.06432  1.0000
  H   H240      1.0  0.46459  0.99805  0.24039  1.0000
  C   C198      1.0  0.74501  0.43056  0.27712  1.0000
  H   H241      1.0  0.53680  0.17843  0.21599  1.0000
  S   S57       1.0  0.87665  0.08033  0.27915  1.0000
  H   H242      1.0  0.66349  0.02619  0.15462  1.0000
  N   N12       1.0  0.80283  0.11635  0.08035  1.0000
  H   H243      1.0  0.52343  0.40009  0.08260  1.0000
  C   C199      1.0  0.65613  0.06179  0.29412  1.0000
  H   H244      1.0  0.50770  0.01011  0.18221  1.0000
  H   H245      1.0  0.63004  0.34346  0.24694  1.0000
  C   C200      1.0  0.70801  0.42014  0.14672  1.0000
  C   C201      1.0  0.48002  0.43511  0.21908  1.0000
  C   C202      1.0  0.66251  0.35902  0.13111  1.0000
  H   H246      1.0  0.72410  0.38249  0.25941  1.0000
  C   C203      1.0  0.93095  0.15166  0.15783  1.0000
  H   H247      1.0  0.55749  0.08905  0.27004  1.0000
  H   H248      1.0  0.59347  0.46182  0.11616  1.0000
  S   S58       1.0  0.46123  0.20126  0.16077  1.0000
  H   H249      1.0  0.49425  0.11852  0.15201  1.0000
  H   H250      1.0  0.81203  0.25527  0.25679  1.0000
  H   H251      1.0  0.66392  0.32364  0.11003  1.0000
  H   H252      1.0  0.60169  0.32345  0.29646  1.0000
  H   H253      1.0  0.66137  0.33153  0.29432  1.0000
  H   H254      1.0  0.51170  0.47697  0.21412  1.0000
  H   H255      1.0  0.56587  0.15740  0.28582  1.0000
  C   C204      1.0  0.82233  0.26905  0.29929  1.0000
  H   H256      1.0  0.83160  0.20745  0.11941  1.0000
  S   S59       1.0  0.84673  0.39019  0.08486  1.0000
  H   H257      1.0  0.44848  0.12597  0.21211  1.0000
  C   C205      1.0  0.51158  0.04364  0.16813  1.0000
  H   H258      1.0  0.47844  0.39747  0.19428  1.0000
  C   C206      1.0  0.46440  0.06505  0.22157  1.0000
  H   H259      1.0  0.81407  0.23005  0.30733  1.0000
  H   H260      1.0  0.91230  0.34224  0.07983  1.0000
  H   H261      1.0  0.55239  0.43143  0.26747  1.0000
  C   C207      1.0  0.70633  0.46587  0.17422  1.0000
  C   C208      1.0  0.61251  0.38965  0.16761  1.0000
  H   H262      1.0  0.47585  0.01818  0.13303  1.0000
  C   C209      1.0  0.52823  0.13791  0.18675  1.0000
  Fe  Fe26      1.0  0.83954  0.33093  0.12430  1.0000
  H   H263      1.0  0.55318  0.47178  0.07768  1.0000
  C   C210      1.0  0.70962  0.07463  0.23585  1.0000
  H   H264      1.0  0.60148  0.14349  0.24613  1.0000
  N   N13       1.0  0.49196  0.44325  0.27380  1.0000
  C   C211      1.0  0.70689  0.08768  0.28613  1.0000
  C   C212      1.0  0.44925  0.38540  0.27740  1.0000
  C   C213      1.0  0.89493  0.15709  0.06701  1.0000
  H   H265      1.0  0.94492  0.14966  0.19319  1.0000
  H   H266      1.0  0.74451  0.00065  0.54328  1.0000
  C   C214      1.0  0.45606  0.14455  0.39077  1.0000
  H   H267      1.0  0.52962  0.21480  0.31840  1.0000
  C   C215      1.0  0.88662  0.19066  0.53184  1.0000
  C   C216      1.0  0.93968  0.22539  0.52967  1.0000
  C   C217      1.0  0.71186  0.25327  0.45473  1.0000
  H   H268      1.0  0.92598  0.38912  0.40740  1.0000
  S   S60       1.0  0.88681  0.19422  0.35891  1.0000
  C   C218      1.0  0.48482  0.15472  0.35548  1.0000
  Fe  Fe27      1.0  0.84580  0.03522  0.33382  1.0000
  H   H269      1.0  0.77913  0.39669  0.46073  1.0000
  N   N14       1.0  0.90725  0.36941  0.55333  1.0000
  H   H270      1.0  0.81118  0.03578  0.49753  1.0000
  N   N15       1.0  0.60696  0.29071  0.53040  1.0000
  H   H271      1.0  0.81969  0.30356  0.51671  1.0000
  H   H272      1.0  0.57268  0.26686  0.45057  1.0000
  H   H273      1.0  0.45201  0.01726  0.53040  1.0000
  H   H274      1.0  0.93355  0.41585  0.33053  1.0000
  S   S61       1.0  0.91166  0.11846  0.40394  1.0000
  H   H275      1.0  0.52003  0.17532  0.51689  1.0000
  H   H276      1.0  0.70653  0.23180  0.32950  1.0000
  H   H277      1.0  0.80645  0.01575  0.40692  1.0000
  Fe  Fe28      1.0  0.61280  0.12053  0.44868  1.0000
  H   H278      1.0  0.68337  0.37055  0.53279  1.0000
  Fe  Fe29      1.0  0.49344  0.06379  0.40528  1.0000
  Fe  Fe30      1.0  0.52250  0.99026  0.43374  1.0000
  S   S62       1.0  0.53265  0.39679  0.50281  1.0000
  H   H279      1.0  0.46453  0.27029  0.42406  1.0000
  C   C219      1.0  0.47011  0.23806  0.40481  1.0000
  Fe  Fe31      1.0  0.83869  0.45678  0.40845  1.0000
  S   S63       1.0  0.63920  0.47668  0.46722  1.0000
  S   S64       1.0  0.56522  0.11092  0.37790  1.0000
  C   C220      1.0  0.75688  0.34830  0.44410  1.0000
  H   H280      1.0  0.85449  0.35770  0.48893  1.0000
  S   S65       1.0  0.69183  0.21392  0.49524  1.0000
  C   C221      1.0  0.91807  0.31389  0.31615  1.0000
  H   H281      1.0  0.87822  0.30961  0.39784  1.0000
  H   H282      1.0  0.75522  0.16063  0.53505  1.0000
  C   C222      1.0  0.66839  0.01306  0.52338  1.0000
  H   H283      1.0  0.56765  0.20762  0.46293  1.0000
  Fe  Fe32      1.0  0.54543  0.02071  0.34124  1.0000
  C   C223      1.0  0.63180  0.01731  0.54546  1.0000
  C   C224      1.0  0.88997  0.37387  0.31212  1.0000
  H   H284      1.0  0.74392  0.11734  0.31894  1.0000
  N   N16       1.0  0.67540  0.41651  0.32254  1.0000
  H   H285      1.0  0.65361  0.39455  0.38729  1.0000
  H   H286      1.0  0.93032  0.34542  0.48718  1.0000
  H   H287      1.0  0.71408  0.47092  0.40452  1.0000
  C   C225      1.0  0.91740  0.33122  0.51897  1.0000
  H   H288      1.0  0.88057  0.28248  0.50020  1.0000
  H   H289      1.0  0.55910  0.46859  0.33227  1.0000
  H   H290      1.0  0.74915  0.33946  0.51625  1.0000
  C   C226      1.0  0.88514  0.34444  0.38369  1.0000
  H   H291      1.0  0.63159  0.27130  0.46458  1.0000
  Fe  Fe33      1.0  0.51158  0.45445  0.49066  1.0000
  H   H292      1.0  0.65976  0.48036  0.34848  1.0000
  C   C227      1.0  0.50660  0.20661  0.34508  1.0000
  H   H293      1.0  0.48992  0.12229  0.33592  1.0000
  S   S66       1.0  0.53601  0.31766  0.36305  1.0000
  C   C228      1.0  0.73996  0.31585  0.47559  1.0000
  Fe  Fe34      1.0  0.93860  0.16538  0.35011  1.0000
  S   S67       1.0  0.59798  0.03302  0.41024  1.0000
  C   C229      1.0  0.72586  0.45503  0.31014  1.0000
  Fe  Fe35      1.0  0.85358  0.13846  0.40591  1.0000
  S   S68       1.0  0.54221  0.07907  0.47891  1.0000
  C   C230      1.0  0.69040  0.42318  0.37643  1.0000
  C   C231      1.0  0.59412  0.25761  0.47482  1.0000
  H   H294      1.0  0.65418  0.07120  0.33298  1.0000
  C   C232      1.0  0.69977  0.22302  0.40199  1.0000
  H   H295      1.0  0.71575  0.40910  0.38182  1.0000
  H   H296      1.0  0.85441  0.35038  0.39091  1.0000
  S   S69       1.0  0.77028  0.36037  0.35347  1.0000
  Fe  Fe36      1.0  0.55176  0.39354  0.42870  1.0000
  C   C233      1.0  0.85458  0.35196  0.52610  1.0000
  C   C234      1.0  0.74506  0.31824  0.39142  1.0000
  C   C235      1.0  0.44726  0.18532  0.41427  1.0000
  C   C236      1.0  0.71573  0.25534  0.37018  1.0000
  C   C237      1.0  0.81921  0.00613  0.47754  1.0000
  S   S70       1.0  0.78603  0.05292  0.33783  1.0000
  H   H297      1.0  0.74444  0.06786  0.50673  1.0000
  C   C238      1.0  0.81733  0.99557  0.42625  1.0000
  S   S71       1.0  0.83187  0.15787  0.47747  1.0000
  C   C239      1.0  0.50056  0.24911  0.37087  1.0000
  H   H298      1.0  0.67914  0.17486  0.38591  1.0000
  S   S72       1.0  0.52369  0.44395  0.41374  1.0000
  C   C240      1.0  0.71419  0.06705  0.52194  1.0000
  C   C241      1.0  0.72142  0.12095  0.53910  1.0000
  N   N17       1.0  0.87970  0.32516  0.32798  1.0000
  H   H299      1.0  0.86412  0.38638  0.32281  1.0000
  H   H300      1.0  0.62660  0.36967  0.51892  1.0000
  S   S73       1.0  0.89994  0.47223  0.47127  1.0000
  C   C242      1.0  0.51516  0.20900  0.53326  1.0000
  C   C243      1.0  0.46673  0.18894  0.54423  1.0000
  C   C244      1.0  0.55584  0.27078  0.54215  1.0000
  C   C245      1.0  0.64525  0.35663  0.54192  1.0000
  H   H301      1.0  0.84570  0.38019  0.55019  1.0000
  H   H302      1.0  0.61290  0.22780  0.54962  1.0000
  C   C246      1.0  0.64148  0.43568  0.31757  1.0000
  H   H303      1.0  0.60055  0.40323  0.32062  1.0000
  H   H304      1.0  0.79257  0.27523  0.30975  1.0000
  H   H305      1.0  0.67647  0.29589  0.55671  1.0000
  C   C247      1.0  0.43888  0.91323  0.69782  1.0000
  C   C248      1.0  0.10348  0.67873  0.63601  1.0000
  C   C249      1.0  0.37035  0.61998  0.59476  1.0000
  H   H306      1.0  0.43466  0.52164  0.75113  1.0000
  C   C250      1.0  0.03883  0.83330  0.67742  1.0000
  C   C251      1.0  0.11492  0.88918  0.64756  1.0000
  H   H307      1.0  0.29852  0.65126  0.65795  1.0000
  H   H308      1.0  0.31346  0.72201  0.66506  1.0000
  C   C252      1.0  0.04483  0.97605  0.63424  1.0000
  H   H309      1.0  0.11617  0.52237  0.79879  1.0000
  N   N18       1.0  0.31775  0.70784  0.73573  1.0000
  H   H310      1.0  0.36666  0.88573  0.56225  1.0000
  Fe  Fe37      1.0  0.27427  0.94894  0.67265  1.0000
  H   H311      1.0  0.15970  0.98070  0.74067  1.0000
  H   H312      1.0  0.10154  0.94243  0.76179  1.0000
  H   H313      1.0  0.00454  0.55783  0.65787  1.0000
  N   N19       1.0  0.96662  0.61260  0.76438  1.0000
  H   H314      1.0  0.37244  0.66884  0.77266  1.0000
  H   H315      1.0  0.32929  0.79113  0.74866  1.0000
  Fe  Fe38      1.0  0.11303  0.50188  0.67914  1.0000
  Fe  Fe39      1.0  0.27488  0.87529  0.57406  1.0000
  H   H316      1.0  0.24203  0.63806  0.74390  1.0000
  C   C253      1.0  0.12977  0.87274  0.72429  1.0000
  H   H317      1.0  0.17433  0.91187  0.73947  1.0000
  C   C254      1.0  0.37629  0.73571  0.74817  1.0000
  Fe  Fe40      1.0  0.19918  0.48736  0.66447  1.0000
  H   H318      1.0  0.02924  0.61178  0.80174  1.0000
  H   H319      1.0  0.11563  0.86449  0.75767  1.0000
  H   H320      1.0  0.01187  0.88754  0.70008  1.0000
  C   C255      1.0  0.30276  0.55245  0.62725  1.0000
  H   H321      1.0  0.38291  0.82511  0.63489  1.0000
  H   H322      1.0  0.38912  0.61495  0.66726  1.0000
  S   S74       1.0  0.20995  0.87671  0.59677  1.0000
  H   H323      1.0  0.09175  0.89710  0.62349  1.0000
  C   C256      1.0  0.14805  0.68236  0.65590  1.0000
  C   C257      1.0  0.04444  0.59205  0.65694  1.0000
  S   S75       1.0  0.34113  0.95458  0.64703  1.0000
  H   H324      1.0  0.24940  0.66231  0.66754  1.0000
  H   H325      1.0  0.36182  0.49385  0.62057  1.0000
  Fe  Fe41      1.0  0.32083  0.88459  0.67827  1.0000
  C   C258      1.0  0.00001  0.84281  0.68227  1.0000
  H   H326      1.0  0.28388  0.61786  0.73053  1.0000
  C   C259      1.0  0.00731  0.92716  0.58706  1.0000
  H   H327      1.0  0.10800  0.75283  0.74476  1.0000
  H   H328      1.0  0.98729  0.68274  0.73728  1.0000
  C   C260      1.0  0.42455  0.86699  0.65235  1.0000
  H   H329      1.0  0.41249  0.65205  0.59824  1.0000
  H   H330      1.0  0.36403  0.54528  0.77921  1.0000
  H   H331      1.0  0.06041  0.51953  0.80810  1.0000
  N   N20       1.0  0.09834  0.88407  0.69405  1.0000
  C   C261      1.0  0.01763  0.77215  0.65220  1.0000
  H   H332      1.0  0.97290  0.61795  0.69053  1.0000
  C   C262      1.0  0.11460  0.94383  0.72693  1.0000
  S   S76       1.0  0.08006  0.54918  0.70952  1.0000
  H   H333      1.0  0.12620  0.83306  0.70101  1.0000
  C   C263      1.0  0.41346  0.78864  0.73951  1.0000
  H   H334      1.0  0.04272  0.63824  0.75174  1.0000
  H   H335      1.0  0.09716  0.95896  0.70567  1.0000
  C   C264      1.0  0.14074  0.64105  0.67687  1.0000
  H   H336      1.0  0.17529  0.64514  0.69403  1.0000
  S   S77       1.0  0.25761  0.88330  0.70820  1.0000
  C   C265      1.0  0.18990  0.79423  0.78775  1.0000
  C   C266      1.0  0.29371  0.68488  0.67913  1.0000
  H   H337      1.0  0.15926  0.92772  0.65808  1.0000
  C   C267      1.0  0.05151  0.63274  0.63556  1.0000
  S   S78       1.0  0.25937  0.80534  0.60334  1.0000
  C   C268      1.0  0.26159  0.53048  0.58304  1.0000
  Fe  Fe42      1.0  0.19808  0.81105  0.63024  1.0000
  H   H338      1.0  0.26804  0.73349  0.75538  1.0000
  C   C269      1.0  0.02443  0.63788  0.78314  1.0000
  H   H339      1.0  0.18833  0.71807  0.65655  1.0000
  S   S79       1.0  0.28630  0.52678  0.67662  1.0000
  H   H340      1.0  0.27692  0.52278  0.78481  1.0000
  S   S80       1.0  0.39103  0.90152  0.72960  1.0000
  S   S81       1.0  0.16543  0.52391  0.62851  1.0000
  C   C270      1.0  0.35716  0.59717  0.63296  1.0000
  H   H341      1.0  0.04417  0.76114  0.64549  1.0000
  H   H342      1.0  0.19622  0.77234  0.75543  1.0000
  H   H343      1.0  0.01692  0.62954  0.61984  1.0000
  C   C271      1.0  0.40042  0.51151  0.61117  1.0000
  H   H344      1.0  0.10729  0.84713  0.62292  1.0000
  C   C272      1.0  0.31170  0.75361  0.76212  1.0000
  C   C273      1.0  0.14001  0.78305  0.78188  1.0000
  C   C274      1.0  0.28535  0.65654  0.75178  1.0000
  H   H345      1.0  0.39975  0.80907  0.72369  1.0000
  C   C275      1.0  0.39772  0.71028  0.76664  1.0000
  C   C276      1.0  0.96147  0.72374  0.63397  1.0000
  C   C277      1.0  0.08915  0.59677  0.67837  1.0000
  S   S82       1.0  0.11107  0.73231  0.61377  1.0000
  H   H346      1.0  0.42093  0.57240  0.71054  1.0000
  H   H347      1.0  0.33149  0.77402  0.80464  1.0000
  H   H348      1.0  0.30231  0.67086  0.79397  1.0000
  C   C278      1.0  0.96083  0.63266  0.72305  1.0000
  H   H349      1.0  0.96563  0.89395  0.58423  1.0000
  H   H350      1.0  0.41165  0.54946  0.59961  1.0000
  C   C279      1.0  0.07321  0.49103  0.79830  1.0000
  C   C280      1.0  0.42525  0.48261  0.72098  1.0000
  H   H351      1.0  0.94643  0.67752  0.61485  1.0000
  H   H352      1.0  0.21968  0.49359  0.57698  1.0000
  N   N21       1.0  0.44466  0.53182  0.65586  1.0000
  H   H353      1.0  0.97851  0.95682  0.80521  1.0000
  C   C281      1.0  0.95066  0.63119  0.80839  1.0000
  C   C282      1.0  0.15954  0.82541  0.01302  1.0000
  C   C283      1.0  0.41407  0.63127  0.84477  1.0000
  C   C284      1.0  0.11701  0.78969  0.96603  1.0000
  H   H354      1.0  0.36469  0.69156  0.91623  1.0000
  C   C285      1.0  0.41394  0.67224  0.88352  1.0000
  S   S83       1.0  0.03912  0.97172  0.93096  1.0000
  C   C286      1.0  0.31286  0.59109  0.98108  1.0000
  H   H355      1.0  0.40084  0.94951  0.89675  1.0000
  C   C287      1.0  0.34491  0.52703  0.92350  1.0000
  C   C288      1.0  0.22165  0.85799  0.87833  1.0000
  C   C289      1.0  0.44386  0.83286  0.90827  1.0000
  C   C290      1.0  0.23028  0.83077  0.83605  1.0000
  H   H356      1.0  0.05074  0.68545  0.81219  1.0000
  C   C291      1.0  0.17212  0.84799  0.87220  1.0000
  Fe  Fe43      1.0  0.28056  0.76632  0.98860  1.0000
  Fe  Fe44      1.0  0.97659  0.87534  0.87242  1.0000
  H   H357      1.0  0.30575  0.96273  0.85452  1.0000
  S   S84       1.0  0.12937  0.94896  0.92715  1.0000
  H   H358      1.0  0.29774  0.61240  0.00405  1.0000
  H   H359      1.0  0.31255  0.59975  0.94555  1.0000
  H   H360      1.0  0.12033  0.76596  0.93195  1.0000
  C   C292      1.0  0.36449  0.65991  0.88601  1.0000
  H   H361      1.0  0.37943  0.87642  0.00168  1.0000
  C   C293      1.0  0.99993  0.57271  0.00020  1.0000
  C   C294      1.0  0.07072  0.78552  0.96236  1.0000
  C   C295      1.0  0.13098  0.80945  0.82421  1.0000
  N   N22       1.0  0.27882  0.52508  0.96906  1.0000
  H   H362      1.0  0.14811  0.53726  0.89105  1.0000
  C   C296      1.0  0.28322  0.97596  0.83787  1.0000
  H   H363      1.0  0.19558  0.82947  0.01345  1.0000
  H   H364      1.0  0.16469  0.86744  0.90509  1.0000
  H   H365      1.0  0.42566  0.97079  0.98778  1.0000
  H   H366      1.0  0.09579  0.54247  0.89828  1.0000
  Fe  Fe45      1.0  0.09409  0.97900  0.88360  1.0000
  C   C297      1.0  0.31502  0.56406  0.81285  1.0000
  H   H367      1.0  0.42333  0.78593  0.88365  1.0000
  S   S85       1.0  0.22680  0.77654  0.94394  1.0000
  C   C298      1.0  0.00965  0.57892  0.95431  1.0000
  C   C299      1.0  0.10646  0.65658  0.00088  1.0000
  H   H368      1.0  0.26858  0.54573  0.04397  1.0000
  S   S86       1.0  0.07600  0.62427  0.89676  1.0000
  C   C300      1.0  0.38089  0.91269  0.02570  1.0000
  C   C301      1.0  0.40803  0.96674  0.01834  1.0000
  C   C302      1.0  0.09670  0.65025  0.04661  1.0000
  H   H369      1.0  0.03098  0.81437  0.00290  1.0000
  H   H370      1.0  0.25248  0.88508  0.91605  1.0000
  C   C303      1.0  0.96923  0.68790  0.04547  1.0000
  S   S87       1.0  0.21638  0.66499  0.95888  1.0000
  C   C304      1.0  0.31491  0.60545  0.85083  1.0000
  Fe  Fe46      1.0  0.25124  0.66171  0.89401  1.0000
  Fe  Fe47      1.0  0.06910  0.93380  0.96941  1.0000
  S   S88       1.0  0.06614  0.78900  0.81596  1.0000
  C   C305      1.0  0.06308  0.62027  0.95459  1.0000
  C   C306      1.0  0.06649  0.81640  0.00584  1.0000
  H   H371      1.0  0.95869  0.54013  0.99984  1.0000
  Fe  Fe48      1.0  0.16567  0.67573  0.90945  1.0000
  H   H372      1.0  0.14712  0.56384  0.02808  1.0000
  C   C307      1.0  0.16631  0.55709  0.05620  1.0000
  H   H373      1.0  0.31752  0.53368  0.04110  1.0000
  S   S89       1.0  0.25162  0.58498  0.85477  1.0000
  S   S90       1.0  0.00482  0.83763  0.91284  1.0000
  H   H374      1.0  0.03874  0.75938  0.92541  1.0000
  H   H375      1.0  0.98198  0.70959  0.01868  1.0000
  H   H376      1.0  0.36671  0.57392  0.92899  1.0000
  S   S91       1.0  0.19694  0.66719  0.84320  1.0000
  C   C308      1.0  0.42319  0.95185  0.86844  1.0000
  H   H377      1.0  0.97598  0.55086  0.91857  1.0000
  Fe  Fe49      1.0  0.06145  0.85653  0.86690  1.0000
  S   S92       1.0  0.02837  0.88666  0.82157  1.0000
  Fe  Fe50      1.0  0.26317  0.76780  0.88248  1.0000
  H   H378      1.0  0.23914  0.93547  0.82280  1.0000
  H   H379      1.0  0.22197  0.49663  0.89839  1.0000
  H   H380      1.0  0.14763  0.68954  0.00147  1.0000
  H   H381      1.0  0.42407  0.98103  0.84972  1.0000
  S   S93       1.0  0.32037  0.76205  0.92796  1.0000
  C   C309      1.0  0.04362  0.60787  0.04632  1.0000
  H   H382      1.0  0.35577  0.61580  0.00398  1.0000
  S   S94       1.0  0.28685  0.83316  0.84512  1.0000
  H   H383      1.0  0.39778  0.90550  0.83726  1.0000
  H   H384      1.0  0.43003  0.85407  0.84543  1.0000
  H   H385      1.0  0.97225  0.59398  0.85339  1.0000
  C   C310      1.0  0.15676  0.50199  0.04358  1.0000
  C   C311      1.0  0.27742  0.51815  0.01893  1.0000
  C   C312      1.0  0.10400  0.50989  0.88739  1.0000
  C   C313      1.0  0.95556  0.61693  0.85157  1.0000
  H   H386      1.0  0.20748  0.51933  0.95561  1.0000
  C   C314      1.0  0.22287  0.49571  0.93741  1.0000
  C   C315      1.0  0.29933  0.49575  0.94087  1.0000
  H   H387      1.0  0.39963  0.52359  0.88658  1.0000
  H   H388      1.0  0.23357  0.97806  0.90988  1.0000
  C   C316      1.0  0.36425  0.49832  0.89864  1.0000
  C   C317      1.0  0.96497  0.98199  0.82180  1.0000
  C   C318      1.0  0.10851  0.85159  0.05316  1.0000
  H   H389      1.0  0.00616  0.49424  0.86038  1.0000
  H   H390      1.0  0.09748  0.49022  0.91681  1.0000
  S   S95       1.0  0.07777  0.95295  0.05321  1.0000
  C   C319      1.0  0.15628  0.85659  0.05830  1.0000
  C   C320      1.0  0.36441  0.57692  0.80966  1.0000
  N   N23       1.0  0.37739  0.79388  0.17624  1.0000
  H   H391      1.0  0.33167  0.74722  0.09467  1.0000
  C   C321      1.0  0.00730  0.70963  0.09183  1.0000
  C   C322      1.0  0.24759  0.95127  0.10237  1.0000
  H   H392      1.0  0.98436  0.56065  0.27029  1.0000
  H   H393      1.0  0.22387  0.62979  0.29739  1.0000
  Fe  Fe51      1.0  0.98223  0.85305  0.19662  1.0000
  C   C323      1.0  0.43518  0.83721  0.26784  1.0000
  C   C324      1.0  0.41467  0.72852  0.25631  1.0000
  C   C325      1.0  0.18895  0.88785  0.26613  1.0000
  H   H394      1.0  0.15215  0.87391  0.15572  1.0000
  C   C326      1.0  0.21633  0.54038  0.12912  1.0000
  S   S96       1.0  0.10755  0.70808  0.24624  1.0000
  H   H395      1.0  0.38279  0.95609  0.26654  1.0000
  H   H396      1.0  0.03076  0.50535  0.12229  1.0000
  H   H397      1.0  0.97880  0.67856  0.22238  1.0000
  S   S97       1.0  0.12425  0.60691  0.20986  1.0000
  C   C327      1.0  0.20675  0.94700  0.28831  1.0000
  H   H398      1.0  0.04987  0.74769  0.10056  1.0000
  H   H399      1.0  0.97674  0.96180  0.22663  1.0000
  H   H400      1.0  0.05494  0.81460  0.20472  1.0000
  C   C328      1.0  0.99088  0.68227  0.12691  1.0000
  C   C329      1.0  0.34880  0.74072  0.12612  1.0000
  Fe  Fe52      1.0  0.19612  0.77718  0.25645  1.0000
  H   H401      1.0  0.12092  0.79514  0.21626  1.0000
  S   S98       1.0  0.25891  0.64882  0.20619  1.0000
  C   C330      1.0  0.22338  0.59419  0.14262  1.0000
  C   C331      1.0  0.40192  0.78778  0.21900  1.0000
  C   C332      1.0  0.42030  0.84850  0.16834  1.0000
  S   S99       1.0  0.38111  0.49922  0.08250  1.0000
  H   H402      1.0  0.13032  0.67779  0.08186  1.0000
  C   C333      1.0  0.18157  0.49346  0.08005  1.0000
  H   H403      1.0  0.22249  0.94003  0.18944  1.0000
  H   H404      1.0  0.40684  0.68626  0.25133  1.0000
  C   C334      1.0  0.96014  0.63012  0.20122  1.0000
  H   H405      1.0  0.34958  0.59717  0.28911  1.0000
  H   H406      1.0  0.37703  0.73287  0.11384  1.0000
  C   C335      1.0  0.04904  0.50295  0.28659  1.0000
  C   C336      1.0  0.33692  0.80081  0.18990  1.0000
  H   H407      1.0  0.99255  0.62733  0.19387  1.0000
  Fe  Fe53      1.0  0.43519  0.60075  0.11277  1.0000
  C   C337      1.0  0.04047  0.54555  0.29366  1.0000
  C   C338      1.0  0.39219  0.73300  0.21449  1.0000
  H   H408      1.0  0.24265  0.85582  0.09064  1.0000
  S   S100      1.0  0.23633  0.87555  0.27738  1.0000
  Fe  Fe54      1.0  0.10471  0.65307  0.17251  1.0000
  H   H409      1.0  0.33719  0.52724  0.26001  1.0000
  C   C339      1.0  0.22259  0.86321  0.11819  1.0000
  H   H410      1.0  0.36670  0.69257  0.17916  1.0000
  H   H411      1.0  0.09967  0.49862  0.13324  1.0000
  H   H412      1.0  0.02268  0.70068  0.16155  1.0000
  C   C340      1.0  0.13423  0.84019  0.23558  1.0000
  H   H413      1.0  0.31665  0.80466  0.15858  1.0000
  H   H414      1.0  0.18841  0.81809  0.11689  1.0000
  H   H415      1.0  0.25391  0.88928  0.15713  1.0000
  N   N24       1.0  0.20269  0.89552  0.10717  1.0000
  H   H416      1.0  0.20468  0.64443  0.11596  1.0000
  C   C341      1.0  0.34501  0.55993  0.29748  1.0000
  H   H417      1.0  0.23551  0.53379  0.15733  1.0000
  C   C342      1.0  0.99088  0.52768  0.26522  1.0000
  H   H418      1.0  0.23386  0.97647  0.09401  1.0000
  S   S101      1.0  0.22371  0.74098  0.30096  1.0000
  S   S102      1.0  0.95038  0.86423  0.13004  1.0000
  C   C343      1.0  0.19868  0.60263  0.10599  1.0000
  H   H419      1.0  0.15583  0.49354  0.19325  1.0000
  C   C344      1.0  0.16987  0.95833  0.28068  1.0000
  Fe  Fe55      1.0  0.13432  0.66767  0.28414  1.0000
  C   C345      1.0  0.18832  0.91409  0.15262  1.0000
  H   H420      1.0  0.26231  0.94074  0.07042  1.0000
  H   H421      1.0  0.34342  0.95040  0.12772  1.0000
  H   H422      1.0  0.10297  0.87558  0.08471  1.0000
  C   C346      1.0  0.36098  0.95471  0.09687  1.0000
  C   C347      1.0  0.11497  0.91055  0.25093  1.0000
  S   S103      1.0  0.19185  0.72461  0.18037  1.0000
  Fe  Fe56      1.0  0.42206  0.51423  0.16045  1.0000
  H   H423      1.0  0.30454  0.76112  0.19687  1.0000
  H   H424      1.0  0.31356  0.69873  0.12818  1.0000
  H   H425      1.0  0.35579  0.84189  0.22560  1.0000
  C   C348      1.0  0.09712  0.85142  0.22827  1.0000
  H   H426      1.0  0.43435  0.89124  0.19893  1.0000
  S   S104      1.0  0.07087  0.92767  0.24339  1.0000
  S   S105      1.0  0.03057  0.59665  0.10246  1.0000
  S   S106      1.0  0.40973  0.65629  0.10780  1.0000
  H   H427      1.0  0.17919  0.94468  0.15074  1.0000
  Fe  Fe57      1.0  0.21168  0.68208  0.22338  1.0000
  H   H428      1.0  0.40563  0.84913  0.13146  1.0000
  H   H429      1.0  0.08762  0.51682  0.30772  1.0000
  S   S107      1.0  0.32135  0.83597  0.07030  1.0000
  C   C349      1.0  0.35724  0.90626  0.06482  1.0000
  H   H430      1.0  0.43479  0.57835  0.28222  1.0000
  H   H431      1.0  0.44424  0.88003  0.27367  1.0000
  H   H432      1.0  0.23713  0.93304  0.48560  1.0000
  H   H433      1.0  0.21339  0.95551  0.44364  1.0000
  C   C350      1.0  0.06448  0.76573  0.49917  1.0000
  S   S108      1.0  0.09359  0.62187  0.33483  1.0000
  H   H434      1.0  0.30722  0.70253  0.53013  1.0000
  C   C351      1.0  0.06892  0.81170  0.42016  1.0000
  C   C352      1.0  0.42942  0.89390  0.47048  1.0000
  H   H435      1.0  0.32362  0.97864  0.39839  1.0000
  H   H436      1.0  0.25333  0.94262  0.38378  1.0000
  H   H437      1.0  0.99397  0.88526  0.50626  1.0000
  H   H438      1.0  0.09831  0.81497  0.52226  1.0000
  H   H439      1.0  0.12037  0.70957  0.43708  1.0000
  H   H440      1.0  0.10864  0.71461  0.49684  1.0000
  H   H441      1.0  0.38476  0.76444  0.40821  1.0000
  C   C353      1.0  0.06426  0.50190  0.42334  1.0000
  H   H442      1.0  0.27067  0.56624  0.38646  1.0000
  C   C354      1.0  0.40438  0.63010  0.38443  1.0000
  C   C355      1.0  0.38872  0.87772  0.42917  1.0000
  H   H443      1.0  0.18413  0.61540  0.36670  1.0000
  C   C356      1.0  0.33241  0.86826  0.48390  1.0000
  C   C357      1.0  0.09182  0.78255  0.42345  1.0000
  S   S109      1.0  0.95685  0.61599  0.51551  1.0000
  H   H444      1.0  0.15884  0.78331  0.48939  1.0000
  S   S110      1.0  0.04144  0.57892  0.44744  1.0000
  H   H445      1.0  0.02544  0.75820  0.48954  1.0000
  C   C358      1.0  0.11796  0.85290  0.36337  1.0000
  H   H446      1.0  0.05973  0.74138  0.52484  1.0000
  H   H447      1.0  0.04684  0.55093  0.53691  1.0000
  C   C359      1.0  0.14023  0.82389  0.36477  1.0000
  N   N25       1.0  0.23684  0.67100  0.47127  1.0000
  N   N26       1.0  0.39440  0.58308  0.33764  1.0000
  C   C360      1.0  0.34103  0.73046  0.39941  1.0000
  C   C361      1.0  0.38960  0.53525  0.35098  1.0000
  C   C362      1.0  0.26176  0.68042  0.42974  1.0000
  C   C363      1.0  0.08239  0.84676  0.39094  1.0000
  S   S111      1.0  0.09591  0.96402  0.49037  1.0000
  C   C364      1.0  0.07804  0.96454  0.54687  1.0000
  C   C365      1.0  0.11789  0.73791  0.46969  1.0000
  H   H448      1.0  0.34820  0.75055  0.47835  1.0000
  H   H449      1.0  0.39464  0.87537  0.39204  1.0000
  H   H450      1.0  0.25751  0.70240  0.55427  1.0000
  H   H451      1.0  0.03163  0.66158  0.38313  1.0000
  H   H452      1.0  0.16141  0.64977  0.43206  1.0000
  C   C366      1.0  0.30679  0.69694  0.34828  1.0000
  C   C367      1.0  0.05370  0.52601  0.50759  1.0000
  C   C368      1.0  0.43236  0.55088  0.39075  1.0000
  Fe  Fe58      1.0  0.43713  0.70625  0.53627  1.0000
  C   C369      1.0  0.05376  0.53249  0.46059  1.0000
  H   H453      1.0  0.37293  0.60951  0.40356  1.0000
  C   C370      1.0  0.02372  0.92157  0.54324  1.0000
  H   H454      1.0  0.17383  0.57438  0.42784  1.0000
  H   H455      1.0  0.18038  0.68027  0.50024  1.0000
  S   S112      1.0  0.34610  0.63502  0.50765  1.0000
  H   H456      1.0  0.06517  0.86953  0.38980  1.0000
  H   H457      1.0  0.23523  0.59630  0.46800  1.0000
  N   N27       1.0  0.07548  0.74307  0.45240  1.0000
  C   C371      1.0  0.25051  0.65483  0.33718  1.0000
  C   C372      1.0  0.27744  0.71082  0.52402  1.0000
  C   C373      1.0  0.34009  0.86436  0.43573  1.0000
  H   H458      1.0  0.12826  0.88036  0.34102  1.0000
  H   H459      1.0  0.21729  0.72922  0.46797  1.0000
  H   H460      1.0  0.30038  0.75969  0.53141  1.0000
  H   H461      1.0  0.40434  0.66463  0.37540  1.0000
  H   H462      1.0  0.01097  0.65049  0.43802  1.0000
  H   H463      1.0  0.99116  0.68236  0.40449  1.0000
  C   C374      1.0  0.22817  0.64694  0.37716  1.0000
  H   H464      1.0  0.04014  0.80770  0.43974  1.0000
  C   C375      1.0  0.28909  0.95796  0.41411  1.0000
  C   C376      1.0  0.37229  0.88243  0.52486  1.0000
  Fe  Fe59      1.0  0.96236  0.55331  0.45694  1.0000
  H   H465      1.0  0.28037  0.91672  0.41748  1.0000
  H   H466      1.0  0.16759  0.82831  0.34289  1.0000
  H   H467      1.0  0.24233  0.54050  0.51338  1.0000
  C   C377      1.0  0.27455  0.55632  0.54653  1.0000
  C   C378      1.0  0.42068  0.89486  0.51799  1.0000
  H   H468      1.0  0.30912  0.85270  0.40381  1.0000
  H   H469      1.0  0.18744  0.59823  0.49587  1.0000
  H   H470      1.0  0.28644  0.51388  0.42922  1.0000
  C   C379      1.0  0.12713  0.78872  0.39390  1.0000
  C   C380      1.0  0.20710  0.60722  0.46543  1.0000
  C   C381      1.0  0.02497  0.68172  0.41788  1.0000
  S   S113      1.0  0.27417  0.85888  0.49224  1.0000
  H   H471      1.0  0.06456  0.50733  0.38717  1.0000
  C   C382      1.0  0.31918  0.72234  0.43971  1.0000
  H   H472      1.0  0.14469  0.76618  0.39240  1.0000
  C   C383      1.0  0.19751  0.68319  0.46772  1.0000
  C   C384      1.0  0.24796  0.97238  0.47650  1.0000
  C   C385      1.0  0.42938  0.50664  0.40354  1.0000
  C   C386      1.0  0.32914  0.60152  0.55252  1.0000
  C   C387      1.0  0.23714  0.51945  0.37902  1.0000
  C   C388      1.0  0.06373  0.48821  0.51704  1.0000
  C   C389      1.0  0.18553  0.49086  0.34607  1.0000
  H   H473      1.0  0.17903  0.51488  0.32724  1.0000
  C   C390      1.0  0.44104  0.61201  0.31772  1.0000
  C   C391      1.0  0.24555  0.48886  0.40393  1.0000
  H   H474      1.0  0.06441  0.48369  0.55355  1.0000
  H   H475      1.0  0.30818  0.53738  0.30985  1.0000
  H   H476      1.0  0.32372  0.70466  0.31722  1.0000
  H   H477      1.0  0.44486  0.65608  0.41366  1.0000
  C   C392      1.0  0.15599  0.31392  0.67595  1.0000
  H   H478      1.0  0.16959  0.32122  0.79828  1.0000
  H   H479      1.0  0.36769  0.15736  0.76067  1.0000
  H   H480      1.0  0.06278  0.13754  0.76757  1.0000
  H   H481      1.0  0.39907  0.08838  0.63930  1.0000
  S   S114      1.0  0.15272  0.47441  0.72121  1.0000
  C   C393      1.0  0.24141  0.21966  0.70304  1.0000
  S   S115      1.0  0.13795  0.39170  0.60650  1.0000
  H   H482      1.0  0.38893  0.33707  0.61903  1.0000
  S   S116      1.0  0.18867  0.13674  0.57306  1.0000
  H   H483      1.0  0.98661  0.01430  0.59289  1.0000
  C   C394      1.0  0.07254  0.11743  0.59248  1.0000
  H   H484      1.0  0.95318  0.43373  0.73391  1.0000
  H   H485      1.0  0.22086  0.41949  0.76080  1.0000
  H   H486      1.0  0.26073  0.40702  0.72862  1.0000
  S   S117      1.0  0.34192  0.21904  0.62401  1.0000
  C   C395      1.0  0.14922  0.31192  0.75869  1.0000
  C   C396      1.0  0.39919  0.37786  0.64756  1.0000
  C   C397      1.0  0.25843  0.26294  0.68214  1.0000
  H   H487      1.0  0.99367  0.03575  0.77689  1.0000
  H   H488      1.0  0.25365  0.32885  0.67168  1.0000
  S   S118      1.0  0.28341  0.02926  0.72204  1.0000
  H   H489      1.0  0.25496  0.19272  0.69616  1.0000
  H   H490      1.0  0.15927  0.04054  0.59883  1.0000
  C   C398      1.0  0.01658  0.16549  0.74757  1.0000
  C   C399      1.0  0.97581  0.25260  0.62084  1.0000
  H   H491      1.0  0.38677  0.34379  0.70723  1.0000
  S   S119      1.0  0.02341  0.98968  0.68717  1.0000
  H   H492      1.0  0.16129  0.23498  0.76335  1.0000
  H   H493      1.0  0.06485  0.10222  0.68098  1.0000
  C   C400      1.0  0.39461  0.06637  0.59967  1.0000
  H   H494      1.0  0.39173  0.47536  0.57623  1.0000
  C   C401      1.0  0.39778  0.38157  0.69724  1.0000
  H   H495      1.0  0.12052  0.26485  0.65432  1.0000
  C   C402      1.0  0.42785  0.48055  0.67070  1.0000
  C   C403      1.0  0.01899  0.12522  0.64578  1.0000
  H   H496      1.0  0.03233  0.17546  0.57580  1.0000
  H   H497      1.0  0.18199  0.32819  0.65092  1.0000
  C   C404      1.0  0.41398  0.42642  0.63434  1.0000
  H   H498      1.0  0.02501  0.28554  0.57274  1.0000
  H   H499      1.0  0.28459  0.26882  0.65846  1.0000
  C   C405      1.0  0.34376  0.14235  0.72184  1.0000
  H   H500      1.0  0.29624  0.98537  0.80431  1.0000
  Fe  Fe60      1.0  0.08840  0.38101  0.65989  1.0000
  H   H501      1.0  0.41924  0.21365  0.57256  1.0000
  H   H502      1.0  0.41478  0.42128  0.59528  1.0000
  H   H503      1.0  0.96199  0.45460  0.65713  1.0000
  C   C406      1.0  0.28095  0.10395  0.62210  1.0000
  S   S120      1.0  0.04651  0.40777  0.62115  1.0000
  C   C407      1.0  0.20598  0.21003  0.73163  1.0000
  N   N28       1.0  0.18611  0.32553  0.72685  1.0000
  C   C408      1.0  0.04320  0.14136  0.73700  1.0000
  C   C409      1.0  0.24031  0.29693  0.68986  1.0000
  H   H504      1.0  0.39175  0.23214  0.72184  1.0000
  H   H505      1.0  0.40878  0.43605  0.77225  1.0000
  C   C410      1.0  0.20474  0.28894  0.71939  1.0000
  H   H506      1.0  0.13550  0.33969  0.76312  1.0000
  S   S121      1.0  0.03292  0.29920  0.67677  1.0000
  H   H507      1.0  0.25607  0.08909  0.58390  1.0000
  H   H508      1.0  0.11132  0.26383  0.74020  1.0000
  H   H509      1.0  0.19208  0.17547  0.74707  1.0000
  C   C411      1.0  0.29973  0.08068  0.69333  1.0000
  H   H510      1.0  0.99663  0.33466  0.80674  1.0000
  H   H511      1.0  0.13988  0.33917  0.68018  1.0000
  C   C412      1.0  0.35735  0.18458  0.69992  1.0000
  H   H512      1.0  0.12964  0.05292  0.67563  1.0000
  H   H513      1.0  0.23403  0.01379  0.62145  1.0000
  C   C413      1.0  0.32577  0.16547  0.65018  1.0000
  H   H514      1.0  0.08053  0.09087  0.60726  1.0000
  C   C414      1.0  0.18815  0.24439  0.74028  1.0000
  C   C415      1.0  0.98413  0.25679  0.57422  1.0000
  H   H515      1.0  0.04788  0.45675  0.75790  1.0000
  C   C416      1.0  0.26855  0.06134  0.64329  1.0000
  C   C417      1.0  0.04452  0.12157  0.68703  1.0000
  H   H516      1.0  0.06823  0.39415  0.78012  1.0000
  C   C418      1.0  0.23390  0.39112  0.75275  1.0000
  C   C419      1.0  0.99013  0.16866  0.70782  1.0000
  Fe  Fe61      1.0  0.10172  0.42700  0.57332  1.0000
  C   C420      1.0  0.97705  0.03461  0.57023  1.0000
  H   H517      1.0  0.25920  0.40148  0.79020  1.0000
  H   H518      1.0  0.99129  0.45122  0.58567  1.0000
  C   C421      1.0  0.41037  0.43361  0.73376  1.0000
  H   H519      1.0  0.10650  0.16647  0.61620  1.0000
  C   C422      1.0  0.99055  0.14812  0.65749  1.0000
  C   C423      1.0  0.11663  0.00991  0.59517  1.0000
  N   N29       1.0  0.01867  0.10149  0.59256  1.0000
  C   C424      1.0  0.09999  0.01614  0.63878  1.0000
  C   C425      1.0  0.95086  0.43373  0.56224  1.0000
  C   C426      1.0  0.43005  0.05442  0.58937  1.0000
  H   H520      1.0  0.96905  0.18705  0.71581  1.0000
  H   H521      1.0  0.01646  0.18164  0.78660  1.0000
  H   H522      1.0  0.96799  0.15027  0.62827  1.0000
  C   C427      1.0  0.97336  0.02638  0.80563  1.0000
  H   H523      1.0  0.32725  0.06072  0.56923  1.0000
  C   C428      1.0  0.35266  0.04915  0.55913  1.0000
  C   C429      1.0  0.37366  0.32510  0.93437  1.0000
  S   S122      1.0  0.14819  0.34151  0.99554  1.0000
  C   C430      1.0  0.27792  0.01644  0.92110  1.0000
  H   H524      1.0  0.34472  0.13742  0.85892  1.0000
  S   S123      1.0  0.33078  0.18611  0.97505  1.0000
  C   C431      1.0  0.37193  0.13347  0.88003  1.0000
  H   H525      1.0  0.22241  0.15632  0.83949  1.0000
  C   C432      1.0  0.27349  0.25950  0.05522  1.0000
  H   H526      1.0  0.28787  0.27800  0.02564  1.0000
  C   C433      1.0  0.42785  0.18181  0.89521  1.0000
  C   C434      1.0  0.10488  0.14917  0.87634  1.0000
  C   C435      1.0  0.41200  0.01514  0.04995  1.0000
  C   C436      1.0  0.27320  0.43364  0.92978  1.0000
  H   H527      1.0  0.21740  0.23837  0.84406  1.0000
  H   H528      1.0  0.29952  0.00336  0.93952  1.0000
  C   C437      1.0  0.10805  0.10332  0.87445  1.0000
  C   C438      1.0  0.18945  0.15422  0.84952  1.0000
  H   H529      1.0  0.20083  0.24062  0.98316  1.0000
  C   C439      1.0  0.39366  0.30922  0.02443  1.0000
  H   H530      1.0  0.28646  0.05668  0.95086  1.0000
  H   H531      1.0  0.26310  0.04489  0.81546  1.0000
  C   C440      1.0  0.33885  0.43793  0.89013  1.0000
  H   H532      1.0  0.44145  0.22031  0.88547  1.0000
  H   H533      1.0  0.32352  0.22758  0.89584  1.0000
  H   H534      1.0  0.23754  0.40652  0.94072  1.0000
  H   H535      1.0  0.14048  0.17939  0.98804  1.0000
  C   C441      1.0  0.21053  0.15685  0.99203  1.0000
  C   C442      1.0  0.18357  0.21971  0.01072  1.0000
  N   N30       1.0  0.21519  0.20400  0.03362  1.0000
  S   S124      1.0  0.03655  0.27625  0.90155  1.0000
  H   H536      1.0  0.38084  0.04470  0.93026  1.0000
  H   H537      1.0  0.17582  0.03858  0.03430  1.0000
  C   C443      1.0  0.01134  0.42150  0.83358  1.0000
  C   C444      1.0  0.01423  0.42582  0.03535  1.0000
  C   C445      1.0  0.41594  0.36721  0.02675  1.0000
  S   S125      1.0  0.43821  0.44879  0.98451  1.0000
  Fe  Fe62      1.0  0.09352  0.28251  0.03298  1.0000
  H   H538      1.0  0.10917  0.10954  0.02036  1.0000
  Fe  Fe63      1.0  0.08703  0.35499  0.97814  1.0000
  H   H539      1.0  0.07150  0.14635  0.88540  1.0000
  C   C446      1.0  0.35240  0.08235  0.89250  1.0000
  Fe  Fe64      1.0  0.37592  0.19095  0.04440  1.0000
  H   H540      1.0  0.24575  0.47054  0.01393  1.0000
  C   C447      1.0  0.39237  0.08235  0.92005  1.0000
  H   H541      1.0  0.16744  0.11527  0.97093  1.0000
  H   H542      1.0  0.98873  0.42760  0.00709  1.0000
  H   H543      1.0  0.19304  0.44752  0.93215  1.0000
  N   N31       1.0  0.29362  0.02965  0.87605  1.0000
  S   S126      1.0  0.04466  0.19805  0.96019  1.0000
  S   S127      1.0  0.11249  0.44437  0.98233  1.0000
  S   S128      1.0  0.15610  0.05040  0.85973  1.0000
  C   C448      1.0  0.35997  0.25875  0.97740  1.0000
  H   H544      1.0  0.07786  0.06597  0.88331  1.0000
  C   C449      1.0  0.09128  0.42944  0.82041  1.0000
  C   C450      1.0  0.95554  0.05839  0.82636  1.0000
  C   C451      1.0  0.14404  0.19758  0.86507  1.0000
  H   H545      1.0  0.21306  0.99944  0.84149  1.0000
  H   H546      1.0  0.96104  0.09205  0.81300  1.0000
  S   S129      1.0  0.13998  0.25467  0.86743  1.0000
  H   H547      1.0  0.18325  0.25226  0.04129  1.0000
  S   S130      1.0  0.03624  0.30275  0.02142  1.0000
  H   H548      1.0  0.22836  0.17343  0.96269  1.0000
  C   C452      1.0  0.25694  0.03891  0.85180  1.0000
  H   H549      1.0  0.05534  0.47101  0.05062  1.0000
  H   H550      1.0  0.27304  0.35831  0.89831  1.0000
  H   H551      1.0  0.01762  0.39123  0.01357  1.0000
  C   C453      1.0  0.15012  0.10574  0.86073  1.0000
  C   C454      1.0  0.18650  0.20035  0.85186  1.0000
  H   H552      1.0  0.13459  0.46117  0.82193  1.0000
  Fe  Fe65      1.0  0.99047  0.22199  0.94613  1.0000
  N   N32       1.0  0.06880  0.46169  0.83468  1.0000
  C   C455      1.0  0.98504  0.44623  0.84862  1.0000
  H   H553      1.0  0.96788  0.06686  0.98265  1.0000
  C   C456      1.0  0.34959  0.26660  0.93235  1.0000
  H   H554      1.0  0.26326  0.07929  0.87849  1.0000
  H   H555      1.0  0.09078  0.40800  0.84754  1.0000
  C   C457      1.0  0.40651  0.37540  0.98174  1.0000
  H   H556      1.0  0.35493  0.41633  0.87233  1.0000
  H   H557      1.0  0.23245  0.14247  0.00779  1.0000
  H   H558      1.0  0.94667  0.27041  0.92010  1.0000
  H   H559      1.0  0.36625  0.33121  0.89938  1.0000
  Fe  Fe66      1.0  0.09477  0.25936  0.92155  1.0000
  C   C458      1.0  0.29299  0.40543  0.90510  1.0000
  C   C459      1.0  0.98033  0.35778  0.81892  1.0000
  C   C460      1.0  0.02454  0.40674  0.11235  1.0000
  C   C461      1.0  0.27971  0.42300  0.14692  1.0000
  H   H560      1.0  0.28010  0.29626  0.08797  1.0000
  H   H561      1.0  0.07283  0.06528  0.08177  1.0000
  C   C462      1.0  0.21649  0.32002  0.16894  1.0000
  H   H562      1.0  0.22446  0.06546  0.21677  1.0000
  C   C463      1.0  0.98319  0.05523  0.27883  1.0000
  C   C464      1.0  0.36497  0.27333  0.28104  1.0000
  H   H563      1.0  0.33401  0.99753  0.26570  1.0000
  H   H564      1.0  0.30385  0.46343  0.13928  1.0000
  H   H565      1.0  0.01495  0.40987  0.24622  1.0000
  H   H566      1.0  0.27216  0.11402  0.09080  1.0000
  H   H567      1.0  0.12721  0.99266  0.16112  1.0000
  C   C465      1.0  0.38845  0.06324  0.23703  1.0000
  H   H568      1.0  0.38357  0.38950  0.25807  1.0000
  C   C466      1.0  0.22713  0.20126  0.12279  1.0000
  C   C467      1.0  0.30530  0.41088  0.17859  1.0000
  C   C468      1.0  0.09158  0.40101  0.18074  1.0000
  H   H569      1.0  0.03409  0.14690  0.25444  1.0000
  H   H570      1.0  0.20205  0.26091  0.26520  1.0000
  C   C469      1.0  0.27357  0.35980  0.19020  1.0000
  H   H571      1.0  0.29309  0.35025  0.21471  1.0000
  C   C470      1.0  0.35350  0.30928  0.27042  1.0000
  C   C471      1.0  0.20531  0.17494  0.15730  1.0000
  H   H572      1.0  0.31233  0.29411  0.26349  1.0000
  H   H573      1.0  0.99889  0.01046  0.19250  1.0000
  H   H574      1.0  0.00615  0.18630  0.14056  1.0000
  C   C472      1.0  0.00328  0.35357  0.12209  1.0000
  H   H575      1.0  0.13323  0.10515  0.16890  1.0000
  H   H576      1.0  0.01978  0.30962  0.16156  1.0000
  H   H577      1.0  0.19218  0.27968  0.17682  1.0000
  H   H578      1.0  0.30971  0.45596  0.29334  1.0000
  N   N33       1.0  0.99079  0.41121  0.07679  1.0000
  H   H579      1.0  0.01653  0.28019  0.28126  1.0000
  C   C473      1.0  0.11556  0.10471  0.09371  1.0000
  H   H580      1.0  0.97344  0.45212  0.13792  1.0000
  C   C474      1.0  0.96537  0.17226  0.12839  1.0000
  Fe  Fe67      1.0  0.37546  0.16895  0.14304  1.0000
  S   S131      1.0  0.39567  0.24802  0.12615  1.0000
  C   C475      1.0  0.03666  0.35089  0.15543  1.0000
  C   C476      1.0  0.15898  0.01886  0.14560  1.0000
  H   H581      1.0  0.13631  0.09849  0.28908  1.0000
  C   C477      1.0  0.11330  0.45418  0.17306  1.0000
  H   H582      1.0  0.38960  0.04588  0.11285  1.0000
  H   H583      1.0  0.20296  0.39351  0.10230  1.0000
  C   C478      1.0  0.21388  0.06013  0.17711  1.0000
  S   S132      1.0  0.34900  0.10913  0.06020  1.0000
  C   C479      1.0  0.08061  0.45687  0.13890  1.0000
  C   C480      1.0  0.14553  0.00919  0.09348  1.0000
  H   H584      1.0  0.96345  0.05355  0.24302  1.0000
  C   C481      1.0  0.12944  0.12831  0.28170  1.0000
  H   H585      1.0  0.96098  0.31336  0.10443  1.0000
  C   C482      1.0  0.16768  0.22050  0.26780  1.0000
  C   C483      1.0  0.95013  0.27845  0.25182  1.0000
  S   S133      1.0  0.11980  0.27871  0.10734  1.0000
  C   C484      1.0  0.41754  0.29186  0.28887  1.0000
  H   H586      1.0  0.33297  0.23035  0.28232  1.0000
  H   H587      1.0  0.27077  0.23702  0.13601  1.0000
  H   H588      1.0  0.11174  0.23701  0.24869  1.0000
  C   C485      1.0  0.17399  0.18139  0.27965  1.0000
  C   C486      1.0  0.39475  0.36415  0.26805  1.0000
  C   C487      1.0  0.14965  0.12710  0.14290  1.0000
  C   C488      1.0  0.18636  0.04401  0.07388  1.0000
  C   C489      1.0  0.01209  0.00571  0.22749  1.0000
  C   C490      1.0  0.38726  0.00876  0.08860  1.0000
  H   H589      1.0  0.21339  0.19140  0.28688  1.0000
  H   H590      1.0  0.23204  0.18962  0.19450  1.0000
  C   C491      1.0  0.22258  0.38331  0.12583  1.0000
  H   H591      1.0  0.11736  0.39850  0.20613  1.0000
  S   S134      1.0  0.32372  0.13639  0.19301  1.0000
  C   C492      1.0  0.11682  0.20692  0.25848  1.0000
  C   C493      1.0  0.25501  0.09227  0.15655  1.0000
  N   N34       1.0  0.03052  0.05680  0.27540  1.0000
  C   C494      1.0  0.24098  0.08626  0.10569  1.0000
  H   H592      1.0  0.28323  0.98297  0.13860  1.0000
  C   C495      1.0  0.98962  0.46023  0.10564  1.0000
  C   C496      1.0  0.07741  0.11388  0.27399  1.0000
  S   S135      1.0  0.37665  0.45918  0.20517  1.0000
  H   H593      1.0  0.36768  0.08246  0.23801  1.0000
  H   H594      1.0  0.44166  0.40571  0.06317  1.0000
  C   C497      1.0  0.00802  0.44255  0.25164  1.0000
  C   C498      1.0  0.19097  0.33127  0.13611  1.0000
  C   C499      1.0  0.39706  0.99219  0.25306  1.0000
  C   C500      1.0  0.07221  0.15451  0.26155  1.0000
  H   H595      1.0  0.96385  0.46430  0.08032  1.0000
  C   C501      1.0  0.94983  0.46719  0.22996  1.0000
  C   C502      1.0  0.36942  0.01550  0.25262  1.0000
  C   C503      1.0  0.98993  0.29047  0.29080  1.0000
  H   H596      1.0  0.04487  0.00224  0.22369  1.0000
  Fe  Fe68      1.0  0.43570  0.14681  0.07636  1.0000
  C   C504      1.0  0.95864  0.42476  0.22293  1.0000
  H   H597      1.0  0.42587  0.26294  0.29613  1.0000
  H   H598      1.0  0.30065  0.24974  0.06822  1.0000
  C   C505      1.0  0.13691  0.13032  0.05876  1.0000
  H   H599      1.0  0.18392  0.00428  0.29806  1.0000
  C   C506      1.0  0.19329  0.17983  0.07234  1.0000
  H   H600      1.0  0.94664  0.26059  0.21175  1.0000
  H   H601      1.0  0.94985  0.01348  0.28315  1.0000
  H   H602      1.0  0.43995  0.42337  0.20345  1.0000
  H   H603      1.0  0.17389  0.45076  0.07058  1.0000
  C   C507      1.0  0.94748  0.17522  0.08326  1.0000
  C   C508      1.0  0.44384  0.01651  0.23790  1.0000
  C   C509      1.0  0.43537  0.08806  0.22210  1.0000
  H   H604      1.0  0.40209  0.30356  0.05917  1.0000
  H   H605      1.0  0.97462  0.19182  0.06070  1.0000
  S   S136      1.0  0.07996  0.40468  0.48867  1.0000
  C   C510      1.0  0.38802  0.32589  0.42758  1.0000
  Fe  Fe69      1.0  0.17607  0.18159  0.52782  1.0000
  S   S137      1.0  0.13393  0.10128  0.45250  1.0000
  H   H606      1.0  0.26847  0.40376  0.47765  1.0000
  H   H607      1.0  0.14782  0.30590  0.36302  1.0000
  H   H608      1.0  0.42453  0.17737  0.44118  1.0000
  C   C511      1.0  0.04658  0.04701  0.32046  1.0000
  C   C512      1.0  0.28286  0.28052  0.42897  1.0000
  C   C513      1.0  0.14197  0.43167  0.33809  1.0000
  S   S138      1.0  0.25915  0.22948  0.52009  1.0000
  N   N35       1.0  0.20857  0.39543  0.42411  1.0000
  H   H609      1.0  0.96699  0.34683  0.39578  1.0000
  H   H610      1.0  0.42856  0.34296  0.42729  1.0000
  S   S139      1.0  0.02598  0.21911  0.35162  1.0000
  H   H611      1.0  0.43625  0.14140  0.53609  1.0000
  C   C514      1.0  0.19211  0.33810  0.38555  1.0000
  N   N36       1.0  0.30008  0.00143  0.46443  1.0000
  H   H612      1.0  0.99543  0.09494  0.31265  1.0000
  C   C515      1.0  0.12558  0.21844  0.45148  1.0000
  C   C516      1.0  0.07720  0.24307  0.49861  1.0000
  C   C517      1.0  0.38286  0.00966  0.49763  1.0000
  H   H613      1.0  0.29424  0.44066  0.43473  1.0000
  H   H614      1.0  0.02186  0.24875  0.45514  1.0000
  C   C518      1.0  0.05044  0.23977  0.45390  1.0000
  H   H615      1.0  0.38127  0.98888  0.45916  1.0000
  H   H616      1.0  0.10727  0.20417  0.37136  1.0000
  C   C519      1.0  0.26549  0.42993  0.45746  1.0000
  H   H617      1.0  0.15482  0.21052  0.45051  1.0000
  H   H618      1.0  0.11453  0.35558  0.35694  1.0000
  Fe  Fe70      1.0  0.21808  0.14702  0.44660  1.0000
  H   H619      1.0  0.19951  0.31347  0.40434  1.0000
  S   S140      1.0  0.43531  0.08394  0.40873  1.0000
  C   C520      1.0  0.11417  0.23162  0.49725  1.0000
  C   C521      1.0  0.07236  0.45596  0.47901  1.0000
  H   H620      1.0  0.32104  0.37152  0.48195  1.0000
  H   H621      1.0  0.06857  0.25345  0.53396  1.0000
  H   H622      1.0  0.01076  0.00743  0.32496  1.0000
  H   H623      1.0  0.02555  0.32381  0.37284  1.0000
  H   H624      1.0  0.95521  0.43950  0.52545  1.0000
  C   C522      1.0  0.09898  0.21530  0.40679  1.0000
  C   C523      1.0  0.34440  0.01858  0.50683  1.0000
  H   H625      1.0  0.08149  0.43981  0.40366  1.0000
  C   C524      1.0  0.20182  0.42868  0.39718  1.0000
  C   C525      1.0  0.34371  0.47247  0.32479  1.0000
  C   C526      1.0  0.96047  0.32778  0.35507  1.0000
  H   H626      1.0  0.01070  0.11187  0.52002  1.0000
  H   H627      1.0  0.35057  0.23383  0.37782  1.0000
  C   C527      1.0  0.06098  0.22536  0.40784  1.0000
  C   C528      1.0  0.37999  0.36437  0.45832  1.0000
  S   S141      1.0  0.14450  0.23199  0.55247  1.0000
  C   C529      1.0  0.17329  0.38062  0.45744  1.0000
  H   H628      1.0  0.24913  0.00414  0.50928  1.0000
  C   C530      1.0  0.29145  0.24129  0.40091  1.0000
  C   C531      1.0  0.07359  0.46362  0.43255  1.0000
  H   H629      1.0  0.18323  0.42233  0.48605  1.0000
  H   H630      1.0  0.35390  0.07905  0.44745  1.0000
  H   H631      1.0  0.12917  0.35097  0.43513  1.0000
  C   C532      1.0  0.32723  0.34204  0.45795  1.0000
  Fe  Fe71      1.0  0.15409  0.06013  0.49725  1.0000
  H   H632      1.0  0.24241  0.26262  0.43066  1.0000
  S   S142      1.0  0.43554  0.44018  0.49801  1.0000
  C   C533      1.0  0.34374  0.26426  0.39895  1.0000
  H   H633      1.0  0.94661  0.23019  0.49412  1.0000
  H   H634      1.0  0.06655  0.08769  0.35697  1.0000
  H   H635      1.0  0.07477  0.03623  0.31675  1.0000
  H   H636      1.0  0.21538  0.34703  0.35781  1.0000
  C   C534      1.0  0.14979  0.40097  0.36331  1.0000
  H   H637      1.0  0.17744  0.35623  0.47916  1.0000
  S   S143      1.0  0.23484  0.09878  0.48459  1.0000
  C   C535      1.0  0.31578  0.05693  0.45790  1.0000
  S   S144      1.0  0.23904  0.16286  0.37657  1.0000
  C   C536      1.0  0.42454  0.02674  0.53846  1.0000
  H   H638      1.0  0.97404  0.01411  0.52963  1.0000
  H   H639      1.0  0.38262  0.41141  0.38617  1.0000
  H   H640      1.0  0.32344  0.09105  0.49399  1.0000
  H   H641      1.0  0.28357  0.04654  0.42649  1.0000
  H   H642      1.0  0.28034  0.47290  0.48853  1.0000
  C   C537      1.0  0.38412  0.44560  0.37685  1.0000
  C   C538      1.0  0.34128  0.42857  0.33781  1.0000
  C   C539      1.0  0.99511  0.31518  0.34229  1.0000
  H   H643      1.0  0.96191  0.10621  0.54902  1.0000
  H   H644      1.0  0.30643  0.38092  0.31692  1.0000
  H   H645      1.0  0.95001  0.33332  0.54059  1.0000
  H   H646      1.0  0.10159  0.40997  0.31325  1.0000
  C   C540      1.0  0.00536  0.12496  0.55823  1.0000
  H   H647      1.0  0.07547  0.10748  0.55277  1.0000
  Fe  Fe72      1.0  0.26850  0.17747  0.55851  1.0000
  H   H648      1.0  0.24908  0.98421  0.31149  1.0000
