data_image0
_chemical_formula_structural       HSHSHC2H2NCHS2HCS2C2H2CHC2NSFe2H2C2HFeHCH5CHSH8CHC2H4C3HCHNFeC2HCH2FeC2Fe2CHS2HSCFeHCH3CSC2HSCSCHC2HCH2FeC3H3FeHCH3CSCHCH4C2HSHSCH3CHC3HC4H2SH3SH2CHCH2C2HCHCHSH2C2SCSCH2FeHC3NC2HCH2C2SH2CHCH2CNCH2CFeSFeCSHSC2FeH4NC3HFeH4CH2SHFeHSHC2SC4H4CHCSC2FeH3S2CH3C2HSHCH3C3HNH2CFe2CHCH2C2H5CHC3HCH3CH5CSC3FeH3CFeS2NHC3HC2HCH2CHC2H2NCH2C3SFeHFeSH2C3H2CHSCHC2H4C2HC2HCH3C3HCHC2HCH2NH3FeCHCH2C2HSH4C3H3C5NHCHC3SHSCHCSCH5CH3C2SHC2SHC2SHC3HSC2H2NFe2HCSHCH3CHFeCH2NCHC3HCH2SHCHCH2C3SCHC3FeH3NHC2HFe2SC3HCH4CSHCSHCS2C2H2CSCH2C2H2CH3FeHSNCHCFeH5CHC2HSHCSHC2H2CH3FeC3HSH3CH2SHC2HCHFeCSC4SH5NCH3S3HCSHCHC2HC2FeC3HCHCH2SHCHFeH4CSFeHSH2CNH3NCH2CFeSHC4H2SCHS2C2H3CH2S2HC2HC3FeHCH3CH4SCHSCHFeC3H3CHC3HSH2SFe2H3CSC6SCFeHCH3C2H2FeH2CSHSH2C2HCFeCHCSC3H3CHCHCHS2H2C4HFeCH4C2H3CNCHCHCHC2HCHC2HSCHCFeCHC2SH5CHFeSCSC2HC2H2SH3CH2CSCSHCFeCHC2H2CH2CSC3H2CSHC2H2FeC2HC2H3NSH6CSH3CH5C4H5SHC2HC3HSCHCHCSHCSHCNHCH2SH2C3HCHCH2SCFeCH3C2H2C3NH2C2HSH5CSCHSC3NH2CSNHC2FeH2CHCHFeC2HCH3SH4Fe2SHCHCH3CHCH3SHCSHCH3C3HNCSHC2SH4CSCSH4CNHCHCHFe2HCH2CH4CHNFeH2C3FeCH2S2HFeHCSC2HCH2CSC3NC4H2SC2H2CHC2HCH2C2HC2HCH7CHFeH3SH8C2H2C2HCSHNHCHCH2FeS2HC2SC2H3C3S2CHC3HCH2C3NH2CSC2SC2NH3FeC2H2FeH2CH2NC3NHCSHCSHC2H2CHC2H2CFeHCH4CHCH2C4H2CSC2FeSC2HC2H2C3H2C2FeHFeSCSCH2CH2CHC2H5S2CH2CH2CH2C3H8CHNC2HFeHNSFeHSFeH2CHC2H2C2HCHC2HSHCHC2HCHC2H2SCSHCHCHNCHCH2C3HSHC2H4C2SCH2CH2CH6C2HCFeCNFeC3SCFeSC5H2CSC4HSCH6C2HC2HC3H2FeH2C3H3CHCHCSC2SC3NHCH5SH2CH10CSNHC2HCS2C2FeHFeHC6HSFeHCHCSCH2SC2HSFeCHFeH3SH6CNH3CH2
_chemical_formula_sum              "H720 S160 C600 N40 Fe80"
_cell_length_a       26.9032
_cell_length_b       24.3517
_cell_length_c       35.3585
_cell_angle_alpha    92.8859
_cell_angle_beta     76.1257
_cell_angle_gamma    95.097

_space_group_name_H-M_alt    "P 1"
_space_group_IT_number       1

loop_
  _space_group_symop_operation_xyz
  'x, y, z'

loop_
  _atom_site_type_symbol
  _atom_site_label
  _atom_site_symmetry_multiplicity
  _atom_site_fract_x
  _atom_site_fract_y
  _atom_site_fract_z
  _atom_site_occupancy
  H   H1        1.0  0.09128  0.61360  0.44395  1.0000
  S   S1        1.0  0.19167  0.80113  0.35252  1.0000
  H   H2        1.0  0.48159  0.83485  0.38096  1.0000
  S   S2        1.0  0.17073  0.71555  0.44799  1.0000
  H   H3        1.0  0.26914  0.68898  0.39895  1.0000
  C   C1        1.0  0.13999  0.52601  0.40924  1.0000
  C   C2        1.0  0.31410  0.49169  0.56852  1.0000
  H   H4        1.0  0.40943  0.54321  0.55967  1.0000
  H   H5        1.0  0.39130  0.87590  0.35027  1.0000
  N   N1        1.0  0.23790  0.81989  0.54535  1.0000
  C   C3        1.0  0.26076  0.66465  0.42484  1.0000
  H   H6        1.0  0.16684  0.63786  0.50661  1.0000
  S   S3        1.0  0.08674  0.46962  0.58714  1.0000
  S   S4        1.0  0.42617  0.66107  0.40599  1.0000
  H   H7        1.0  0.19305  0.75944  0.51822  1.0000
  C   C4        1.0  0.29555  0.62760  0.42993  1.0000
  S   S5        1.0  0.33339  0.55935  0.47451  1.0000
  S   S6        1.0  0.27478  0.84361  0.40437  1.0000
  C   C5        1.0  0.23889  0.60035  0.49120  1.0000
  C   C6        1.0  0.40594  0.49756  0.55531  1.0000
  H   H8        1.0  0.41395  0.82790  0.40161  1.0000
  H   H9        1.0  0.35699  0.77903  0.36591  1.0000
  C   C7        1.0  0.34676  0.73161  0.49389  1.0000
  H   H10       1.0  0.49974  0.85437  0.51034  1.0000
  C   C8        1.0  0.28591  0.59745  0.46402  1.0000
  C   C9        1.0  0.17298  0.59909  0.36416  1.0000
  N   N2        1.0  0.13096  0.55533  0.37582  1.0000
  S   S7        1.0  0.44362  0.53099  0.38167  1.0000
  Fe  Fe1       1.0  0.41114  0.58067  0.43576  1.0000
  Fe  Fe2       1.0  0.50187  0.66835  0.42159  1.0000
  H   H11       1.0  0.53463  0.84888  0.56857  1.0000
  H   H12       1.0  0.47716  0.40073  0.50336  1.0000
  C   C10       1.0  0.38115  0.82592  0.49784  1.0000
  C   C11       1.0  0.33247  0.84130  0.51729  1.0000
  H   H13       1.0  0.15007  0.55478  0.43220  1.0000
  Fe  Fe3       1.0  0.51807  0.54804  0.39932  1.0000
  H   H14       1.0  0.45739  0.42004  0.42103  1.0000
  C   C12       1.0  0.28904  0.80235  0.52480  1.0000
  H   H15       1.0  0.32952  0.62212  0.40726  1.0000
  H   H16       1.0  0.44905  0.76810  0.39075  1.0000
  H   H17       1.0  0.27673  0.46994  0.58269  1.0000
  H   H18       1.0  0.15765  0.79031  0.56213  1.0000
  H   H19       1.0  0.21123  0.58227  0.35818  1.0000
  C   C13       1.0  0.38832  0.77111  0.48633  1.0000
  H   H20       1.0  0.17227  0.63184  0.38729  1.0000
  S   S8        1.0  0.07610  0.88838  0.36147  1.0000
  H   H21       1.0  0.39158  0.39584  0.58269  1.0000
  H   H22       1.0  0.35814  0.39890  0.54460  1.0000
  H   H23       1.0  0.35247  0.68883  0.48514  1.0000
  H   H24       1.0  0.42619  0.75914  0.47170  1.0000
  H   H25       1.0  0.17284  0.49965  0.40026  1.0000
  H   H26       1.0  0.08261  0.79759  0.40908  1.0000
  H   H27       1.0  0.26744  0.71394  0.51734  1.0000
  H   H28       1.0  0.40648  0.48918  0.52397  1.0000
  C   C14       1.0  0.06726  0.61046  0.42329  1.0000
  H   H29       1.0  0.32898  0.88397  0.52656  1.0000
  C   C15       1.0  0.20305  0.63551  0.48533  1.0000
  C   C16       1.0  0.29775  0.74672  0.51268  1.0000
  H   H30       1.0  0.44108  0.48054  0.55990  1.0000
  H   H31       1.0  0.20108  0.74039  0.56508  1.0000
  H   H32       1.0  0.53019  0.68607  0.49963  1.0000
  H   H33       1.0  0.22746  0.85545  0.49358  1.0000
  C   C17       1.0  0.04301  0.80639  0.41371  1.0000
  C   C18       1.0  0.21479  0.66914  0.45289  1.0000
  C   C19       1.0  0.08158  0.58141  0.38695  1.0000
  H   H34       1.0  0.41353  0.85659  0.49172  1.0000
  C   C20       1.0  0.19580  0.77539  0.54775  1.0000
  H   H35       1.0  0.10538  0.49918  0.42317  1.0000
  N   N3        1.0  0.35829  0.47248  0.58126  1.0000
  Fe  Fe4       1.0  0.19973  0.79179  0.41359  1.0000
  C   C21       1.0  0.37973  0.41476  0.45368  1.0000
  C   C22       1.0  0.44563  0.80899  0.38007  1.0000
  H   H36       1.0  0.31123  0.53679  0.57432  1.0000
  C   C23       1.0  0.22455  0.86626  0.52493  1.0000
  H   H37       1.0  0.38093  0.45826  0.46173  1.0000
  H   H38       1.0  0.23052  0.57619  0.51717  1.0000
  Fe  Fe5       1.0  0.14955  0.87476  0.37732  1.0000
  C   C24       1.0  0.04817  0.58224  0.36132  1.0000
  C   C25       1.0  0.23911  0.83864  0.58567  1.0000
  Fe  Fe6       1.0  0.46357  0.61271  0.35351  1.0000
  Fe  Fe7       1.0  0.03972  0.44607  0.54341  1.0000
  C   C26       1.0  0.53055  0.88392  0.51484  1.0000
  H   H39       1.0  0.31740  0.48375  0.53676  1.0000
  S   S9        1.0  0.48460  0.59118  0.45620  1.0000
  S   S10       1.0  0.15397  0.86313  0.43882  1.0000
  H   H40       1.0  0.26633  0.87567  0.58637  1.0000
  S   S11       1.0  0.53519  0.75334  0.43308  1.0000
  C   C27       1.0  0.35781  0.41189  0.57529  1.0000
  Fe  Fe8       1.0  0.12821  0.39405  0.56487  1.0000
  H   H41       1.0  0.18482  0.87804  0.53784  1.0000
  C   C28       1.0  0.42319  0.39249  0.43017  1.0000
  H   H42       1.0  0.30052  0.39919  0.48404  1.0000
  H   H43       1.0  0.50964  0.51515  0.68405  1.0000
  H   H44       1.0  0.17521  0.45875  0.69486  1.0000
  C   C29       1.0  0.06275  0.80751  0.83487  1.0000
  S   S12       1.0  0.17591  0.45769  0.77581  1.0000
  C   C30       1.0  0.12526  0.45649  0.75239  1.0000
  C   C31       1.0  0.30308  0.48430  0.69092  1.0000
  H   H45       1.0  0.34148  0.51751  0.73498  1.0000
  S   S13       1.0  0.46330  0.52669  0.76606  1.0000
  C   C32       1.0  0.39633  0.51035  0.63770  1.0000
  S   S14       1.0  0.50163  0.41974  0.83060  1.0000
  C   C33       1.0  0.34485  0.50875  0.70411  1.0000
  H   H46       1.0  0.43373  0.52061  0.61894  1.0000
  C   C34       1.0  0.52718  0.53601  0.73958  1.0000
  C   C35       1.0  0.09551  0.44927  0.69271  1.0000
  H   H47       1.0  0.49705  0.40742  0.65880  1.0000
  C   C36       1.0  0.35417  0.48616  0.62317  1.0000
  H   H48       1.0  0.42382  0.53982  0.68835  1.0000
  H   H49       1.0  0.26683  0.47442  0.71158  1.0000
  Fe  Fe9       1.0  0.46498  0.49713  0.82464  1.0000
  C   C37       1.0  0.30772  0.47234  0.65121  1.0000
  C   C38       1.0  0.13585  0.45555  0.71172  1.0000
  C   C39       1.0  0.39136  0.52148  0.67762  1.0000
  H   H50       1.0  0.33995  0.41008  0.81396  1.0000
  H   H51       1.0  0.50162  0.40969  0.72784  1.0000
  H   H52       1.0  0.27459  0.45163  0.64279  1.0000
  Fe  Fe10      1.0  0.14320  0.45348  0.83998  1.0000
  H   H53       1.0  0.04306  0.78986  0.81225  1.0000
  C   C40       1.0  0.04460  0.44334  0.71413  1.0000
  H   H54       1.0  0.10372  0.44865  0.66138  1.0000
  H   H55       1.0  0.08772  0.84416  0.82223  1.0000
  H   H56       1.0  0.25092  0.80573  0.60164  1.0000
  C   C41       1.0  0.46542  0.39763  0.72019  1.0000
  S   S15       1.0  0.04144  0.88864  0.68496  1.0000
  C   C42       1.0  0.07415  0.45302  0.77400  1.0000
  H   H57       1.0  0.08837  0.77641  0.83970  1.0000
  C   C43       1.0  0.46287  0.39667  0.68133  1.0000
  H   H58       1.0  0.28577  0.41809  0.76348  1.0000
  H   H59       1.0  0.06551  0.45425  0.80545  1.0000
  H   H60       1.0  0.20074  0.85028  0.60252  1.0000
  H   H61       1.0  0.38954  0.85272  0.94235  1.0000
  C   C44       1.0  0.44957  0.66338  0.92691  1.0000
  C   C45       1.0  0.15352  0.60004  0.90460  1.0000
  H   H62       1.0  0.27895  0.68060  0.97764  1.0000
  S   S16       1.0  0.39292  0.47362  0.86915  1.0000
  H   H63       1.0  0.21037  0.70132  0.03135  1.0000
  S   S17       1.0  0.38915  0.57246  0.95964  1.0000
  C   C46       1.0  0.33007  0.72572  0.93318  1.0000
  H   H64       1.0  0.07234  0.61126  0.93749  1.0000
  H   H65       1.0  0.07508  0.55629  0.99670  1.0000
  H   H66       1.0  0.15877  0.42603  0.99031  1.0000
  C   C47       1.0  0.11819  0.50618  0.04211  1.0000
  H   H67       1.0  0.42645  0.64158  0.07306  1.0000
  C   C48       1.0  0.20254  0.57529  0.90560  1.0000
  C   C49       1.0  0.33468  0.81059  0.98849  1.0000
  C   C50       1.0  0.20474  0.54638  0.02635  1.0000
  H   H68       1.0  0.22383  0.45622  0.98262  1.0000
  C   C51       1.0  0.50711  0.70952  0.07550  1.0000
  C   C52       1.0  0.10895  0.55898  0.97292  1.0000
  C   C53       1.0  0.20734  0.77729  0.90200  1.0000
  C   C54       1.0  0.36125  0.77387  0.92257  1.0000
  H   H69       1.0  0.48537  0.72337  0.05518  1.0000
  H   H70       1.0  0.13949  0.73802  0.00774  1.0000
  S   S18       1.0  0.43926  0.82526  0.07941  1.0000
  H   H71       1.0  0.49764  0.73458  0.90252  1.0000
  H   H72       1.0  0.26246  0.66795  0.04172  1.0000
  H   H73       1.0  0.12433  0.48768  0.06869  1.0000
  S   S19       1.0  0.17957  0.64079  0.96779  1.0000
  H   H74       1.0  0.22416  0.69225  0.89305  1.0000
  H   H75       1.0  0.18895  0.43640  0.03005  1.0000
  C   C55       1.0  0.47269  0.71715  0.92848  1.0000
  H   H76       1.0  0.38054  0.65485  0.02051  1.0000
  C   C56       1.0  0.51427  0.46027  0.03072  1.0000
  H   H77       1.0  0.21903  0.70162  0.07995  1.0000
  H   H78       1.0  0.33503  0.41135  0.01500  1.0000
  C   C57       1.0  0.20494  0.72260  0.91339  1.0000
  C   C58       1.0  0.30124  0.71953  0.97146  1.0000
  H   H79       1.0  0.23474  0.39499  0.92933  1.0000
  C   C59       1.0  0.15800  0.74884  0.97811  1.0000
  H   H80       1.0  0.26233  0.84372  0.05127  1.0000
  C   C60       1.0  0.30949  0.75851  0.06725  1.0000
  H   H81       1.0  0.08717  0.48020  0.03253  1.0000
  S   S20       1.0  0.49165  0.81615  0.96449  1.0000
  H   H82       1.0  0.14325  0.83471  0.98739  1.0000
  H   H83       1.0  0.33394  0.72323  0.06097  1.0000
  C   C61       1.0  0.30255  0.76202  0.00038  1.0000
  C   C62       1.0  0.41678  0.64059  0.96026  1.0000
  S   S21       1.0  0.09251  0.51512  0.87357  1.0000
  C   C63       1.0  0.10657  0.59169  0.93808  1.0000
  S   S22       1.0  0.36221  0.46553  0.07646  1.0000
  C   C64       1.0  0.52896  0.62961  0.03361  1.0000
  H   H84       1.0  0.44903  0.58103  0.08868  1.0000
  H   H85       1.0  0.42012  0.75046  0.02297  1.0000
  Fe  Fe11      1.0  0.04447  0.44276  0.90233  1.0000
  H   H86       1.0  0.23640  0.58266  0.88215  1.0000
  C   C65       1.0  0.23983  0.70468  0.04880  1.0000
  C   C66       1.0  0.50016  0.59611  0.01110  1.0000
  C   C67       1.0  0.18505  0.81781  0.92859  1.0000
  N   N4        1.0  0.16611  0.51060  0.01087  1.0000
  C   C68       1.0  0.46267  0.74860  0.96333  1.0000
  C   C69       1.0  0.15906  0.53394  0.97483  1.0000
  H   H87       1.0  0.45616  0.64021  0.89967  1.0000
  C   C70       1.0  0.05679  0.84370  0.89989  1.0000
  H   H88       1.0  0.22716  0.78832  0.87265  1.0000
  H   H89       1.0  0.21704  0.80001  0.08333  1.0000
  C   C71       1.0  0.04324  0.76723  0.08866  1.0000
  C   C72       1.0  0.42862  0.46778  0.07199  1.0000
  S   S23       1.0  0.30344  0.60516  0.09271  1.0000
  H   H90       1.0  0.08157  0.81218  0.90549  1.0000
  H   H91       1.0  0.19215  0.58875  0.03306  1.0000
  C   C73       1.0  0.16025  0.80356  0.96668  1.0000
  H   H92       1.0  0.38473  0.77767  0.89318  1.0000
  C   C74       1.0  0.40617  0.67232  0.99486  1.0000
  H   H93       1.0  0.08041  0.69028  0.08901  1.0000
  H   H94       1.0  0.05470  0.77618  0.01127  1.0000
  C   C75       1.0  0.53512  0.46753  0.06338  1.0000
  N   N5        1.0  0.50670  0.64868  0.07407  1.0000
  C   C76       1.0  0.23992  0.80304  0.05272  1.0000
  H   H95       1.0  0.24296  0.55020  0.00549  1.0000
  H   H96       1.0  0.49934  0.55461  0.95620  1.0000
  C   C77       1.0  0.45277  0.62667  0.08957  1.0000
  Fe  Fe12      1.0  0.47181  0.86352  0.02171  1.0000
  S   S24       1.0  0.46755  0.44340  0.92485  1.0000
  Fe  Fe13      1.0  0.14025  0.52025  0.92159  1.0000
  C   C78       1.0  0.42902  0.72620  0.99637  1.0000
  S   S25       1.0  0.50241  0.54707  0.86665  1.0000
  H   H97       1.0  0.46027  0.58207  0.02216  1.0000
  S   S26       1.0  0.19203  0.45615  0.88285  1.0000
  C   C79       1.0  0.36365  0.81619  0.95021  1.0000
  C   C80       1.0  0.46103  0.45973  0.03513  1.0000
  Fe  Fe14      1.0  0.43257  0.51854  0.91184  1.0000
  H   H98       1.0  0.24216  0.52852  0.94093  1.0000
  H   H99       1.0  0.32907  0.69219  0.91192  1.0000
  H   H100      1.0  0.33567  0.79666  0.06413  1.0000
  H   H101      1.0  0.33873  0.84404  0.00904  1.0000
  N   N6        1.0  0.27330  0.75673  0.04142  1.0000
  C   C81       1.0  0.52226  0.57985  0.97275  1.0000
  C   C82       1.0  0.20539  0.54265  0.94031  1.0000
  C   C83       1.0  0.18524  0.45497  0.00282  1.0000
  H   H102      1.0  0.21056  0.53057  0.05389  1.0000
  Fe  Fe15      1.0  0.43260  0.40012  0.87919  1.0000
  H   H103      1.0  0.44484  0.45377  0.00993  1.0000
  H   H104      1.0  0.21301  0.80396  0.03334  1.0000
  H   H105      1.0  0.08340  0.88009  0.88884  1.0000
  H   H106      1.0  0.15207  0.62471  0.88031  1.0000
  C   C84       1.0  0.17979  0.70806  0.95141  1.0000
  H   H107      1.0  0.10427  0.54751  0.05181  1.0000
  H   H108      1.0  0.32890  0.39706  0.91475  1.0000
  S   S27       1.0  0.08566  0.44511  0.95021  1.0000
  H   H109      1.0  0.04822  0.68024  0.03376  1.0000
  Fe  Fe16      1.0  0.53417  0.46815  0.87569  1.0000
  H   H110      1.0  0.26926  0.40134  0.03845  1.0000
  S   S28       1.0  0.18904  0.88597  0.91354  1.0000
  H   H111      1.0  0.28929  0.75706  0.09860  1.0000
  C   C85       1.0  0.07808  0.73301  0.09867  1.0000
  C   C86       1.0  0.43294  0.49248  0.24628  1.0000
  S   S29       1.0  0.45424  0.63351  0.29552  1.0000
  C   C87       1.0  0.51418  0.75818  0.24136  1.0000
  C   C88       1.0  0.39042  0.61936  0.29323  1.0000
  C   C89       1.0  0.16469  0.75169  0.21132  1.0000
  C   C90       1.0  0.13317  0.43098  0.21101  1.0000
  H   H112      1.0  0.35388  0.46275  0.30250  1.0000
  H   H113      1.0  0.11722  0.46400  0.23031  1.0000
  H   H114      1.0  0.42444  0.86571  0.30072  1.0000
  H   H115      1.0  0.45616  0.50747  0.26747  1.0000
  C   C91       1.0  0.35722  0.58322  0.31922  1.0000
  H   H116      1.0  0.16985  0.49310  0.33629  1.0000
  C   C92       1.0  0.44944  0.47609  0.10466  1.0000
  S   S30       1.0  0.34579  0.57060  0.16717  1.0000
  C   C93       1.0  0.33106  0.44254  0.23022  1.0000
  C   C94       1.0  0.30020  0.43070  0.20390  1.0000
  Fe  Fe17      1.0  0.49612  0.88280  0.10153  1.0000
  H   H117      1.0  0.13669  0.72595  0.12983  1.0000
  H   H118      1.0  0.13197  0.69200  0.30041  1.0000
  H   H119      1.0  0.44310  0.79349  0.26151  1.0000
  S   S31       1.0  0.23823  0.51002  0.15174  1.0000
  S   S32       1.0  0.24278  0.63971  0.18055  1.0000
  C   C95       1.0  0.11134  0.80794  0.13567  1.0000
  H   H120      1.0  0.12694  0.66055  0.25455  1.0000
  H   H121      1.0  0.52040  0.64345  0.13146  1.0000
  H   H122      1.0  0.23224  0.76575  0.16438  1.0000
  C   C96       1.0  0.07746  0.56884  0.22498  1.0000
  C   C97       1.0  0.47589  0.78054  0.27034  1.0000
  H   H123      1.0  0.39931  0.66870  0.24283  1.0000
  S   S33       1.0  0.37231  0.72676  0.14288  1.0000
  H   H124      1.0  0.04208  0.40617  0.26583  1.0000
  C   C98       1.0  0.31989  0.75296  0.21786  1.0000
  H   H125      1.0  0.13443  0.53416  0.31483  1.0000
  H   H126      1.0  0.45770  0.49717  0.21633  1.0000
  H   H127      1.0  0.40656  0.88694  0.22435  1.0000
  C   C99       1.0  0.11118  0.75323  0.12210  1.0000
  C   C100      1.0  0.20991  0.78110  0.19197  1.0000
  C   C101      1.0  0.39232  0.81539  0.18907  1.0000
  H   H128      1.0  0.31706  0.47032  0.25436  1.0000
  N   N7        1.0  0.08986  0.73658  0.26914  1.0000
  H   H129      1.0  0.10205  0.45375  0.16383  1.0000
  H   H130      1.0  0.40209  0.52102  0.24914  1.0000
  C   C102      1.0  0.47878  0.78403  0.31001  1.0000
  Fe  Fe18      1.0  0.22402  0.59071  0.13027  1.0000
  Fe  Fe19      1.0  0.26289  0.56068  0.20003  1.0000
  C   C103      1.0  0.30923  0.56420  0.31241  1.0000
  H   H131      1.0  0.51028  0.75565  0.21147  1.0000
  C   C104      1.0  0.32592  0.62206  0.25658  1.0000
  H   H132      1.0  0.28525  0.53301  0.33061  1.0000
  H   H133      1.0  0.13708  0.82346  0.15381  1.0000
  C   C105      1.0  0.37408  0.64015  0.26269  1.0000
  C   C106      1.0  0.07840  0.84279  0.12583  1.0000
  H   H134      1.0  0.05633  0.56249  0.33272  1.0000
  H   H135      1.0  0.42440  0.48157  0.13327  1.0000
  H   H136      1.0  0.04217  0.76231  0.23341  1.0000
  H   H137      1.0  0.29456  0.71713  0.21593  1.0000
  H   H138      1.0  0.26477  0.84992  0.19501  1.0000
  C   C107      1.0  0.29447  0.58238  0.28013  1.0000
  H   H139      1.0  0.27812  0.77524  0.27584  1.0000
  C   C108      1.0  0.36075  0.76732  0.18628  1.0000
  C   C109      1.0  0.38229  0.84939  0.22272  1.0000
  C   C110      1.0  0.38112  0.43023  0.29392  1.0000
  H   H140      1.0  0.51839  0.48067  0.12581  1.0000
  C   C111      1.0  0.52196  0.76271  0.31893  1.0000
  H   H141      1.0  0.15363  0.56712  0.18960  1.0000
  H   H142      1.0  0.48259  0.40454  0.21943  1.0000
  H   H143      1.0  0.21819  0.88252  0.25954  1.0000
  C   C112      1.0  0.34087  0.83519  0.25390  1.0000
  H   H144      1.0  0.04857  0.80446  0.29911  1.0000
  H   H145      1.0  0.15336  0.71336  0.19774  1.0000
  H   H146      1.0  0.17038  0.61924  0.33723  1.0000
  H   H147      1.0  0.31404  0.63698  0.23238  1.0000
  H   H148      1.0  0.42438  0.82669  0.16514  1.0000
  C   C113      1.0  0.31024  0.78639  0.25186  1.0000
  S   S34       1.0  0.24151  0.55024  0.26495  1.0000
  C   C114      1.0  0.22836  0.82879  0.20909  1.0000
  C   C115      1.0  0.15571  0.81932  0.26462  1.0000
  C   C116      1.0  0.10234  0.59383  0.15709  1.0000
  Fe  Fe20      1.0  0.31939  0.52748  0.11753  1.0000
  H   H149      1.0  0.40581  0.43469  0.31520  1.0000
  H   H150      1.0  0.39592  0.72470  0.34359  1.0000
  H   H151      1.0  0.37487  0.77125  0.31411  1.0000
  C   C117      1.0  0.20179  0.84732  0.24551  1.0000
  Fe  Fe21      1.0  0.32349  0.64730  0.14545  1.0000
  S   S35       1.0  0.32738  0.88047  0.29429  1.0000
  S   S36       1.0  0.15079  0.60716  0.11496  1.0000
  N   N8        1.0  0.41158  0.43464  0.25297  1.0000
  H   H152      1.0  0.13710  0.83625  0.29268  1.0000
  C   C118      1.0  0.13596  0.77010  0.24823  1.0000
  C   C119      1.0  0.05363  0.72385  0.24362  1.0000
  C   C120      1.0  0.37865  0.41920  0.22544  1.0000
  H   H153      1.0  0.08412  0.77080  0.32756  1.0000
  C   C121      1.0  0.12503  0.42538  0.17321  1.0000
  C   C122      1.0  0.05144  0.60318  0.15835  1.0000
  H   H154      1.0  0.26325  0.44786  0.20938  1.0000
  C   C123      1.0  0.11495  0.57568  0.19026  1.0000
  H   H155      1.0  0.43805  0.64009  0.12049  1.0000
  H   H156      1.0  0.07868  0.88545  0.13625  1.0000
  C   C124      1.0  0.10587  0.68419  0.28025  1.0000
  H   H157      1.0  0.08805  0.55666  0.25079  1.0000
  C   C125      1.0  0.42741  0.86187  0.33114  1.0000
  C   C126      1.0  0.06102  0.76403  0.30527  1.0000
  H   H158      1.0  0.36961  0.56733  0.34308  1.0000
  H   H159      1.0  0.06952  0.69760  0.21771  1.0000
  N   N9        1.0  0.43621  0.80537  0.34026  1.0000
  C   C127      1.0  0.13367  0.51458  0.34273  1.0000
  H   H160      1.0  0.07215  0.65669  0.29485  1.0000
  H   H161      1.0  0.10127  0.48228  0.34891  1.0000
  C   C128      1.0  0.50266  0.47578  0.10034  1.0000
  C   C129      1.0  0.04468  0.82288  0.10283  1.0000
  C   C130      1.0  0.38895  0.76862  0.34106  1.0000
  S   S37       1.0  0.30259  0.88403  0.11809  1.0000
  Fe  Fe22      1.0  0.05553  0.39480  0.10604  1.0000
  H   H162      1.0  0.47827  0.41050  0.27021  1.0000
  Fe  Fe23      1.0  0.26246  0.85957  0.34536  1.0000
  S   S38       1.0  0.16882  0.39802  0.27198  1.0000
  H   H163      1.0  0.48952  0.72600  0.10530  1.0000
  H   H164      1.0  0.04093  0.61541  0.13254  1.0000
  C   C131      1.0  0.45516  0.39954  0.24830  1.0000
  C   C132      1.0  0.16190  0.39385  0.22379  1.0000
  C   C133      1.0  0.31640  0.39679  0.17119  1.0000
  H   H165      1.0  0.04565  0.47345  0.28896  1.0000
  H   H166      1.0  0.52645  0.76146  0.34839  1.0000
  C   C134      1.0  0.20537  0.21409  0.44580  1.0000
  H   H167      1.0  0.27951  0.29823  0.56117  1.0000
  S   S39       1.0  0.25635  0.97903  0.46373  1.0000
  C   C135      1.0  0.46382  0.03894  0.54368  1.0000
  H   H168      1.0  0.16805  0.24428  0.56515  1.0000
  C   C136      1.0  0.07895  0.19901  0.38111  1.0000
  C   C137      1.0  0.06762  0.37898  0.40188  1.0000
  H   H169      1.0  0.16887  0.06897  0.54613  1.0000
  H   H170      1.0  0.50233  0.30096  0.43934  1.0000
  H   H171      1.0  0.06767  0.91691  0.53037  1.0000
  H   H172      1.0  0.27001  0.09839  0.42677  1.0000
  C   C138      1.0  0.51182  0.12738  0.54592  1.0000
  C   C139      1.0  0.37540  0.30316  0.43124  1.0000
  H   H173      1.0  0.48457  0.97433  0.57451  1.0000
  C   C140      1.0  0.40626  0.96629  0.45829  1.0000
  C   C141      1.0  0.51221  0.32150  0.41080  1.0000
  H   H174      1.0  0.24977  0.90453  0.52651  1.0000
  C   C142      1.0  0.22201  0.15828  0.56735  1.0000
  H   H175      1.0  0.15131  0.03643  0.43818  1.0000
  H   H176      1.0  0.47192  0.25058  0.59403  1.0000
  H   H177      1.0  0.49663  0.38840  0.35927  1.0000
  C   C143      1.0  0.08325  0.99737  0.47558  1.0000
  C   C144      1.0  0.49311  0.01684  0.56582  1.0000
  C   C145      1.0  0.46131  0.25458  0.38144  1.0000
  H   H178      1.0  0.49654  0.23930  0.36168  1.0000
  C   C146      1.0  0.33436  0.38158  0.46613  1.0000
  H   H179      1.0  0.16349  0.24236  0.50071  1.0000
  C   C147      1.0  0.47309  0.28320  0.57425  1.0000
  C   C148      1.0  0.44315  0.27685  0.54673  1.0000
  H   H180      1.0  0.24891  0.17713  0.39310  1.0000
  C   C149      1.0  0.44487  0.31913  0.52103  1.0000
  H   H181      1.0  0.42967  0.95888  0.47813  1.0000
  H   H182      1.0  0.30863  0.02450  0.58996  1.0000
  N   N10       1.0  0.17804  0.15849  0.54886  1.0000
  H   H183      1.0  0.04977  0.07711  0.38326  1.0000
  H   H184      1.0  0.42152  0.31438  0.49993  1.0000
  H   H185      1.0  0.41451  0.97718  0.36138  1.0000
  Fe  Fe24      1.0  0.22785  0.91548  0.42451  1.0000
  C   C150      1.0  0.48195  0.34490  0.35507  1.0000
  H   H186      1.0  0.52362  0.36565  0.41625  1.0000
  C   C151      1.0  0.42794  0.96610  0.41813  1.0000
  H   H187      1.0  0.23858  0.09011  0.49689  1.0000
  H   H188      1.0  0.37075  0.25993  0.42333  1.0000
  C   C152      1.0  0.50623  0.37405  0.55062  1.0000
  C   C153      1.0  0.53230  0.04960  0.57782  1.0000
  H   H189      1.0  0.11437  0.10251  0.54156  1.0000
  S   S40       1.0  0.49179  0.94996  0.40043  1.0000
  H   H190      1.0  0.43030  0.24655  0.36558  1.0000
  H   H191      1.0  0.11321  0.33371  0.35430  1.0000
  H   H192      1.0  0.24924  0.19537  0.55954  1.0000
  H   H193      1.0  0.08835  0.36794  0.42279  1.0000
  C   C154      1.0  0.14589  0.20319  0.56828  1.0000
  C   C155      1.0  0.04834  0.10275  0.48736  1.0000
  C   C156      1.0  0.18665  0.20996  0.48615  1.0000
  H   H194      1.0  0.45224  0.22877  0.40769  1.0000
  H   H195      1.0  0.11142  0.20504  0.55625  1.0000
  H   H196      1.0  0.03826  0.96312  0.56833  1.0000
  C   C157      1.0  0.14641  0.10528  0.55651  1.0000
  C   C158      1.0  0.19749  0.16495  0.50629  1.0000
  C   C159      1.0  0.32323  0.98096  0.44669  1.0000
  C   C160      1.0  0.09601  0.09477  0.46262  1.0000
  C   C161      1.0  0.22018  0.34696  0.59441  1.0000
  N   N11       1.0  0.46842  0.31419  0.39181  1.0000
  H   H197      1.0  0.44929  0.11155  0.51738  1.0000
  C   C162      1.0  0.11366  0.04227  0.45693  1.0000
  H   H198      1.0  0.07503  0.21836  0.44188  1.0000
  C   C163      1.0  0.22850  0.12529  0.48363  1.0000
  C   C164      1.0  0.47599  0.36798  0.52323  1.0000
  C   C165      1.0  0.34517  0.98189  0.40658  1.0000
  S   S41       1.0  0.13695  0.16866  0.37322  1.0000
  H   H199      1.0  0.51503  0.17058  0.53949  1.0000
  S   S42       1.0  0.40454  0.21567  0.54403  1.0000
  C   C166      1.0  0.35419  0.97528  0.47266  1.0000
  H   H200      1.0  0.12967  0.09961  0.58822  1.0000
  C   C167      1.0  0.08151  0.35967  0.36340  1.0000
  S   S43       1.0  0.21913  0.93405  0.36549  1.0000
  C   C168      1.0  0.50521  0.33140  0.57586  1.0000
  H   H201      1.0  0.24431  0.12155  0.55825  1.0000
  H   H202      1.0  0.23343  0.00875  0.56019  1.0000
  H   H203      1.0  0.33738  0.97531  0.50367  1.0000
  H   H204      1.0  0.32142  0.98636  0.38636  1.0000
  H   H205      1.0  0.43255  0.01391  0.53542  1.0000
  C   C169      1.0  0.33231  0.32585  0.45515  1.0000
  H   H206      1.0  0.52872  0.33576  0.59692  1.0000
  H   H207      1.0  0.19572  0.24795  0.43076  1.0000
  H   H208      1.0  0.09873  0.95759  0.47051  1.0000
  C   C170      1.0  0.23533  0.17410  0.42446  1.0000
  C   C171      1.0  0.24695  0.12982  0.44336  1.0000
  S   S44       1.0  0.12943  0.96209  0.59194  1.0000
  H   H209      1.0  0.29682  0.30023  0.46490  1.0000
  C   C172      1.0  0.47334  0.09400  0.53355  1.0000
  C   C173      1.0  0.42232  0.33604  0.41796  1.0000
  S   S45       1.0  0.21207  0.38046  0.55394  1.0000
  H   H210      1.0  0.11974  0.12951  0.44838  1.0000
  C   C174      1.0  0.39785  0.97619  0.39240  1.0000
  C   C175      1.0  0.23090  0.99437  0.58911  1.0000
  S   S46       1.0  0.08630  0.37529  0.51759  1.0000
  H   H211      1.0  0.06731  0.00897  0.36502  1.0000
  C   C176      1.0  0.05620  0.20412  0.34994  1.0000
  C   C177      1.0  0.25579  0.30737  0.58978  1.0000
  C   C178      1.0  0.05694  0.22119  0.41790  1.0000
  H   H212      1.0  0.32322  0.39071  0.59407  1.0000
  S   S47       1.0  0.48006  0.22135  0.70385  1.0000
  C   C179      1.0  0.19753  0.13930  0.82425  1.0000
  C   C180      1.0  0.18476  0.96858  0.61036  1.0000
  H   H213      1.0  0.09809  0.34359  0.76031  1.0000
  H   H214      1.0  0.14713  0.92843  0.66378  1.0000
  N   N12       1.0  0.32723  0.34906  0.77042  1.0000
  Fe  Fe25      1.0  0.41158  0.18735  0.68211  1.0000
  Fe  Fe26      1.0  0.34399  0.08990  0.66131  1.0000
  H   H215      1.0  0.09562  0.29261  0.79638  1.0000
  C   C181      1.0  0.27019  0.98462  0.64341  1.0000
  S   S48       1.0  0.30351  0.14086  0.62917  1.0000
  H   H216      1.0  0.41041  0.15711  0.76421  1.0000
  C   C182      1.0  0.09735  0.29876  0.76513  1.0000
  H   H217      1.0  0.35482  0.26912  0.77172  1.0000
  H   H218      1.0  0.16841  0.18775  0.78636  1.0000
  H   H219      1.0  0.04597  0.03737  0.78906  1.0000
  C   C183      1.0  0.27343  0.00316  0.60591  1.0000
  H   H220      1.0  0.22203  0.94135  0.69232  1.0000
  Fe  Fe27      1.0  0.38121  0.18230  0.60413  1.0000
  C   C184      1.0  0.22278  0.09253  0.82743  1.0000
  H   H221      1.0  0.19534  0.12612  0.72867  1.0000
  H   H222      1.0  0.10014  0.19724  0.73906  1.0000
  N   N13       1.0  0.05395  0.26720  0.75252  1.0000
  C   C185      1.0  0.09244  0.98437  0.81061  1.0000
  H   H223      1.0  0.28140  0.95132  0.83832  1.0000
  C   C186      1.0  0.22767  0.06944  0.75927  1.0000
  C   C187      1.0  0.06090  0.20771  0.75489  1.0000
  C   C188      1.0  0.18758  0.15127  0.78880  1.0000
  H   H224      1.0  0.05458  0.19556  0.78571  1.0000
  C   C189      1.0  0.32239  0.02217  0.77916  1.0000
  H   H225      1.0  0.23958  0.04465  0.73294  1.0000
  H   H226      1.0  0.28831  0.24903  0.61812  1.0000
  S   S49       1.0  0.37569  0.24582  0.65217  1.0000
  H   H227      1.0  0.31538  0.27386  0.73806  1.0000
  C   C190      1.0  0.05790  0.27986  0.71126  1.0000
  H   H228      1.0  0.17234  0.34161  0.69248  1.0000
  C   C191      1.0  0.19043  0.35921  0.63146  1.0000
  H   H229      1.0  0.26901  0.35600  0.73780  1.0000
  H   H230      1.0  0.33755  0.05873  0.79437  1.0000
  C   C192      1.0  0.22497  0.95621  0.66355  1.0000
  C   C193      1.0  0.28038  0.37233  0.76465  1.0000
  C   C194      1.0  0.19524  0.33124  0.66392  1.0000
  S   S50       1.0  0.33556  0.14762  0.71382  1.0000
  C   C195      1.0  0.20256  0.11639  0.75640  1.0000
  H   H231      1.0  0.32857  0.03276  0.74798  1.0000
  C   C196      1.0  0.11827  0.97711  0.83951  1.0000
  C   C197      1.0  0.41643  0.38139  0.67148  1.0000
  C   C198      1.0  0.18220  0.94907  0.64734  1.0000
  Fe  Fe28      1.0  0.04899  0.95194  0.73179  1.0000
  H   H232      1.0  0.09607  0.27135  0.69235  1.0000
  H   H233      1.0  0.05218  0.32410  0.70826  1.0000
  H   H234      1.0  0.13525  0.28594  0.74821  1.0000
  N   N14       1.0  0.26739  0.00745  0.79696  1.0000
  H   H235      1.0  0.52736  0.19785  0.61224  1.0000
  C   C199      1.0  0.48845  0.19199  0.74589  1.0000
  C   C200      1.0  0.26284  0.99018  0.83752  1.0000
  H   H236      1.0  0.34634  0.98743  0.77990  1.0000
  Fe  Fe29      1.0  0.30060  0.20137  0.67913  1.0000
  Fe  Fe30      1.0  0.06379  0.95979  0.64500  1.0000
  S   S51       1.0  0.23349  0.25257  0.69941  1.0000
  C   C201      1.0  0.32047  0.28814  0.76733  1.0000
  C   C202      1.0  0.26068  0.27935  0.62220  1.0000
  C   C203      1.0  0.44783  0.16196  0.77065  1.0000
  H   H237      1.0  0.28620  0.27124  0.78919  1.0000
  C   C204      1.0  0.45563  0.13872  0.80411  1.0000
  H   H238      1.0  0.36114  0.34299  0.81961  1.0000
  H   H239      1.0  0.24611  0.36208  0.78871  1.0000
  H   H240      1.0  0.42426  0.11563  0.82330  1.0000
  H   H241      1.0  0.13859  0.94061  0.83897  1.0000
  C   C205      1.0  0.50433  0.14446  0.81224  1.0000
  S   S52       1.0  0.09364  0.93290  0.77429  1.0000
  H   H242      1.0  0.29486  0.35347  0.83264  1.0000
  C   C206      1.0  0.22969  0.29035  0.65925  1.0000
  S   S53       1.0  0.32106  0.99949  0.66637  1.0000
  H   H243      1.0  0.26296  0.96320  0.74292  1.0000
  C   C207      1.0  0.06604  0.03173  0.81150  1.0000
  S   S54       1.0  0.07435  0.33844  0.60741  1.0000
  S   S55       1.0  0.07524  0.02197  0.69155  1.0000
  C   C208      1.0  0.23819  0.05568  0.79500  1.0000
  C   C209      1.0  0.06483  0.07127  0.84210  1.0000
  H   H244      1.0  0.20683  0.95291  0.78183  1.0000
  H   H245      1.0  0.04344  0.10716  0.84351  1.0000
  C   C210      1.0  0.37334  0.36824  0.74043  1.0000
  S   S56       1.0  0.42240  0.12599  0.63203  1.0000
  C   C211      1.0  0.24950  0.95900  0.77494  1.0000
  H   H246      1.0  0.26425  0.91999  0.78111  1.0000
  H   H247      1.0  0.42666  0.38478  0.77876  1.0000
  C   C212      1.0  0.42158  0.38352  0.74940  1.0000
  C   C213      1.0  0.37224  0.36733  0.70044  1.0000
  H   H248      1.0  0.33769  0.35399  0.69096  1.0000
  H   H249      1.0  0.41500  0.37930  0.64115  1.0000
  C   C214      1.0  0.33122  0.36479  0.81080  1.0000
  H   H250      1.0  0.20917  0.15781  0.59973  1.0000
  H   H251      1.0  0.13135  0.19703  0.60015  1.0000
  H   H252      1.0  0.16392  0.39068  0.63497  1.0000
  Fe  Fe31      1.0  0.05693  0.97625  0.02197  1.0000
  H   H253      1.0  0.16613  0.19152  0.08609  1.0000
  S   S57       1.0  0.53223  0.91750  0.04294  1.0000
  N   N15       1.0  0.40664  0.07185  0.96082  1.0000
  C   C215      1.0  0.23380  0.02893  0.07958  1.0000
  H   H254      1.0  0.28192  0.02130  0.85459  1.0000
  C   C216      1.0  0.11772  0.01668  0.86939  1.0000
  Fe  Fe32      1.0  0.15946  0.03706  0.01995  1.0000
  H   H255      1.0  0.22193  0.98224  0.85319  1.0000
  H   H256      1.0  0.26719  0.93679  0.97905  1.0000
  H   H257      1.0  0.34957  0.10247  0.00951  1.0000
  H   H258      1.0  0.22899  0.08579  0.85580  1.0000
  H   H259      1.0  0.42462  0.01771  0.88932  1.0000
  C   C217      1.0  0.20254  0.98138  0.09260  1.0000
  H   H260      1.0  0.05132  0.26866  0.90843  1.0000
  C   C218      1.0  0.21936  0.29514  0.02248  1.0000
  C   C219      1.0  0.18343  0.25593  0.01214  1.0000
  H   H261      1.0  0.20634  0.33493  0.03309  1.0000
  S   S58       1.0  0.07150  0.96777  0.95749  1.0000
  H   H262      1.0  0.37485  0.27841  0.02321  1.0000
  C   C220      1.0  0.24788  0.25847  0.91030  1.0000
  S   S59       1.0  0.18373  0.03464  0.95475  1.0000
  H   H263      1.0  0.48008  0.05263  0.92318  1.0000
  C   C221      1.0  0.27112  0.28351  0.01863  1.0000
  C   C222      1.0  0.28376  0.22893  0.00642  1.0000
  H   H264      1.0  0.25774  0.14847  0.98688  1.0000
  H   H265      1.0  0.51241  0.36143  0.96839  1.0000
  C   C223      1.0  0.24738  0.18981  0.99639  1.0000
  H   H266      1.0  0.33206  0.35429  0.08156  1.0000
  H   H267      1.0  0.16237  0.97842  0.09237  1.0000
  H   H268      1.0  0.37566  0.93752  0.86837  1.0000
  Fe  Fe33      1.0  0.47291  0.97918  0.05860  1.0000
  C   C224      1.0  0.36252  0.19580  0.08776  1.0000
  C   C225      1.0  0.28485  0.03419  0.08262  1.0000
  C   C226      1.0  0.51343  0.32197  0.98253  1.0000
  H   H269      1.0  0.04831  0.25576  0.97880  1.0000
  S   S60       1.0  0.41557  0.92840  0.03252  1.0000
  H   H270      1.0  0.30398  0.28480  0.08275  1.0000
  H   H271      1.0  0.47960  0.26913  0.92439  1.0000
  H   H272      1.0  0.32144  0.21560  0.00444  1.0000
  C   C227      1.0  0.30194  0.32653  0.07211  1.0000
  H   H273      1.0  0.48485  0.09301  0.96538  1.0000
  H   H274      1.0  0.47269  0.30813  0.99530  1.0000
  S   S61       1.0  0.21095  0.07902  0.05573  1.0000
  H   H275      1.0  0.38920  0.05274  0.02172  1.0000
  C   C228      1.0  0.30071  0.38161  0.01733  1.0000
  C   C229      1.0  0.36290  0.31480  0.01088  1.0000
  H   H276      1.0  0.39024  0.34959  0.01666  1.0000
  C   C230      1.0  0.33115  0.31001  0.90216  1.0000
  H   H277      1.0  0.42775  0.15687  0.94565  1.0000
  Fe  Fe34      1.0  0.10383  0.05569  0.95669  1.0000
  C   C231      1.0  0.31856  0.93207  0.92245  1.0000
  S   S62       1.0  0.13291  0.94689  0.02364  1.0000
  C   C232      1.0  0.19749  0.20343  0.99884  1.0000
  C   C233      1.0  0.52564  0.22542  0.97347  1.0000
  C   C234      1.0  0.39083  0.00078  0.90993  1.0000
  C   C235      1.0  0.30177  0.25969  0.90143  1.0000
  S   S63       1.0  0.15670  0.30756  0.92964  1.0000
  H   H278      1.0  0.30864  0.07160  0.07395  1.0000
  H   H279      1.0  0.48339  0.21791  0.98465  1.0000
  H   H280      1.0  0.14485  0.26698  0.01357  1.0000
  H   H281      1.0  0.22506  0.21973  0.90944  1.0000
  H   H282      1.0  0.41893  0.11230  0.90594  1.0000
  N   N16       1.0  0.30883  0.32586  0.02929  1.0000
  C   C236      1.0  0.40415  0.12024  0.93771  1.0000
  H   H283      1.0  0.29193  0.37977  0.98828  1.0000
  H   H284      1.0  0.13889  0.01103  0.89090  1.0000
  H   H285      1.0  0.36394  0.13157  0.94209  1.0000
  S   S64       1.0  0.46125  0.24076  0.07269  1.0000
  S   S65       1.0  0.08602  0.10814  0.91209  1.0000
  S   S66       1.0  0.08221  0.06637  0.02164  1.0000
  H   H286      1.0  0.36860  0.19007  0.05659  1.0000
  C   C237      1.0  0.36279  0.95520  0.89747  1.0000
  S   S67       1.0  0.48827  0.06975  0.04902  1.0000
  H   H287      1.0  0.46413  0.02121  0.96990  1.0000
  C   C238      1.0  0.32991  0.00001  0.97274  1.0000
  H   H288      1.0  0.36894  0.30906  0.97868  1.0000
  C   C239      1.0  0.52199  0.27841  0.91867  1.0000
  C   C240      1.0  0.30670  0.35857  0.91243  1.0000
  H   H289      1.0  0.31473  0.01538  0.00202  1.0000
  C   C241      1.0  0.30603  0.98987  0.09505  1.0000
  C   C242      1.0  0.30198  0.95464  0.95987  1.0000
  Fe  Fe35      1.0  0.15036  0.94685  0.95839  1.0000
  C   C243      1.0  0.37579  0.02403  0.94824  1.0000
  C   C244      1.0  0.25318  0.35739  0.92100  1.0000
  C   C245      1.0  0.38882  0.08776  0.00270  1.0000
  H   H290      1.0  0.32060  0.22190  0.89355  1.0000
  C   C246      1.0  0.46106  0.05901  0.95440  1.0000
  H   H291      1.0  0.09030  0.19651  0.06224  1.0000
  C   C247      1.0  0.22367  0.30760  0.91974  1.0000
  H   H292      1.0  0.26414  0.34113  0.08744  1.0000
  H   H293      1.0  0.41451  0.12172  0.01183  1.0000
  S   S68       1.0  0.39831  0.31274  0.88932  1.0000
  H   H294      1.0  0.16977  0.17331  0.99027  1.0000
  C   C248      1.0  0.09024  0.06313  0.87138  1.0000
  H   H295      1.0  0.06902  0.25459  0.09370  1.0000
  Fe  Fe36      1.0  0.38739  0.89410  0.09220  1.0000
  H   H296      1.0  0.11002  0.11109  0.09198  1.0000
  H   H297      1.0  0.53167  0.33108  0.00748  1.0000
  H   H298      1.0  0.34604  0.99352  0.09609  1.0000
  H   H299      1.0  0.53111  0.31867  0.90389  1.0000
  C   C249      1.0  0.06796  0.20862  0.09176  1.0000
  S   S69       1.0  0.09187  0.38084  0.86533  1.0000
  Fe  Fe37      1.0  0.13663  0.38776  0.91112  1.0000
  H   H300      1.0  0.29709  0.89640  0.91290  1.0000
  S   S70       1.0  0.51483  0.11282  0.85277  1.0000
  H   H301      1.0  0.18498  0.16602  0.84967  1.0000
  H   H302      1.0  0.31810  0.07204  0.17660  1.0000
  C   C250      1.0  0.41797  0.12562  0.29111  1.0000
  N   N17       1.0  0.30602  0.02206  0.22775  1.0000
  H   H303      1.0  0.14081  0.96587  0.30101  1.0000
  H   H304      1.0  0.06521  0.35484  0.30750  1.0000
  H   H305      1.0  0.37843  0.17352  0.34006  1.0000
  N   N18       1.0  0.08894  0.18727  0.12286  1.0000
  C   C251      1.0  0.05872  0.20517  0.16158  1.0000
  H   H306      1.0  0.45928  0.89175  0.33535  1.0000
  H   H307      1.0  0.12155  0.24946  0.18348  1.0000
  C   C252      1.0  0.27545  0.94112  0.10594  1.0000
  Fe  Fe38      1.0  0.29620  0.26984  0.29879  1.0000
  S   S71       1.0  0.52574  0.35743  0.13096  1.0000
  H   H308      1.0  0.37556  0.98327  0.20094  1.0000
  C   C253      1.0  0.39362  0.38352  0.19228  1.0000
  C   C254      1.0  0.22330  0.93750  0.10598  1.0000
  C   C255      1.0  0.32246  0.02782  0.26505  1.0000
  C   C256      1.0  0.12823  0.10328  0.26867  1.0000
  H   H309      1.0  0.13222  0.13213  0.21158  1.0000
  H   H310      1.0  0.42554  0.25645  0.23130  1.0000
  S   S72       1.0  0.37388  0.28004  0.31105  1.0000
  C   C257      1.0  0.40258  0.21898  0.10391  1.0000
  H   H311      1.0  0.15978  0.98663  0.17858  1.0000
  S   S73       1.0  0.46918  0.06527  0.22931  1.0000
  S   S74       1.0  0.13686  0.37575  0.10055  1.0000
  C   C258      1.0  0.32325  0.07432  0.20690  1.0000
  C   C259      1.0  0.14831  0.38461  0.14735  1.0000
  H   H312      1.0  0.29246  0.38864  0.15063  1.0000
  H   H313      1.0  0.46139  0.17099  0.19866  1.0000
  H   H314      1.0  0.36496  0.08587  0.20429  1.0000
  C   C260      1.0  0.05538  0.10127  0.24007  1.0000
  H   H315      1.0  0.20680  0.32388  0.20737  1.0000
  H   H316      1.0  0.37544  0.34619  0.14014  1.0000
  S   S75       1.0  0.53283  0.95366  0.28122  1.0000
  S   S76       1.0  0.44132  0.94900  0.11912  1.0000
  H   H317      1.0  0.41383  0.08861  0.30756  1.0000
  C   C261      1.0  0.14430  0.20675  0.11504  1.0000
  C   C262      1.0  0.05167  0.25028  0.22623  1.0000
  H   H318      1.0  0.32023  0.93640  0.21830  1.0000
  C   C263      1.0  0.42399  0.22018  0.24810  1.0000
  C   C264      1.0  0.33317  0.97678  0.20432  1.0000
  C   C265      1.0  0.39470  0.22605  0.14432  1.0000
  Fe  Fe39      1.0  0.51612  0.03878  0.26858  1.0000
  H   H319      1.0  0.42567  0.24360  0.15690  1.0000
  C   C266      1.0  0.05377  0.37229  0.33666  1.0000
  H   H320      1.0  0.09978  0.10877  0.14360  1.0000
  H   H321      1.0  0.52105  0.06596  0.14336  1.0000
  H   H322      1.0  0.51215  0.32558  0.33269  1.0000
  C   C267      1.0  0.09697  0.08006  0.30248  1.0000
  H   H323      1.0  0.44142  0.35516  0.25183  1.0000
  H   H324      1.0  0.10465  0.95951  0.24278  1.0000
  H   H325      1.0  0.42857  0.36296  0.18651  1.0000
  H   H326      1.0  0.36469  0.03615  0.26003  1.0000
  S   S77       1.0  0.50356  0.06941  0.33066  1.0000
  C   C268      1.0  0.10755  0.11394  0.23756  1.0000
  H   H327      1.0  0.25022  0.01647  0.17179  1.0000
  S   S78       1.0  0.16485  0.24216  0.27326  1.0000
  C   C269      1.0  0.14467  0.97360  0.24010  1.0000
  H   H328      1.0  0.30188  0.10899  0.22244  1.0000
  Fe  Fe40      1.0  0.24082  0.21693  0.23921  1.0000
  C   C270      1.0  0.17915  0.34926  0.15958  1.0000
  C   C271      1.0  0.44172  0.12487  0.25135  1.0000
  C   C272      1.0  0.22750  0.00623  0.20047  1.0000
  H   H329      1.0  0.19769  0.31790  0.14001  1.0000
  H   H330      1.0  0.22974  0.99821  0.29628  1.0000
  H   H331      1.0  0.07328  0.18753  0.32141  1.0000
  C   C273      1.0  0.40189  0.22131  0.28821  1.0000
  H   H332      1.0  0.14956  0.25250  0.11469  1.0000
  C   C274      1.0  0.21661  0.99591  0.26972  1.0000
  C   C275      1.0  0.04350  0.06697  0.30611  1.0000
  C   C276      1.0  0.17568  0.98878  0.20405  1.0000
  H   H333      1.0  0.06972  0.27394  0.24687  1.0000
  S   S79       1.0  0.24484  0.17225  0.18195  1.0000
  H   H334      1.0  0.34068  0.21563  0.19973  1.0000
  H   H335      1.0  0.32641  0.97284  0.17448  1.0000
  S   S80       1.0  0.26201  0.18404  0.29067  1.0000
  Fe  Fe41      1.0  0.20652  0.32347  0.28185  1.0000
  Fe  Fe42      1.0  0.18923  0.21621  0.32534  1.0000
  H   H336      1.0  0.16895  0.11296  0.26651  1.0000
  H   H337      1.0  0.11570  0.07324  0.32543  1.0000
  H   H338      1.0  0.44806  0.34540  0.34223  1.0000
  C   C277      1.0  0.34641  0.21071  0.16849  1.0000
  S   S81       1.0  0.22458  0.30009  0.33741  1.0000
  C   C278      1.0  0.18462  0.35282  0.19799  1.0000
  C   C279      1.0  0.44383  0.17178  0.22960  1.0000
  C   C280      1.0  0.16505  0.97746  0.27290  1.0000
  C   C281      1.0  0.31429  0.18067  0.11186  1.0000
  C   C282      1.0  0.08118  0.23602  0.18936  1.0000
  C   C283      1.0  0.08570  0.12616  0.11993  1.0000
  S   S82       1.0  0.28153  0.30009  0.24427  1.0000
  C   C284      1.0  0.36300  0.37306  0.16542  1.0000
  Fe  Fe43      1.0  0.52661  0.98749  0.34261  1.0000
  H   H339      1.0  0.31363  0.98913  0.28151  1.0000
  C   C285      1.0  0.30604  0.18865  0.15220  1.0000
  H   H340      1.0  0.19938  0.90032  0.11532  1.0000
  H   H341      1.0  0.16344  0.19152  0.13674  1.0000
  H   H342      1.0  0.30467  0.06236  0.28376  1.0000
  C   C286      1.0  0.24991  0.00938  0.23304  1.0000
  C   C287      1.0  0.39784  0.17367  0.30950  1.0000
  H   H343      1.0  0.03914  0.10941  0.21594  1.0000
  H   H344      1.0  0.04598  0.10790  0.12131  1.0000
  Fe  Fe44      1.0  0.52482  0.27451  0.10091  1.0000
  H   H345      1.0  0.35830  0.38969  0.29842  1.0000
  H   H346      1.0  0.28313  0.16371  0.09923  1.0000
  C   C288      1.0  0.02881  0.84517  0.39121  1.0000
  S   S83       1.0  0.58015  0.49064  0.38666  1.0000
  H   H347      1.0  0.97806  0.60998  0.35205  1.0000
  S   S84       1.0  0.79373  0.45313  0.48908  1.0000
  H   H348      1.0  0.69143  0.76835  0.38585  1.0000
  H   H349      1.0  0.79362  0.68225  0.43995  1.0000
  C   C289      1.0  0.63217  0.58111  0.41100  1.0000
  C   C290      1.0  0.66027  0.39267  0.38835  1.0000
  H   H350      1.0  0.84559  0.64335  0.44191  1.0000
  C   C291      1.0  0.85515  0.47504  0.49558  1.0000
  Fe  Fe45      1.0  0.73425  0.43149  0.54350  1.0000
  C   C292      1.0  0.95652  0.50002  0.50249  1.0000
  H   H351      1.0  0.92817  0.47620  0.56202  1.0000
  C   C293      1.0  0.76197  0.58453  0.47545  1.0000
  S   S85       1.0  0.02134  0.50782  0.50442  1.0000
  C   C294      1.0  0.73751  0.66943  0.50999  1.0000
  C   C295      1.0  0.67729  0.53442  0.35238  1.0000
  C   C296      1.0  0.63411  0.53755  0.38354  1.0000
  H   H352      1.0  0.67063  0.65600  0.42825  1.0000
  H   H353      1.0  0.97217  0.52555  0.44322  1.0000
  H   H354      1.0  0.92877  0.61927  0.53951  1.0000
  C   C297      1.0  0.78040  0.60139  0.55866  1.0000
  H   H355      1.0  0.57981  0.69524  0.55092  1.0000
  C   C298      1.0  0.56096  0.71819  0.49807  1.0000
  H   H356      1.0  0.74073  0.59282  0.45319  1.0000
  C   C299      1.0  0.97694  0.85275  0.39542  1.0000
  H   H357      1.0  0.01417  0.42419  0.44403  1.0000
  S   S86       1.0  0.54670  0.43418  0.55167  1.0000
  S   S87       1.0  0.67684  0.49190  0.56975  1.0000
  H   H358      1.0  0.96540  0.44755  0.39834  1.0000
  H   H359      1.0  0.67785  0.43411  0.37906  1.0000
  C   C300      1.0  0.00298  0.60961  0.37200  1.0000
  C   C301      1.0  0.64065  0.42692  0.45430  1.0000
  C   C302      1.0  0.86780  0.46906  0.53118  1.0000
  C   C303      1.0  0.85826  0.59465  0.58039  1.0000
  H   H360      1.0  0.74984  0.70595  0.52661  1.0000
  Fe  Fe46      1.0  0.61709  0.42112  0.57297  1.0000
  C   C304      1.0  0.55017  0.88074  0.54763  1.0000
  H   H361      1.0  0.96866  0.87707  0.50378  1.0000
  H   H362      1.0  0.01115  0.65717  0.46229  1.0000
  H   H363      1.0  0.70559  0.64565  0.52994  1.0000
  H   H364      1.0  0.88786  0.64351  0.48954  1.0000
  C   C305      1.0  0.67294  0.62178  0.40727  1.0000
  C   C306      1.0  0.71455  0.80240  0.36830  1.0000
  H   H365      1.0  0.73562  0.55859  0.49797  1.0000
  H   H366      1.0  0.59882  0.58397  0.43499  1.0000
  H   H367      1.0  0.65907  0.46834  0.44481  1.0000
  C   C307      1.0  0.00614  0.78057  0.44373  1.0000
  N   N19       1.0  0.78162  0.63627  0.49249  1.0000
  C   C308      1.0  0.89258  0.49677  0.46413  1.0000
  H   H368      1.0  0.71707  0.83681  0.38984  1.0000
  C   C309      1.0  0.58883  0.72355  0.52716  1.0000
  H   H369      1.0  0.88288  0.50219  0.43665  1.0000
  C   C310      1.0  0.81540  0.66818  0.46012  1.0000
  H   H370      1.0  0.71980  0.68487  0.48752  1.0000
  C   C311      1.0  0.98972  0.63672  0.40821  1.0000
  C   C312      1.0  0.94302  0.51006  0.46782  1.0000
  H   H371      1.0  0.96545  0.88071  0.37704  1.0000
  C   C313      1.0  0.57191  0.75570  0.46789  1.0000
  H   H372      1.0  0.95483  0.65804  0.41639  1.0000
  C   C314      1.0  0.61145  0.79738  0.46615  1.0000
  C   C315      1.0  0.95479  0.79192  0.45013  1.0000
  H   H373      1.0  0.66967  0.83490  0.49319  1.0000
  S   S88       1.0  0.66273  0.77383  0.56190  1.0000
  C   C316      1.0  0.63711  0.82709  0.35257  1.0000
  H   H374      1.0  0.73912  0.59484  0.56525  1.0000
  C   C317      1.0  0.63985  0.80199  0.49462  1.0000
  Fe  Fe47      1.0  0.84615  0.82567  0.50333  1.0000
  C   C318      1.0  0.86296  0.62856  0.51631  1.0000
  H   H375      1.0  0.61966  0.82676  0.44316  1.0000
  C   C319      1.0  0.80852  0.62283  0.52247  1.0000
  C   C320      1.0  0.91855  0.48111  0.53454  1.0000
  S   S89       1.0  0.76459  0.67255  0.37135  1.0000
  H   H376      1.0  0.83901  0.45402  0.55588  1.0000
  H   H377      1.0  0.64414  0.42303  0.48469  1.0000
  H   H378      1.0  0.82307  0.83660  0.40131  1.0000
  H   H379      1.0  0.63208  0.85961  0.37599  1.0000
  H   H380      1.0  0.75018  0.73088  0.59428  1.0000
  C   C321      1.0  0.93986  0.82583  0.42480  1.0000
  H   H381      1.0  0.75413  0.78939  0.35657  1.0000
  Fe  Fe48      1.0  0.73269  0.82926  0.53765  1.0000
  S   S90       1.0  0.91105  0.77098  0.49289  1.0000
  C   C322      1.0  0.88716  0.61496  0.54505  1.0000
  S   S91       1.0  0.77774  0.80587  0.47815  1.0000
  C   C323      1.0  0.83852  0.86196  0.37647  1.0000
  C   C324      1.0  0.02163  0.63671  0.43389  1.0000
  H   H382      1.0  0.91393  0.44620  0.35719  1.0000
  C   C325      1.0  0.71583  0.61913  0.37600  1.0000
  C   C326      1.0  0.80496  0.58767  0.58714  1.0000
  H   H383      1.0  0.01802  0.75457  0.46331  1.0000
  H   H384      1.0  0.89990  0.83286  0.42871  1.0000
  S   S92       1.0  0.80089  0.84483  0.56386  1.0000
  H   H385      1.0  0.79406  0.55932  0.46084  1.0000
  H   H386      1.0  0.83401  0.70584  0.47132  1.0000
  H   H387      1.0  0.73797  0.42843  0.42481  1.0000
  C   C327      1.0  0.99824  0.42432  0.38706  1.0000
  H   H388      1.0  0.61528  0.78878  0.36549  1.0000
  H   H389      1.0  0.59929  0.42799  0.45449  1.0000
  C   C328      1.0  0.62816  0.76570  0.52551  1.0000
  S   S93       1.0  0.54053  0.62596  0.36645  1.0000
  C   C329      1.0  0.02587  0.41088  0.41374  1.0000
  S   S94       1.0  0.97971  0.39277  0.58402  1.0000
  H   H390      1.0  0.87735  0.58341  0.60225  1.0000
  C   C330      1.0  0.80836  0.72949  0.62665  1.0000
  Fe  Fe49      1.0  0.02939  0.41203  0.62636  1.0000
  C   C331      1.0  0.75953  0.71685  0.62014  1.0000
  H   H391      1.0  0.66096  0.45471  0.74920  1.0000
  C   C332      1.0  0.78748  0.84611  0.71569  1.0000
  C   C333      1.0  0.95856  0.84877  0.83865  1.0000
  H   H392      1.0  0.77369  0.74008  0.75573  1.0000
  H   H393      1.0  0.85189  0.61725  0.74062  1.0000
  C   C334      1.0  0.80730  0.71464  0.74792  1.0000
  H   H394      1.0  0.61640  0.43106  0.79218  1.0000
  H   H395      1.0  0.84056  0.74163  0.73205  1.0000
  C   C335      1.0  0.83983  0.40012  0.71610  1.0000
  S   S95       1.0  0.69349  0.52432  0.67558  1.0000
  C   C336      1.0  0.84254  0.63287  0.71425  1.0000
  C   C337      1.0  0.92489  0.88555  0.83170  1.0000
  C   C338      1.0  0.83312  0.87319  0.72177  1.0000
  H   H396      1.0  0.67034  0.81954  0.81119  1.0000
  H   H397      1.0  0.71941  0.65185  0.76048  1.0000
  C   C339      1.0  0.82005  0.71240  0.66045  1.0000
  S   S96       1.0  0.89234  0.85139  0.69490  1.0000
  H   H398      1.0  0.78240  0.57139  0.61452  1.0000
  C   C340      1.0  0.67137  0.61209  0.84381  1.0000
  C   C341      1.0  0.75468  0.62955  0.74980  1.0000
  H   H399      1.0  0.95794  0.80854  0.82436  1.0000
  H   H400      1.0  0.67933  0.45932  0.79490  1.0000
  Fe  Fe50      1.0  0.68570  0.46433  0.62693  1.0000
  C   C342      1.0  0.73990  0.86308  0.73653  1.0000
  C   C343      1.0  0.61788  0.55032  0.73880  1.0000
  H   H401      1.0  0.59494  0.86487  0.84628  1.0000
  C   C344      1.0  0.72250  0.68624  0.64702  1.0000
  C   C345      1.0  0.65769  0.43297  0.77664  1.0000
  H   H402      1.0  0.61121  0.55276  0.83397  1.0000
  H   H403      1.0  0.87741  0.65813  0.69911  1.0000
  H   H404      1.0  0.85792  0.72505  0.66478  1.0000
  N   N20       1.0  0.79630  0.66465  0.72457  1.0000
  S   S97       1.0  0.74757  0.40860  0.60067  1.0000
  H   H405      1.0  0.76589  0.61726  0.77638  1.0000
  H   H406      1.0  0.88064  0.40655  0.70283  1.0000
  H   H407      1.0  0.89949  0.87331  0.81259  1.0000
  H   H408      1.0  0.81631  0.70397  0.77571  1.0000
  H   H409      1.0  0.99439  0.44218  0.77159  1.0000
  H   H410      1.0  0.78879  0.81272  0.69431  1.0000
  C   C346      1.0  0.78317  0.68131  0.68863  1.0000
  S   S98       1.0  0.99499  0.42886  0.68988  1.0000
  H   H411      1.0  0.70477  0.84248  0.73123  1.0000
  H   H412      1.0  0.68461  0.67615  0.64166  1.0000
  H   H413      1.0  0.66186  0.64319  0.82652  1.0000
  C   C347      1.0  0.56632  0.54963  0.75907  1.0000
  H   H414      1.0  0.70330  0.64474  0.70015  1.0000
  H   H415      1.0  0.64788  0.55911  0.75433  1.0000
  H   H416      1.0  0.83662  0.59660  0.69486  1.0000
  H   H417      1.0  0.55681  0.55905  0.78987  1.0000
  H   H418      1.0  0.74484  0.59077  0.73411  1.0000
  C   C348      1.0  0.73388  0.66853  0.68079  1.0000
  C   C349      1.0  0.03381  0.44622  0.75486  1.0000
  C   C350      1.0  0.59119  0.52500  0.67916  1.0000
  C   C351      1.0  0.63021  0.53581  0.69913  1.0000
  H   H419      1.0  0.81694  0.43833  0.67017  1.0000
  H   H420      1.0  0.83724  0.75324  0.60562  1.0000
  H   H421      1.0  0.69943  0.77258  0.83555  1.0000
  H   H422      1.0  0.60056  0.51502  0.64828  1.0000
  H   H423      1.0  0.64134  0.75156  0.82072  1.0000
  S   S99       1.0  0.62128  0.39754  0.63258  1.0000
  H   H424      1.0  0.72522  0.42438  0.69958  1.0000
  C   C352      1.0  0.80400  0.41790  0.69776  1.0000
  C   C353      1.0  0.75145  0.40964  0.71486  1.0000
  H   H425      1.0  0.72823  0.86475  0.84185  1.0000
  C   C354      1.0  0.66227  0.78676  0.83309  1.0000
  C   C355      1.0  0.64232  0.56114  0.84831  1.0000
  C   C356      1.0  0.53965  0.52553  0.69933  1.0000
  H   H426      1.0  0.85904  0.43516  0.02347  1.0000
  S   S100      1.0  0.84987  0.76767  0.90551  1.0000
  C   C357      1.0  0.93831  0.61980  0.94716  1.0000
  H   H427      1.0  0.70025  0.43171  0.01394  1.0000
  C   C358      1.0  0.82354  0.41438  0.01893  1.0000
  H   H428      1.0  0.68548  0.40446  0.92260  1.0000
  C   C359      1.0  0.82695  0.53193  0.99893  1.0000
  S   S101      1.0  0.72925  0.77130  0.95491  1.0000
  H   H429      1.0  0.96446  0.78351  0.91405  1.0000
  C   C360      1.0  0.78036  0.44418  0.01926  1.0000
  S   S102      1.0  0.78973  0.65983  0.95487  1.0000
  H   H430      1.0  0.01808  0.74252  0.89680  1.0000
  C   C361      1.0  0.95306  0.75321  0.08828  1.0000
  N   N21       1.0  0.02617  0.82299  0.87155  1.0000
  H   H431      1.0  0.97045  0.86805  0.99613  1.0000
  C   C362      1.0  0.00965  0.68797  0.05244  1.0000
  H   H432      1.0  0.70141  0.51484  0.04602  1.0000
  H   H433      1.0  0.58963  0.58384  0.92584  1.0000
  S   S103      1.0  0.60041  0.45862  0.05870  1.0000
  H   H434      1.0  0.73946  0.57594  0.02865  1.0000
  H   H435      1.0  0.83837  0.67205  0.08776  1.0000
  C   C363      1.0  0.97581  0.53424  0.95063  1.0000
  C   C364      1.0  0.60257  0.62919  0.97679  1.0000
  C   C365      1.0  0.65354  0.52122  0.87142  1.0000
  H   H436      1.0  0.89466  0.51879  0.88991  1.0000
  C   C366      1.0  0.94821  0.50845  0.92511  1.0000
  H   H437      1.0  0.82836  0.57769  0.00253  1.0000
  C   C367      1.0  0.71179  0.62315  0.86238  1.0000
  H   H438      1.0  0.77101  0.86315  0.06477  1.0000
  H   H439      1.0  0.98147  0.67440  0.03468  1.0000
  S   S104      1.0  0.82063  0.77231  0.00099  1.0000
  C   C368      1.0  0.97050  0.58953  0.96191  1.0000
  Fe  Fe51      1.0  0.74926  0.71953  0.99914  1.0000
  C   C369      1.0  0.70869  0.87653  0.87108  1.0000
  H   H440      1.0  0.00069  0.51121  0.96246  1.0000
  H   H441      1.0  0.54638  0.72958  0.06677  1.0000
  H   H442      1.0  0.75596  0.59029  0.89803  1.0000
  C   C370      1.0  0.66262  0.73916  0.08072  1.0000
  C   C371      1.0  0.79951  0.87847  0.08185  1.0000
  H   H443      1.0  0.03155  0.85505  0.92851  1.0000
  H   H444      1.0  0.98797  0.76529  0.01113  1.0000
  C   C372      1.0  0.58089  0.64573  0.01521  1.0000
  C   C373      1.0  0.99464  0.77276  0.88784  1.0000
  C   C374      1.0  0.78952  0.51610  0.06701  1.0000
  N   N22       1.0  0.00622  0.74694  0.06515  1.0000
  H   H445      1.0  0.60103  0.85440  0.94463  1.0000
  H   H446      1.0  0.60503  0.67156  0.03035  1.0000
  C   C375      1.0  0.73586  0.53032  0.02375  1.0000
  C   C376      1.0  0.89097  0.60850  0.07012  1.0000
  H   H447      1.0  0.97498  0.75025  0.86675  1.0000
  S   S105      1.0  0.95443  0.52460  0.04854  1.0000
  H   H448      1.0  0.01040  0.82416  0.03640  1.0000
  H   H449      1.0  0.66049  0.77866  0.02807  1.0000
  H   H450      1.0  0.59837  0.72321  0.88273  1.0000
  H   H451      1.0  0.72807  0.52267  0.99431  1.0000
  H   H452      1.0  0.59645  0.84245  0.06110  1.0000
  C   C377      1.0  0.72382  0.58272  0.88469  1.0000
  S   S106      1.0  0.95944  0.44043  0.90962  1.0000
  C   C378      1.0  0.99224  0.86354  0.86356  1.0000
  H   H453      1.0  0.70388  0.50093  0.90685  1.0000
  S   S107      1.0  0.74725  0.68734  0.85695  1.0000
  C   C379      1.0  0.61744  0.75813  0.89687  1.0000
  C   C380      1.0  0.57316  0.59640  0.95561  1.0000
  C   C381      1.0  0.63824  0.87093  0.92850  1.0000
  N   N23       1.0  0.63215  0.80660  0.87147  1.0000
  H   H454      1.0  0.88615  0.61795  0.90921  1.0000
  H   H455      1.0  0.82652  0.50266  0.07070  1.0000
  C   C382      1.0  0.91525  0.53837  0.91041  1.0000
  S   S108      1.0  0.93346  0.68917  0.96172  1.0000
  N   N24       1.0  0.78272  0.50457  0.02696  1.0000
  H   H456      1.0  0.78963  0.56099  0.07455  1.0000
  C   C383      1.0  0.91045  0.59437  0.92136  1.0000
  C   C384      1.0  0.91782  0.56899  0.08260  1.0000
  Fe  Fe52      1.0  0.80462  0.81960  0.95329  1.0000
  H   H457      1.0  0.65187  0.74283  0.90391  1.0000
  H   H458      1.0  0.01945  0.85149  0.09639  1.0000
  C   C385      1.0  0.73519  0.41296  0.01383  1.0000
  H   H459      1.0  0.58971  0.76741  0.92476  1.0000
  C   C386      1.0  0.69484  0.53171  0.88911  1.0000
  H   H460      1.0  0.99118  0.60850  0.98246  1.0000
  Fe  Fe53      1.0  0.77563  0.71526  0.91025  1.0000
  C   C387      1.0  0.58511  0.82809  0.86502  1.0000
  C   C388      1.0  0.01524  0.77968  0.02954  1.0000
  H   H461      1.0  0.83815  0.87166  0.06297  1.0000
  C   C389      1.0  0.64678  0.77810  0.05931  1.0000
  H   H462      1.0  0.86472  0.52054  0.00247  1.0000
  H   H463      1.0  0.55910  0.84131  0.89273  1.0000
  H   H464      1.0  0.89378  0.61250  0.03933  1.0000
  S   S109      1.0  0.61508  0.45908  0.87958  1.0000
  H   H465      1.0  0.64231  0.64184  0.96336  1.0000
  H   H466      1.0  0.75794  0.49445  0.08875  1.0000
  H   H467      1.0  0.90566  0.85496  0.95673  1.0000
  H   H468      1.0  0.82487  0.52108  0.96839  1.0000
  Fe  Fe54      1.0  0.97602  0.45621  0.07969  1.0000
  Fe  Fe55      1.0  0.86009  0.71660  0.95362  1.0000
  S   S110      1.0  0.70346  0.68966  0.05707  1.0000
  H   H469      1.0  0.00090  0.66027  0.07774  1.0000
  C   C390      1.0  0.61023  0.81420  0.07803  1.0000
  H   H470      1.0  0.92422  0.73754  0.07158  1.0000
  C   C391      1.0  0.66031  0.85072  0.89030  1.0000
  H   H471      1.0  0.82609  0.77576  0.09551  1.0000
  H   H472      1.0  0.76160  0.77801  0.09046  1.0000
  H   H473      1.0  0.53912  0.45392  0.00213  1.0000
  C   C392      1.0  0.90443  0.88919  0.97755  1.0000
  H   H474      1.0  0.57724  0.65214  0.09365  1.0000
  C   C393      1.0  0.85990  0.64239  0.09750  1.0000
  H   H475      1.0  0.94579  0.79698  0.09646  1.0000
  H   H476      1.0  0.56263  0.79655  0.85070  1.0000
  H   H477      1.0  0.54069  0.58659  0.09827  1.0000
  S   S111      1.0  0.84132  0.61220  0.26731  1.0000
  H   H478      1.0  0.80841  0.50611  0.17934  1.0000
  C   C394      1.0  0.60903  0.77583  0.14000  1.0000
  S   S112      1.0  0.90554  0.69734  0.31722  1.0000
  H   H479      1.0  0.63816  0.45246  0.18155  1.0000
  C   C395      1.0  0.55604  0.73760  0.25105  1.0000
  H   H480      1.0  0.65723  0.70910  0.13797  1.0000
  H   H481      1.0  0.61868  0.83959  0.32962  1.0000
  H   H482      1.0  0.80886  0.79888  0.18235  1.0000
  C   C396      1.0  0.94567  0.46081  0.33249  1.0000
  C   C397      1.0  0.70548  0.51108  0.18100  1.0000
  C   C398      1.0  0.69938  0.43023  0.22250  1.0000
  H   H483      1.0  0.76315  0.42475  0.31826  1.0000
  N   N25       1.0  0.79081  0.84994  0.11938  1.0000
  C   C399      1.0  0.68678  0.67643  0.28620  1.0000
  S   S113      1.0  0.98325  0.58166  0.27181  1.0000
  H   H484      1.0  0.70868  0.85337  0.12976  1.0000
  C   C400      1.0  0.89682  0.87466  0.31330  1.0000
  C   C401      1.0  0.68428  0.71825  0.31500  1.0000
  S   S114      1.0  0.02152  0.47514  0.12450  1.0000
  H   H485      1.0  0.75985  0.86660  0.30609  1.0000
  H   H486      1.0  0.71783  0.40974  0.24251  1.0000
  H   H487      1.0  0.67841  0.50130  0.33072  1.0000
  H   H488      1.0  0.89079  0.80322  0.34796  1.0000
  C   C402      1.0  0.78141  0.46877  0.18682  1.0000
  S   S115      1.0  0.93279  0.70201  0.22199  1.0000
  C   C403      1.0  0.59037  0.81213  0.11828  1.0000
  S   S116      1.0  0.91028  0.40973  0.11915  1.0000
  H   H489      1.0  0.71587  0.75431  0.20606  1.0000
  H   H490      1.0  0.94478  0.72983  0.11571  1.0000
  H   H491      1.0  0.73123  0.84363  0.17254  1.0000
  H   H492      1.0  0.67868  0.63375  0.29456  1.0000
  C   C404      1.0  0.72923  0.56158  0.16462  1.0000
  N   N26       1.0  0.72889  0.48239  0.20757  1.0000
  H   H493      1.0  0.88319  0.59600  0.18028  1.0000
  C   C405      1.0  0.78768  0.78965  0.11014  1.0000
  H   H494      1.0  0.83398  0.48815  0.28172  1.0000
  C   C406      1.0  0.66367  0.56797  0.12909  1.0000
  H   H495      1.0  0.69619  0.39985  0.19843  1.0000
  Fe  Fe56      1.0  0.92362  0.63739  0.26699  1.0000
  Fe  Fe57      1.0  0.90836  0.75987  0.27249  1.0000
  H   H496      1.0  0.87690  0.82262  0.21643  1.0000
  C   C407      1.0  0.85754  0.63842  0.13723  1.0000
  H   H497      1.0  0.01803  0.70012  0.25928  1.0000
  H   H498      1.0  0.97420  0.60161  0.19391  1.0000
  C   C408      1.0  0.79357  0.40856  0.29578  1.0000
  H   H499      1.0  0.75783  0.55715  0.23367  1.0000
  H   H500      1.0  0.75156  0.57290  0.32468  1.0000
  H   H501      1.0  0.79908  0.44384  0.20486  1.0000
  H   H502      1.0  0.60451  0.50146  0.13655  1.0000
  C   C409      1.0  0.70547  0.78678  0.26515  1.0000
  H   H503      1.0  0.02555  0.73866  0.31949  1.0000
  N   N27       1.0  0.98296  0.41843  0.31855  1.0000
  Fe  Fe58      1.0  0.84886  0.68185  0.22631  1.0000
  H   H504      1.0  0.96503  0.49984  0.34141  1.0000
  H   H505      1.0  0.59488  0.77546  0.17121  1.0000
  C   C410      1.0  0.01373  0.59582  0.19314  1.0000
  C   C411      1.0  0.01890  0.43887  0.28235  1.0000
  C   C412      1.0  0.83564  0.83374  0.17239  1.0000
  Fe  Fe59      1.0  0.95742  0.42577  0.16325  1.0000
  C   C413      1.0  0.88497  0.59963  0.14962  1.0000
  H   H506      1.0  0.71198  0.82858  0.25513  1.0000
  H   H507      1.0  0.59099  0.72156  0.29737  1.0000
  S   S117      1.0  0.54075  0.85256  0.14166  1.0000
  S   S118      1.0  0.94129  0.84722  0.27409  1.0000
  H   H508      1.0  0.76438  0.57942  0.17125  1.0000
  Fe  Fe60      1.0  0.82369  0.67708  0.31480  1.0000
  H   H509      1.0  0.92698  0.47155  0.30914  1.0000
  C   C414      1.0  0.91438  0.56446  0.12242  1.0000
  S   S119      1.0  0.91987  0.46740  0.21899  1.0000
  C   C415      1.0  0.63925  0.51845  0.14466  1.0000
  C   C416      1.0  0.69536  0.77469  0.30538  1.0000
  H   H510      1.0  0.58488  0.71862  0.22877  1.0000
  C   C417      1.0  0.65942  0.49035  0.17044  1.0000
  H   H511      1.0  0.93467  0.53420  0.13257  1.0000
  H   H512      1.0  0.70104  0.65711  0.22466  1.0000
  C   C418      1.0  0.87189  0.42309  0.24564  1.0000
  S   S120      1.0  0.82476  0.74465  0.27399  1.0000
  C   C419      1.0  0.87416  0.84721  0.19247  1.0000
  C   C420      1.0  0.83160  0.86508  0.14060  1.0000
  C   C421      1.0  0.55975  0.73972  0.28972  1.0000
  N   N28       1.0  0.69198  0.81848  0.33634  1.0000
  C   C422      1.0  0.64447  0.73863  0.12120  1.0000
  C   C423      1.0  0.70741  0.74454  0.23656  1.0000
  C   C424      1.0  0.69880  0.68953  0.24702  1.0000
  C   C425      1.0  0.53763  0.63195  0.10048  1.0000
  H   H513      1.0  0.72749  0.62838  0.12719  1.0000
  H   H514      1.0  0.74838  0.49835  0.26310  1.0000
  S   S121      1.0  0.82033  0.68166  0.17160  1.0000
  C   C426      1.0  0.02713  0.58011  0.22667  1.0000
  C   C427      1.0  0.70840  0.58978  0.13933  1.0000
  H   H515      1.0  0.64811  0.58929  0.10883  1.0000
  H   H516      1.0  0.69377  0.53173  0.25741  1.0000
  C   C428      1.0  0.83333  0.44424  0.27518  1.0000
  H   H517      1.0  0.65989  0.43780  0.23952  1.0000
  C   C429      1.0  0.74084  0.86469  0.14424  1.0000
  C   C430      1.0  0.73233  0.51903  0.24183  1.0000
  H   H518      1.0  0.77209  0.76450  0.13629  1.0000
  C   C431      1.0  0.71931  0.87194  0.32181  1.0000
  H   H519      1.0  0.78097  0.44471  0.15928  1.0000
  H   H520      1.0  0.99845  0.45451  0.26160  1.0000
  C   C432      1.0  0.87654  0.84262  0.34585  1.0000
  C   C433      1.0  0.71835  0.57516  0.34872  1.0000
  H   H521      1.0  0.67287  0.70577  0.34492  1.0000
  C   C434      1.0  0.01186  0.40596  0.34744  1.0000
  C   C435      1.0  0.57442  0.26337  0.47870  1.0000
  H   H522      1.0  0.80989  0.33972  0.52080  1.0000
  C   C436      1.0  0.71999  0.38542  0.42833  1.0000
  H   H523      1.0  0.98316  0.06783  0.52716  1.0000
  H   H524      1.0  0.72576  0.37049  0.45609  1.0000
  H   H525      1.0  0.91186  0.07549  0.50172  1.0000
  H   H526      1.0  0.58217  0.34939  0.49005  1.0000
  H   H527      1.0  0.65869  0.05714  0.49122  1.0000
  H   H528      1.0  0.92827  0.93111  0.55716  1.0000
  H   H529      1.0  0.81713  0.01271  0.49053  1.0000
  C   C437      1.0  0.81982  0.91303  0.37443  1.0000
  H   H530      1.0  0.66008  0.99056  0.39755  1.0000
  Fe  Fe61      1.0  0.80517  0.93129  0.54343  1.0000
  H   H531      1.0  0.96175  0.96539  0.35452  1.0000
  H   H532      1.0  0.60180  0.06574  0.42944  1.0000
  H   H533      1.0  0.03050  0.89548  0.47413  1.0000
  S   S122      1.0  0.00671  0.23675  0.54814  1.0000
  H   H534      1.0  0.91086  0.13471  0.44775  1.0000
  H   H535      1.0  0.64447  0.20376  0.55824  1.0000
  H   H536      1.0  0.78688  0.26837  0.52890  1.0000
  H   H537      1.0  0.60242  0.94662  0.41051  1.0000
  H   H538      1.0  0.92833  0.98644  0.52599  1.0000
  H   H539      1.0  0.00810  0.01680  0.39927  1.0000
  H   H540      1.0  0.65107  0.19108  0.40691  1.0000
  H   H541      1.0  0.91770  0.31721  0.47703  1.0000
  C   C438      1.0  0.87811  0.22872  0.52328  1.0000
  C   C439      1.0  0.76636  0.10461  0.56166  1.0000
  H   H542      1.0  0.94680  0.31415  0.51731  1.0000
  H   H543      1.0  0.57463  0.17732  0.46144  1.0000
  C   C440      1.0  0.59319  0.21833  0.45558  1.0000
  C   C441      1.0  0.88072  0.19388  0.55377  1.0000
  H   H544      1.0  0.57196  0.06249  0.48073  1.0000
  C   C442      1.0  0.96439  0.07370  0.35625  1.0000
  S   S123      1.0  0.73247  0.91743  0.52326  1.0000
  H   H545      1.0  0.00736  0.89582  0.56209  1.0000
  N   N29       1.0  0.86633  0.28716  0.53002  1.0000
  H   H546      1.0  0.72827  0.17500  0.55202  1.0000
  C   C443      1.0  0.01825  0.05826  0.50686  1.0000
  H   H547      1.0  0.82750  0.28931  0.48304  1.0000
  C   C444      1.0  0.64091  0.32599  0.43897  1.0000
  H   H548      1.0  0.64174  0.08508  0.56656  1.0000
  H   H549      1.0  0.03114  0.13185  0.56804  1.0000
  Fe  Fe62      1.0  0.87625  0.24051  0.37635  1.0000
  S   S124      1.0  0.81484  0.01365  0.57235  1.0000
  S   S125      1.0  0.67402  0.36235  0.54212  1.0000
  H   H550      1.0  0.60679  0.91388  0.57798  1.0000
  C   C445      1.0  0.82071  0.29644  0.51510  1.0000
  C   C446      1.0  0.74707  0.13903  0.53884  1.0000
  S   S126      1.0  0.72337  0.16601  0.47147  1.0000
  C   C447      1.0  0.01114  0.23102  0.35555  1.0000
  C   C448      1.0  0.85530  0.30489  0.57176  1.0000
  H   H551      1.0  0.95452  0.99780  0.56864  1.0000
  H   H552      1.0  0.78331  0.07277  0.45080  1.0000
  H   H553      1.0  0.65925  0.93065  0.42514  1.0000
  C   C449      1.0  0.99014  0.25481  0.39195  1.0000
  C   C450      1.0  0.55249  0.92281  0.48662  1.0000
  C   C451      1.0  0.79739  0.04742  0.50442  1.0000
  S   S127      1.0  0.93653  0.29218  0.39781  1.0000
  S   S128      1.0  0.77199  0.93579  0.41314  1.0000
  C   C452      1.0  0.90233  0.15129  0.47732  1.0000
  H   H554      1.0  0.89544  0.11357  0.56942  1.0000
  C   C453      1.0  0.00927  0.15111  0.59405  1.0000
  C   C454      1.0  0.77876  0.08211  0.48164  1.0000
  C   C455      1.0  0.88898  0.20548  0.48492  1.0000
  H   H555      1.0  0.58504  0.21686  0.55009  1.0000
  C   C456      1.0  0.89391  0.13955  0.54583  1.0000
  H   H556      1.0  0.69680  0.00134  0.46833  1.0000
  H   H557      1.0  0.97672  0.11728  0.36260  1.0000
  C   C457      1.0  0.99435  0.91286  0.49034  1.0000
  C   C458      1.0  0.63601  0.96474  0.42134  1.0000
  C   C459      1.0  0.61297  0.95673  0.52485  1.0000
  N   N30       1.0  0.62047  0.99716  0.45836  1.0000
  H   H558      1.0  0.69204  0.28290  0.39176  1.0000
  H   H559      1.0  0.84647  0.34889  0.57593  1.0000
  C   C460      1.0  0.79128  0.05833  0.54446  1.0000
  S   S129      1.0  0.85511  0.15180  0.39046  1.0000
  C   C461      1.0  0.90409  0.11823  0.50772  1.0000
  C   C462      1.0  0.75258  0.12719  0.49901  1.0000
  S   S130      1.0  0.79772  0.26639  0.40070  1.0000
  C   C463      1.0  0.01281  0.24983  0.42320  1.0000
  C   C464      1.0  0.59097  0.91737  0.55280  1.0000
  N   N31       1.0  0.58272  0.14223  0.58186  1.0000
  H   H560      1.0  0.93927  0.05665  0.38357  1.0000
  H   H561      1.0  0.64473  0.98344  0.53053  1.0000
  H   H562      1.0  0.99674  0.26845  0.45139  1.0000
  Fe  Fe63      1.0  0.78307  0.89572  0.46580  1.0000
  C   C465      1.0  0.58419  0.03720  0.45359  1.0000
  C   C466      1.0  0.63609  0.22613  0.42480  1.0000
  H   H563      1.0  0.54886  0.01655  0.44651  1.0000
  H   H564      1.0  0.74258  0.36076  0.40402  1.0000
  Fe  Fe64      1.0  0.77483  0.17750  0.41190  1.0000
  H   H565      1.0  0.88899  0.30122  0.58437  1.0000
  H   H566      1.0  0.90535  0.36739  0.51529  1.0000
  C   C467      1.0  0.91091  0.32296  0.50910  1.0000
  H   H567      1.0  0.68025  0.36347  0.36635  1.0000
  H   H568      1.0  0.88742  0.22931  0.46046  1.0000
  N   N32       1.0  0.00275  0.95550  0.52009  1.0000
  C   C468      1.0  0.65953  0.27904  0.41643  1.0000
  C   C469      1.0  0.95139  0.96864  0.54390  1.0000
  C   C470      1.0  0.60900  0.18269  0.55188  1.0000
  N   N33       1.0  0.66474  0.38192  0.42815  1.0000
  H   H569      1.0  0.68622  0.05596  0.44024  1.0000
  C   C471      1.0  0.66737  0.02909  0.46510  1.0000
  S   S131      1.0  0.85633  0.91348  0.48520  1.0000
  H   H570      1.0  0.62093  0.16231  0.52262  1.0000
  C   C472      1.0  0.99180  0.20301  0.59236  1.0000
  S   S132      1.0  0.75497  0.16095  0.35423  1.0000
  H   H571      1.0  0.54697  0.30330  0.39252  1.0000
  C   C473      1.0  0.59809  0.31641  0.47089  1.0000
  C   C474      1.0  0.59529  0.95951  0.49023  1.0000
  H   H572      1.0  0.76115  0.11359  0.59252  1.0000
  H   H573      1.0  0.97654  0.92975  0.46850  1.0000
  C   C475      1.0  0.54332  0.10593  0.56778  1.0000
  H   H574      1.0  0.87349  0.20771  0.58391  1.0000
  C   C476      1.0  0.03013  0.93171  0.54626  1.0000
  C   C477      1.0  0.62297  0.11129  0.59169  1.0000
  H   H575      1.0  0.82146  0.27995  0.58883  1.0000
  H   H576      1.0  0.03508  0.14399  0.49211  1.0000
  C   C478      1.0  0.03428  0.00383  0.50082  1.0000
  Fe  Fe65      1.0  0.03006  0.32429  0.56159  1.0000
  H   H577      1.0  0.54113  0.25733  0.50267  1.0000
  C   C479      1.0  0.03491  0.03599  0.37346  1.0000
  H   H578      1.0  0.55256  0.03022  0.59573  1.0000
  H   H579      1.0  0.61954  0.38922  0.38640  1.0000
  H   H580      1.0  0.53669  0.92266  0.46127  1.0000
  H   H581      1.0  0.64213  0.18308  0.67711  1.0000
  C   C480      1.0  0.77065  0.36496  0.76878  1.0000
  H   H582      1.0  0.95960  0.21700  0.74883  1.0000
  C   C481      1.0  0.81982  0.10932  0.65942  1.0000
  H   H583      1.0  0.80815  0.03624  0.74051  1.0000
  H   H584      1.0  0.86330  0.99295  0.68385  1.0000
  C   C482      1.0  0.67391  0.01327  0.68655  1.0000
  C   C483      1.0  0.90872  0.26221  0.79170  1.0000
  C   C484      1.0  0.95756  0.25006  0.77036  1.0000
  C   C485      1.0  0.74693  0.27522  0.66596  1.0000
  H   H585      1.0  0.66312  0.30371  0.73621  1.0000
  H   H586      1.0  0.66926  0.16566  0.73678  1.0000
  C   C486      1.0  0.76826  0.96684  0.66515  1.0000
  S   S133      1.0  0.67782  0.92951  0.78779  1.0000
  C   C487      1.0  0.64930  0.34555  0.74278  1.0000
  C   C488      1.0  0.73772  0.90786  0.76310  1.0000
  Fe  Fe66      1.0  0.96043  0.91231  0.69504  1.0000
  S   S134      1.0  0.98194  0.97750  0.65011  1.0000
  C   C489      1.0  0.95425  0.20200  0.66190  1.0000
  C   C490      1.0  0.73304  0.38324  0.75105  1.0000
  H   H587      1.0  0.78781  0.13594  0.67097  1.0000
  C   C491      1.0  0.99582  0.32479  0.80419  1.0000
  C   C492      1.0  0.81138  0.07331  0.72288  1.0000
  H   H588      1.0  0.80314  0.94591  0.65682  1.0000
  H   H589      1.0  0.60719  0.34019  0.75583  1.0000
  C   C493      1.0  0.97291  0.15055  0.66367  1.0000
  C   C494      1.0  0.94681  0.33683  0.82535  1.0000
  C   C495      1.0  0.71906  0.04539  0.68837  1.0000
  H   H590      1.0  0.64084  0.93310  0.67311  1.0000
  H   H591      1.0  0.87484  0.23822  0.78644  1.0000
  C   C496      1.0  0.76769  0.02329  0.67777  1.0000
  C   C497      1.0  0.67588  0.95826  0.67389  1.0000
  Fe  Fe67      1.0  0.70821  0.13849  0.79984  1.0000
  H   H592      1.0  0.58238  0.17956  0.79388  1.0000
  Fe  Fe68      1.0  0.67808  0.01576  0.81369  1.0000
  S   S135      1.0  0.74305  0.07344  0.82570  1.0000
  C   C498      1.0  0.83077  0.91699  0.74919  1.0000
  S   S136      1.0  0.96655  0.97036  0.74530  1.0000
  C   C499      1.0  0.96464  0.22878  0.62634  1.0000
  H   H593      1.0  0.78156  0.96742  0.79150  1.0000
  H   H594      1.0  0.95145  0.26923  0.62521  1.0000
  C   C500      1.0  0.86243  0.02957  0.66644  1.0000
  H   H595      1.0  0.85558  0.13523  0.66099  1.0000
  H   H596      1.0  0.71556  0.08742  0.69905  1.0000
  C   C501      1.0  0.66421  0.34892  0.80701  1.0000
  H   H597      1.0  0.77751  0.09675  0.73575  1.0000
  C   C502      1.0  0.70353  0.24573  0.65778  1.0000
  C   C503      1.0  0.55719  0.17260  0.61755  1.0000
  H   H598      1.0  0.02858  0.25495  0.69893  1.0000
  H   H599      1.0  0.63717  0.03089  0.69587  1.0000
  H   H600      1.0  0.76053  0.34318  0.79574  1.0000
  H   H601      1.0  0.60782  0.08563  0.61768  1.0000
  H   H602      1.0  0.56813  0.22222  0.73558  1.0000
  S   S137      1.0  0.75860  0.20566  0.76448  1.0000
  S   S138      1.0  0.64738  0.07898  0.78354  1.0000
  C   C504      1.0  0.76453  0.26197  0.69838  1.0000
  H   H603      1.0  0.89793  0.96663  0.84362  1.0000
  H   H604      1.0  0.03420  0.18057  0.74135  1.0000
  C   C505      1.0  0.90338  0.30543  0.81931  1.0000
  H   H605      1.0  0.82109  0.09976  0.62824  1.0000
  H   H606      1.0  0.02750  0.35158  0.80976  1.0000
  C   C506      1.0  0.78314  0.93413  0.76997  1.0000
  H   H607      1.0  0.65364  0.13975  0.60000  1.0000
  H   H608      1.0  0.65393  0.36574  0.71452  1.0000
  C   C507      1.0  0.00276  0.28049  0.77616  1.0000
  C   C508      1.0  0.00078  0.12539  0.62975  1.0000
  C   C509      1.0  0.73682  0.22192  0.72390  1.0000
  H   H609      1.0  0.76754  0.30729  0.64697  1.0000
  H   H610      1.0  0.85133  0.35912  0.76519  1.0000
  H   H611      1.0  0.93227  0.22154  0.68798  1.0000
  H   H612      1.0  0.72442  0.89228  0.65338  1.0000
  H   H613      1.0  0.84584  0.09982  0.72687  1.0000
  H   H614      1.0  0.79946  0.28282  0.70372  1.0000
  H   H615      1.0  0.67682  0.30615  0.80335  1.0000
  H   H616      1.0  0.62202  0.34535  0.81990  1.0000
  C   C510      1.0  0.69197  0.19482  0.71664  1.0000
  H   H617      1.0  0.86540  0.93752  0.75477  1.0000
  N   N34       1.0  0.81465  0.05788  0.68136  1.0000
  C   C511      1.0  0.72296  0.93524  0.66294  1.0000
  C   C512      1.0  0.67623  0.20536  0.68302  1.0000
  H   H618      1.0  0.58480  0.20141  0.62919  1.0000
  Fe  Fe69      1.0  0.68293  0.34418  0.60137  1.0000
  H   H619      1.0  0.86685  0.01631  0.63534  1.0000
  N   N35       1.0  0.67720  0.37741  0.76927  1.0000
  S   S139      1.0  0.68417  0.25625  0.61527  1.0000
  Fe  Fe70      1.0  0.99208  0.03443  0.69996  1.0000
  H   H620      1.0  0.68175  0.37223  0.82912  1.0000
  S   S140      1.0  0.96130  0.11775  0.70821  1.0000
  Fe  Fe71      1.0  0.59865  0.10000  0.84226  1.0000
  H   H621      1.0  0.86551  0.31510  0.83565  1.0000
  H   H622      1.0  0.89703  0.05704  0.66806  1.0000
  C   C513      1.0  0.82320  0.37363  0.75145  1.0000
  H   H623      1.0  0.01670  0.08663  0.63103  1.0000
  C   C514      1.0  0.54486  0.17458  0.78752  1.0000
  C   C515      1.0  0.53676  0.19879  0.75460  1.0000
  H   H624      1.0  0.53784  0.14412  0.64126  1.0000
  H   H625      1.0  0.94251  0.37142  0.84612  1.0000
  C   C516      1.0  0.99085  0.91788  0.88030  1.0000
  C   C517      1.0  0.88732  0.21923  0.96012  1.0000
  H   H626      1.0  0.80647  0.19461  0.96624  1.0000
  C   C518      1.0  0.83018  0.28121  0.09120  1.0000
  H   H627      1.0  0.59348  0.38253  0.94159  1.0000
  C   C519      1.0  0.95714  0.95439  0.87309  1.0000
  C   C520      1.0  0.71041  0.98082  0.03247  1.0000
  H   H628      1.0  0.87405  0.15901  0.05222  1.0000
  S   S141      1.0  0.01634  0.38013  0.05679  1.0000
  H   H629      1.0  0.95698  0.99567  0.88609  1.0000
  C   C521      1.0  0.90018  0.10631  0.95124  1.0000
  H   H630      1.0  0.71856  0.06424  0.01338  1.0000
  C   C522      1.0  0.76129  0.22007  0.07544  1.0000
  C   C523      1.0  0.64889  0.10131  0.97228  1.0000
  H   H631      1.0  0.02811  0.19888  0.90154  1.0000
  C   C524      1.0  0.93856  0.93966  0.02779  1.0000
  H   H632      1.0  0.69860  0.33242  0.00519  1.0000
  C   C525      1.0  0.90121  0.97745  0.03166  1.0000
  C   C526      1.0  0.57938  0.13148  0.02424  1.0000
  H   H633      1.0  0.83553  0.99922  0.01221  1.0000
  H   H634      1.0  0.99176  0.22031  0.00843  1.0000
  S   S142      1.0  0.81632  0.91155  0.95844  1.0000
  C   C527      1.0  0.66314  0.91388  0.94636  1.0000
  S   S143      1.0  0.59573  0.29683  0.05491  1.0000
  H   H635      1.0  0.78280  0.14074  0.05026  1.0000
  C   C528      1.0  0.94292  0.14419  0.94941  1.0000
  H   H636      1.0  0.98010  0.12780  0.94370  1.0000
  C   C529      1.0  0.79594  0.18004  0.06163  1.0000
  H   H637      1.0  0.87957  0.26207  0.96346  1.0000
  N   N36       1.0  0.54042  0.27989  0.95500  1.0000
  C   C530      1.0  0.82161  0.35708  0.01336  1.0000
  H   H638      1.0  0.54019  0.24636  0.89745  1.0000
  C   C531      1.0  0.77677  0.32774  0.00813  1.0000
  H   H639      1.0  0.89986  0.01154  0.05263  1.0000
  H   H640      1.0  0.94717  0.30191  0.99323  1.0000
  C   C532      1.0  0.71014  0.93872  0.92648  1.0000
  C   C533      1.0  0.70452  0.32048  0.92203  1.0000
  C   C534      1.0  0.59675  0.29355  0.94512  1.0000
  H   H641      1.0  0.73849  0.96666  0.00745  1.0000
  S   S144      1.0  0.69693  0.20465  0.07445  1.0000
  H   H642      1.0  0.72896  0.97287  0.93993  1.0000
  C   C535      1.0  0.73367  0.35559  0.00857  1.0000
  C   C536      1.0  0.68447  0.94394  0.06073  1.0000
  H   H643      1.0  0.95186  0.31660  0.94248  1.0000
  H   H644      1.0  0.99388  0.25378  0.89063  1.0000
  H   H645      1.0  0.74560  0.33076  0.91335  1.0000
  H   H646      1.0  0.77488  0.28315  0.00464  1.0000
  C   C537      1.0  0.55023  0.08202  0.01997  1.0000
  C   C538      1.0  0.62911  0.14092  0.00061  1.0000
  S   S145      1.0  0.70746  0.11487  0.93873  1.0000
  C   C539      1.0  0.84485  0.18094  0.96163  1.0000
  H   H647      1.0  0.62019  0.20895  0.94171  1.0000
  H   H648      1.0  0.85474  0.33527  0.01405  1.0000
  C   C540      1.0  0.93784  0.20188  0.95436  1.0000
  H   H649      1.0  0.00676  0.32710  0.96216  1.0000
  H   H650      1.0  0.65296  0.09637  0.06794  1.0000
  C   C541      1.0  0.97146  0.29902  0.96297  1.0000
  H   H651      1.0  0.81810  0.09534  0.95846  1.0000
  H   H652      1.0  0.64536  0.92881  0.97545  1.0000
  H   H653      1.0  0.79575  0.92362  0.08623  1.0000
  H   H654      1.0  0.71147  0.23333  0.92349  1.0000
  H   H655      1.0  0.76969  0.93923  0.87389  1.0000
  H   H656      1.0  0.65164  0.17924  0.00370  1.0000
  C   C542      1.0  0.67076  0.36188  0.92745  1.0000
  C   C543      1.0  0.01534  0.22486  0.97811  1.0000
  H   H657      1.0  0.90505  0.06243  0.94769  1.0000
  C   C544      1.0  0.64806  0.96217  0.09313  1.0000
  Fe  Fe72      1.0  0.63917  0.26686  0.09527  1.0000
  C   C545      1.0  0.85124  0.12467  0.95735  1.0000
  N   N37       1.0  0.98388  0.24120  0.95187  1.0000
  Fe  Fe73      1.0  0.68752  0.09527  0.88132  1.0000
  C   C546      1.0  0.84757  0.19044  0.06266  1.0000
  C   C547      1.0  0.01558  0.24065  0.91132  1.0000
  C   C548      1.0  0.86511  0.97074  0.00865  1.0000
  S   S146      1.0  0.92831  0.25006  0.08241  1.0000
  C   C549      1.0  0.63230  0.25226  0.93880  1.0000
  Fe  Fe74      1.0  0.59854  0.37805  0.08685  1.0000
  S   S147      1.0  0.98119  0.94514  0.05846  1.0000
  C   C550      1.0  0.86463  0.24067  0.07797  1.0000
  C   C551      1.0  0.66201  0.05405  0.06762  1.0000
  C   C552      1.0  0.69919  0.03574  0.03587  1.0000
  C   C553      1.0  0.68530  0.26580  0.92785  1.0000
  C   C554      1.0  0.86601  0.92572  0.98233  1.0000
  H   H658      1.0  0.63535  0.02110  0.94704  1.0000
  H   H659      1.0  0.54270  0.22301  0.99901  1.0000
  C   C555      1.0  0.61984  0.05188  0.96851  1.0000
  S   S148      1.0  0.62494  0.03272  0.87150  1.0000
  C   C556      1.0  0.61773  0.34879  0.93865  1.0000
  C   C557      1.0  0.77843  0.27097  0.08981  1.0000
  C   C558      1.0  0.94102  0.89651  0.99995  1.0000
  C   C559      1.0  0.73297  0.91988  0.88907  1.0000
  H   H660      1.0  0.01563  0.93350  0.89883  1.0000
  S   S149      1.0  0.65683  0.16394  0.85632  1.0000
  C   C560      1.0  0.57069  0.04206  0.99236  1.0000
  H   H661      1.0  0.69203  0.90083  0.05713  1.0000
  H   H662      1.0  0.02747  0.19290  0.09335  1.0000
  H   H663      1.0  0.56371  0.16219  0.04603  1.0000
  H   H664      1.0  0.03289  0.18538  0.96864  1.0000
  H   H665      1.0  0.54818  0.00413  0.98850  1.0000
  H   H666      1.0  0.53740  0.19035  0.95282  1.0000
  C   C561      1.0  0.63630  0.01832  0.09784  1.0000
  C   C562      1.0  0.92402  0.93818  0.84906  1.0000
  H   H667      1.0  0.76728  0.10583  0.28716  1.0000
  C   C563      1.0  0.79441  0.35179  0.28810  1.0000
  C   C564      1.0  0.99937  0.23388  0.23666  1.0000
  H   H668      1.0  0.63418  0.29529  0.33517  1.0000
  C   C565      1.0  0.76574  0.16526  0.18530  1.0000
  C   C566      1.0  0.55299  0.05454  0.11851  1.0000
  C   C567      1.0  0.90507  0.92551  0.15212  1.0000
  H   H669      1.0  0.76373  0.02513  0.16773  1.0000
  H   H670      1.0  0.97680  0.24408  0.26543  1.0000
  Fe  Fe75      1.0  0.78479  0.24808  0.34136  1.0000
  H   H671      1.0  0.83576  0.28661  0.25491  1.0000
  H   H672      1.0  0.83501  0.22000  0.16251  1.0000
  C   C568      1.0  0.57952  0.99835  0.16272  1.0000
  C   C569      1.0  0.84847  0.13714  0.14605  1.0000
  C   C570      1.0  0.00508  0.19008  0.17300  1.0000
  H   H673      1.0  0.85321  0.05052  0.13202  1.0000
  H   H674      1.0  0.97945  0.33334  0.29886  1.0000
  H   H675      1.0  0.76138  0.27460  0.16825  1.0000
  C   C571      1.0  0.68243  0.20235  0.19460  1.0000
  H   H676      1.0  0.59198  0.10471  0.17544  1.0000
  C   C572      1.0  0.02373  0.07818  0.27372  1.0000
  H   H677      1.0  0.62156  0.36597  0.29107  1.0000
  C   C573      1.0  0.73036  0.03506  0.26428  1.0000
  S   S150      1.0  0.86611  0.23005  0.31559  1.0000
  C   C574      1.0  0.75423  0.26487  0.19949  1.0000
  C   C575      1.0  0.78523  0.96371  0.23459  1.0000
  S   S151      1.0  0.68264  0.94527  0.23536  1.0000
  C   C576      1.0  0.87196  0.36645  0.23744  1.0000
  C   C577      1.0  0.81747  0.17832  0.16484  1.0000
  C   C578      1.0  0.61417  0.28384  0.31255  1.0000
  N   N38       1.0  0.59798  0.03927  0.13168  1.0000
  H   H678      1.0  0.63045  0.12409  0.12938  1.0000
  C   C579      1.0  0.73646  0.98362  0.24534  1.0000
  H   H679      1.0  0.55618  0.96311  0.15292  1.0000
  H   H680      1.0  0.68886  0.20173  0.16223  1.0000
  H   H681      1.0  0.88761  0.14826  0.13027  1.0000
  H   H682      1.0  0.99367  0.23507  0.33143  1.0000
  H   H683      1.0  0.70096  0.15773  0.25738  1.0000
  S   S152      1.0  0.99514  0.34625  0.14907  1.0000
  H   H684      1.0  0.90221  0.35016  0.21493  1.0000
  H   H685      1.0  0.65888  0.23745  0.20631  1.0000
  C   C580      1.0  0.83429  0.33063  0.25985  1.0000
  H   H686      1.0  0.93531  0.19118  0.21844  1.0000
  H   H687      1.0  0.70957  0.09552  0.20244  1.0000
  H   H688      1.0  0.89440  0.95104  0.28624  1.0000
  H   H689      1.0  0.79073  0.27247  0.20868  1.0000
  H   H690      1.0  0.69358  0.05201  0.27128  1.0000
  H   H691      1.0  0.86623  0.93948  0.10870  1.0000
  H   H692      1.0  0.93200  0.96128  0.14434  1.0000
  H   H693      1.0  0.98523  0.16683  0.15345  1.0000
  H   H694      1.0  0.86476  0.97888  0.23671  1.0000
  H   H695      1.0  0.55354  0.01596  0.18879  1.0000
  C   C581      1.0  0.87868  0.92621  0.31135  1.0000
  S   S153      1.0  0.64944  0.35069  0.12274  1.0000
  N   N39       1.0  0.73198  0.20726  0.20652  1.0000
  H   H696      1.0  0.55445  0.17197  0.27590  1.0000
  C   C582      1.0  0.57007  0.21392  0.27880  1.0000
  C   C583      1.0  0.58244  0.30828  0.25753  1.0000
  H   H697      1.0  0.75827  0.20067  0.25894  1.0000
  C   C584      1.0  0.99068  0.98486  0.32997  1.0000
  S   S154      1.0  0.61119  0.17904  0.33658  1.0000
  S   S155      1.0  0.56822  0.23885  0.13989  1.0000
  C   C585      1.0  0.77215  0.06558  0.27392  1.0000
  C   C586      1.0  0.82722  0.99442  0.24466  1.0000
  Fe  Fe76      1.0  0.95417  0.33512  0.10068  1.0000
  H   H698      1.0  0.69796  0.23001  0.26626  1.0000
  Fe  Fe77      1.0  0.58695  0.09534  0.31599  1.0000
  H   H699      1.0  0.93461  0.37392  0.28537  1.0000
  C   C587      1.0  0.95404  0.36727  0.30886  1.0000
  C   C588      1.0  0.74761  0.10875  0.18600  1.0000
  C   C589      1.0  0.97606  0.20400  0.21009  1.0000
  C   C590      1.0  0.82905  0.08217  0.14673  1.0000
  C   C591      1.0  0.86691  0.91226  0.13162  1.0000
  C   C592      1.0  0.59673  0.22884  0.30772  1.0000
  H   H700      1.0  0.98353  0.06878  0.27407  1.0000
  S   S156      1.0  0.57589  0.35815  0.22565  1.0000
  Fe  Fe78      1.0  0.61494  0.98800  0.27042  1.0000
  H   H701      1.0  0.54274  0.24195  0.23109  1.0000
  C   C593      1.0  0.77862  0.06801  0.16660  1.0000
  H   H702      1.0  0.65796  0.16487  0.20578  1.0000
  C   C594      1.0  0.82005  0.04438  0.26599  1.0000
  S   S157      1.0  0.74624  0.30695  0.31417  1.0000
  C   C595      1.0  0.60728  0.32358  0.28742  1.0000
  H   H703      1.0  0.65532  0.07989  0.15830  1.0000
  H   H704      1.0  0.79035  0.92430  0.21938  1.0000
  S   S158      1.0  0.59881  0.07037  0.25307  1.0000
  C   C596      1.0  0.56321  0.25362  0.25350  1.0000
  C   C597      1.0  0.62013  0.08907  0.14949  1.0000
  H   H705      1.0  0.72826  0.29522  0.21655  1.0000
  S   S159      1.0  0.60991  0.01572  0.33267  1.0000
  Fe  Fe79      1.0  0.57589  0.32496  0.16534  1.0000
  C   C598      1.0  0.72190  0.19837  0.24894  1.0000
  H   H706      1.0  0.74126  0.90978  0.15144  1.0000
  Fe  Fe80      1.0  0.83793  0.14283  0.33103  1.0000
  H   H707      1.0  0.02263  0.95736  0.32078  1.0000
  H   H708      1.0  0.61173  0.98277  0.17273  1.0000
  H   H709      1.0  0.97170  0.98508  0.30538  1.0000
  S   S160      1.0  0.86947  0.07905  0.28478  1.0000
  H   H710      1.0  0.72080  0.90284  0.34591  1.0000
  H   H711      1.0  0.56261  0.09052  0.09926  1.0000
  H   H712      1.0  0.62895  0.93139  0.11375  1.0000
  H   H713      1.0  0.75185  0.30226  0.09996  1.0000
  H   H714      1.0  0.93830  0.90322  0.19836  1.0000
  H   H715      1.0  0.93909  0.07378  0.33561  1.0000
  C   C599      1.0  0.83968  0.94529  0.34181  1.0000
  N   N40       1.0  0.00940  0.04102  0.34099  1.0000
  H   H716      1.0  0.82530  0.98503  0.34020  1.0000
  H   H717      1.0  0.84309  0.32004  0.10303  1.0000
  H   H718      1.0  0.53781  0.01985  0.10183  1.0000
  C   C600      1.0  0.90893  0.89280  0.18228  1.0000
  H   H719      1.0  0.69986  0.89179  0.30230  1.0000
  H   H720      1.0  0.92410  0.35256  0.33465  1.0000
