data_image0
_chemical_formula_structural       FeS2FeS2FeSFeS4FeS2FeSHFeSFeS3FeS2FeS2FeSFeS3FeSHFeS2FeSFeS3CFeH2CFeS2C2HCH3CHC7H4C6H4C4HFeNHC6H4CH4C6H4C6H4C6H4C6H5NC9H14NC9H8CHNH2CH2CHCSHCH4CH4CHC2HC4H6NC4HC3NCH11CHCHC2H3SH2SH2CHCHCH6C3H7NH2CHNCHC2H2C3HSH2CH4C3HC6HCSHC2H3NC2HC3H2CH3CH4C2HNCHCHCH3CHCH7SH8CNC3H3C2HC3H2CH3C2FeSHC2FeCHSCHC3SCH3CH2CFeS2FeS2FeCFeS3HFeH2FeHSCHCSC2H2FeS2FeH2SC3H3CHCHCH2C2H2CH6CH4CHCHCSHSHSH3C6H4CHCH2C2H3CNC9H3CH2C3H7SC2NC2HC2SC2HC4NH5C2FeHC4H2FeHCH5CNCHCSH2C2HC2H3CHC3FeSFeSCFeS2FeSFeS3CHC2HCH3C2H5C2H2C3H5CH3C3H4CH3C4H3CHSH3NHC2H3CH2CHCH4C2H2C3HCH4CHC2HCSC2HC2HC4HC2HCH3NC9HSC5H2CNHC2SNHCHS2CH2C2HC2HSCHCFeH2SCHC2SH2CH3C3H2CHCFeSCH2CHNHCH4CHCH3CH2FeSCFeS2FeSFeS3FeS2FeH2FeS4CFeSHSFeS2FeS2FeSFeS3FeS2FeS2FeHFeCS3H3C6H4C6H4C3FeC7H4C6H4C6H3C6H6CH3FeNHC2HCSH6NHC2H4CH2NC3SHC2H11CHCH2C4H2CNCH2CH4C2NC9H15CHC2H2CHFeC2H3C2H4CH6NHCSCHCHC2SH2FeCNC2HCH2CH2CHCHC2H2SHCHNHC2H2C2H3C2H2CHCHCH2CHC4H2C5HCH3NH4SHSH2C2H2SHC3HC2H2CHC6FeH4NSH8C2HCNCHC2FeSFeS3FeS2FeS2FeSFeS3FeSFeHFeHS2FeS2FeH2FeCFeS3FeS2FeSH2CHNCSC3H6CH6C2H5CH3C6H4C6H4C6H4C6H4C6H10CHC2HC2H2SHCH2CH2CHNC6NCNH3CH10NC9H4SH2CH6CHC2H3FeCHCH6SHCNC3H2CHCHSFe2C3NC3SH2C3H2SHCHCHCSFeHCH3SH2C2NH7C2HSCH5C2HC2HSCSCS2C2HCH2C5SHC2FeC2HNC3SCHC3HCHC2HC3H2CH4CH4C2H3CH4C4FeS2C2HFeH2S2C2HSCHFeS2CHSCSH3SHNC2H2SC2H5CHFeCHC3HC2HC2HC4HCH5CSCHCHNC2SCHSH3NH3CH2C2HCHCH2CH5FeCNC13H2CH2FeH2CHNC9H11CH3SCHC2H2SCH2C3HCSH5CH2CFeHC2H5C2HC2H2CHCHSHSFeS2H3FeSCFeSCFeSFeS3C6H4C2HSH2CH3C3FeC2H8C2SHCHSNH2CH2CHC2HNC2H2C2HCH5C4H3C2HCHCHFeCNCH3CH4NCHCFeCFeH3SH3S2CHCH2C3H3CHSCH4CH4SH2C2SH2C4HCHCFeHCHCH2FeHSC2FeS2FeS2FeSFeS3H2C2S2FeS2H2FeSHSFeS2FeS2FeSFeS3FeS2C2HSHSC6H4NCNHC6H4FeC6H4CH2C6H4C6H4C6H4C6H5SHC5H3CHFeH4CH4SCH3NC3H9C3H7C2H6CNCNC2H2CFeC2H2C3H8C2H3C3HNCH2CHSCNC3H2CH3CHFeCHC3H4CH2CH3C6SCHCH4SH2FeHFeH2CHNHCHC2H3SH2CH4C2H2CHC2H2SCH3NSCFeSHSH7CHCH2SC3HC2H2C2HC2H2C3HCHC2H2SHC2H3C2FeHSH2
_chemical_formula_sum              "Fe116 S232 H1044 C870 N58"
_cell_length_a       56.7537
_cell_length_b       56.8672
_cell_length_c       51.2648
_cell_angle_alpha    81.5689
_cell_angle_beta     82.7217
_cell_angle_gamma    81.033

_space_group_name_H-M_alt    "P 1"
_space_group_IT_number       1

loop_
  _space_group_symop_operation_xyz
  'x, y, z'

loop_
  _atom_site_type_symbol
  _atom_site_label
  _atom_site_symmetry_multiplicity
  _atom_site_fract_x
  _atom_site_fract_y
  _atom_site_fract_z
  _atom_site_occupancy
  Fe  Fe1       1.0  0.10196  0.10708  0.13029  1.0000
  S   S1        1.0  0.08770  0.10993  0.17297  1.0000
  S   S2        1.0  0.09059  0.08568  0.10070  1.0000
  Fe  Fe2       1.0  0.14208  0.13770  0.13246  1.0000
  S   S3        1.0  0.13122  0.14265  0.17494  1.0000
  S   S4        1.0  0.17461  0.15089  0.10832  1.0000
  Fe  Fe3       1.0  0.12650  0.10380  0.18059  1.0000
  S   S5        1.0  0.14011  0.07857  0.21513  1.0000
  Fe  Fe4       1.0  0.09379  0.14847  0.16345  1.0000
  S   S6        1.0  0.07000  0.18035  0.17765  1.0000
  S   S7        1.0  0.14049  0.09807  0.13892  1.0000
  S   S8        1.0  0.10487  0.14658  0.12007  1.0000
  S   S9        1.0  0.00813  0.01928  0.11040  1.0000
  Fe  Fe5       1.0  0.23900  0.25797  0.12423  1.0000
  S   S10       1.0  0.24006  0.24223  0.16670  1.0000
  S   S11       1.0  0.21258  0.25088  0.09798  1.0000
  Fe  Fe6       1.0  0.28211  0.28453  0.12434  1.0000
  S   S12       1.0  0.28666  0.27081  0.16698  1.0000
  H   H1        1.0  0.04494  0.22969  0.32128  1.0000
  Fe  Fe7       1.0  0.27982  0.23583  0.15637  1.0000
  S   S13       1.0  0.29919  0.19931  0.16818  1.0000
  Fe  Fe8       1.0  0.24647  0.27895  0.17280  1.0000
  S   S14       1.0  0.22667  0.29712  0.20672  1.0000
  S   S15       1.0  0.27848  0.24858  0.11319  1.0000
  S   S16       1.0  0.24228  0.29546  0.13092  1.0000
  Fe  Fe9       1.0  0.26779  0.13661  0.30015  1.0000
  S   S17       1.0  0.28634  0.10310  0.28433  1.0000
  S   S18       1.0  0.28271  0.17139  0.29205  1.0000
  Fe  Fe10      1.0  0.22408  0.11386  0.32476  1.0000
  S   S19       1.0  0.23871  0.07819  0.31117  1.0000
  S   S20       1.0  0.18698  0.12167  0.34510  1.0000
  Fe  Fe11      1.0  0.27335  0.08488  0.32408  1.0000
  S   S21       1.0  0.29793  0.05661  0.34693  1.0000
  Fe  Fe12      1.0  0.25012  0.10002  0.27281  1.0000
  S   S22       1.0  0.24458  0.09571  0.23116  1.0000
  S   S23       1.0  0.25747  0.11879  0.34104  1.0000
  S   S24       1.0  0.23275  0.13514  0.28551  1.0000
  Fe  Fe13      1.0  0.07939  0.27335  0.31812  1.0000
  S   S25       1.0  0.11625  0.28163  0.30153  1.0000
  H   H2        1.0  0.12435  0.27420  0.35969  1.0000
  Fe  Fe14      1.0  0.08843  0.22349  0.30082  1.0000
  S   S26       1.0  0.12597  0.22735  0.28384  1.0000
  S   S27       1.0  0.07517  0.18885  0.29815  1.0000
  Fe  Fe15      1.0  0.12814  0.24412  0.31999  1.0000
  S   S28       1.0  0.16049  0.23386  0.34211  1.0000
  Fe  Fe16      1.0  0.11030  0.26400  0.26683  1.0000
  S   S29       1.0  0.12118  0.27197  0.22326  1.0000
  S   S30       1.0  0.09187  0.23685  0.33891  1.0000
  S   S31       1.0  0.07227  0.25928  0.28158  1.0000
  C   C1        1.0  0.01754  0.24754  0.23984  1.0000
  Fe  Fe17      1.0  0.42953  0.04516  0.44822  1.0000
  H   H3        1.0  0.09062  0.04451  0.18711  1.0000
  H   H4        1.0  0.38324  0.03565  0.34285  1.0000
  C   C2        1.0  0.38065  0.05452  0.33541  1.0000
  Fe  Fe18      1.0  0.38080  0.07529  0.44632  1.0000
  S   S32       1.0  0.35728  0.10087  0.41942  1.0000
  S   S33       1.0  0.39428  0.03736  0.43899  1.0000
  C   C3        1.0  0.31068  0.06516  0.46125  1.0000
  C   C4        1.0  0.01171  0.23451  0.28785  1.0000
  H   H5        1.0  0.13991  0.30498  0.14656  1.0000
  C   C5        1.0  0.10424  0.04876  0.17023  1.0000
  H   H6        1.0  0.20934  0.19419  0.29284  1.0000
  H   H7        1.0  0.34540  0.26932  0.14304  1.0000
  H   H8        1.0  0.14309  0.23874  0.09268  1.0000
  C   C6        1.0  0.15405  0.27205  0.09527  1.0000
  H   H9        1.0  0.01964  0.26173  0.22347  1.0000
  C   C7        1.0  0.15790  0.29263  0.23632  1.0000
  C   C8        1.0  0.17964  0.15266  0.34601  1.0000
  C   C9        1.0  0.19761  0.16701  0.34579  1.0000
  C   C10       1.0  0.19156  0.19189  0.34585  1.0000
  C   C11       1.0  0.16771  0.20255  0.34484  1.0000
  C   C12       1.0  0.14977  0.18821  0.34493  1.0000
  C   C13       1.0  0.15568  0.16324  0.34611  1.0000
  H   H10       1.0  0.21616  0.15893  0.34579  1.0000
  H   H11       1.0  0.20545  0.20294  0.34587  1.0000
  H   H12       1.0  0.13129  0.19628  0.34425  1.0000
  H   H13       1.0  0.14174  0.15217  0.34639  1.0000
  C   C14       1.0  0.31582  0.06873  0.36573  1.0000
  C   C15       1.0  0.31660  0.09345  0.36264  1.0000
  C   C16       1.0  0.32960  0.10309  0.37903  1.0000
  C   C17       1.0  0.34204  0.08807  0.39844  1.0000
  C   C18       1.0  0.34170  0.06327  0.40114  1.0000
  C   C19       1.0  0.32861  0.05362  0.38482  1.0000
  H   H14       1.0  0.30734  0.10520  0.34752  1.0000
  H   H15       1.0  0.32996  0.12226  0.37666  1.0000
  H   H16       1.0  0.35074  0.05157  0.41640  1.0000
  H   H17       1.0  0.32799  0.03449  0.38739  1.0000
  C   C20       1.0  0.19662  0.29243  0.21004  1.0000
  C   C21       1.0  0.18836  0.28087  0.19144  1.0000
  C   C22       1.0  0.16515  0.27469  0.19556  1.0000
  C   C23       1.0  0.14991  0.28051  0.21801  1.0000
  H   H18       1.0  0.02767  0.20580  0.33188  1.0000
  Fe  Fe19      1.0  0.99766  0.99853  0.07971  1.0000
  N   N1        1.0  0.00766  0.23942  0.31581  1.0000
  H   H19       1.0  0.01113  0.06573  0.04215  1.0000
  C   C24       1.0  0.29466  0.19193  0.20258  1.0000
  C   C25       1.0  0.29012  0.16881  0.21312  1.0000
  C   C26       1.0  0.28598  0.16272  0.24058  1.0000
  C   C27       1.0  0.28733  0.17940  0.25766  1.0000
  C   C28       1.0  0.29185  0.20261  0.24714  1.0000
  C   C29       1.0  0.29516  0.20900  0.21953  1.0000
  H   H20       1.0  0.28963  0.15559  0.20011  1.0000
  H   H21       1.0  0.28207  0.14497  0.24843  1.0000
  H   H22       1.0  0.29262  0.21565  0.26029  1.0000
  H   H23       1.0  0.29861  0.22694  0.21141  1.0000
  C   C30       1.0  0.26573  0.12425  0.15257  1.0000
  H   H24       1.0  0.26708  0.21989  0.33334  1.0000
  H   H25       1.0  0.32252  0.07822  0.46220  1.0000
  H   H26       1.0  0.12011  0.23557  0.38589  1.0000
  H   H27       1.0  0.98617  0.06767  0.09628  1.0000
  C   C31       1.0  0.07278  0.18185  0.21102  1.0000
  C   C32       1.0  0.07648  0.20353  0.21855  1.0000
  C   C33       1.0  0.07818  0.20529  0.24514  1.0000
  C   C34       1.0  0.07500  0.18577  0.26460  1.0000
  C   C35       1.0  0.07150  0.16394  0.25713  1.0000
  C   C36       1.0  0.07081  0.16186  0.23024  1.0000
  H   H28       1.0  0.07785  0.21911  0.20392  1.0000
  H   H29       1.0  0.08128  0.22206  0.25055  1.0000
  H   H30       1.0  0.06926  0.14869  0.27208  1.0000
  H   H31       1.0  0.06799  0.14503  0.22448  1.0000
  C   C37       1.0  0.16942  0.08261  0.21937  1.0000
  C   C38       1.0  0.17992  0.07155  0.24221  1.0000
  C   C39       1.0  0.20298  0.07558  0.24613  1.0000
  C   C40       1.0  0.21570  0.09035  0.22698  1.0000
  C   C41       1.0  0.20517  0.10131  0.20416  1.0000
  C   C42       1.0  0.18210  0.09751  0.20038  1.0000
  H   H32       1.0  0.17014  0.06006  0.25700  1.0000
  H   H33       1.0  0.21102  0.06706  0.26380  1.0000
  H   H34       1.0  0.21461  0.11327  0.18966  1.0000
  H   H35       1.0  0.17423  0.10609  0.18266  1.0000
  C   C43       1.0  0.18121  0.18027  0.10735  1.0000
  C   C44       1.0  0.18592  0.19342  0.08248  1.0000
  C   C45       1.0  0.19477  0.21533  0.08021  1.0000
  C   C46       1.0  0.19984  0.22404  0.10271  1.0000
  C   C47       1.0  0.19457  0.21133  0.12786  1.0000
  C   C48       1.0  0.18513  0.18942  0.13021  1.0000
  H   H36       1.0  0.18324  0.18635  0.06475  1.0000
  H   H37       1.0  0.19858  0.22515  0.06077  1.0000
  H   H38       1.0  0.19798  0.21834  0.14529  1.0000
  H   H39       1.0  0.18191  0.17909  0.14947  1.0000
  C   C49       1.0  0.06687  0.06812  0.10358  1.0000
  C   C50       1.0  0.06399  0.05663  0.08189  1.0000
  C   C51       1.0  0.04595  0.04184  0.08347  1.0000
  C   C52       1.0  0.03066  0.03829  0.10689  1.0000
  C   C53       1.0  0.03327  0.05008  0.12842  1.0000
  C   C54       1.0  0.05122  0.06497  0.12680  1.0000
  H   H40       1.0  0.07601  0.05895  0.06384  1.0000
  H   H41       1.0  0.04424  0.03280  0.06680  1.0000
  H   H42       1.0  0.02147  0.04750  0.14659  1.0000
  H   H43       1.0  0.05298  0.07389  0.14353  1.0000
  H   H44       1.0  0.41127  0.09644  0.37528  1.0000
  N   N2        1.0  0.15135  0.14865  0.26275  1.0000
  C   C55       1.0  0.13787  0.16450  0.28178  1.0000
  C   C56       1.0  0.13402  0.13958  0.24875  1.0000
  C   C57       1.0  0.16439  0.12783  0.27865  1.0000
  C   C58       1.0  0.16737  0.16205  0.24289  1.0000
  C   C59       1.0  0.19143  0.15237  0.23505  1.0000
  C   C60       1.0  0.15876  0.18498  0.22971  1.0000
  C   C61       1.0  0.20599  0.16500  0.21567  1.0000
  C   C62       1.0  0.17362  0.19772  0.21073  1.0000
  C   C63       1.0  0.19713  0.18766  0.20359  1.0000
  H   H45       1.0  0.12443  0.17839  0.27250  1.0000
  H   H46       1.0  0.12727  0.15442  0.29827  1.0000
  H   H47       1.0  0.15026  0.17358  0.29077  1.0000
  H   H48       1.0  0.12297  0.15442  0.23722  1.0000
  H   H49       1.0  0.12144  0.12940  0.26280  1.0000
  H   H50       1.0  0.14343  0.12730  0.23450  1.0000
  H   H51       1.0  0.17862  0.13342  0.28850  1.0000
  H   H52       1.0  0.15229  0.11903  0.29469  1.0000
  H   H53       1.0  0.17263  0.11354  0.26640  1.0000
  H   H54       1.0  0.19947  0.13493  0.24350  1.0000
  H   H55       1.0  0.14039  0.19318  0.23377  1.0000
  H   H56       1.0  0.22428  0.15700  0.21012  1.0000
  H   H57       1.0  0.16683  0.21546  0.20142  1.0000
  H   H58       1.0  0.20856  0.19748  0.18878  1.0000
  N   N3        1.0  0.21735  0.22529  0.26550  1.0000
  C   C64       1.0  0.21730  0.19899  0.27217  1.0000
  C   C65       1.0  0.19220  0.23706  0.26933  1.0000
  C   C66       1.0  0.22644  0.22979  0.23705  1.0000
  C   C67       1.0  0.23219  0.23530  0.28176  1.0000
  C   C68       1.0  0.24340  0.22141  0.30334  1.0000
  C   C69       1.0  0.23566  0.25982  0.27629  1.0000
  C   C70       1.0  0.25809  0.23119  0.31757  1.0000
  C   C71       1.0  0.25028  0.26948  0.29071  1.0000
  C   C72       1.0  0.26163  0.25513  0.31120  1.0000
  H   H59       1.0  0.18044  0.23052  0.25698  1.0000
  H   H60       1.0  0.19071  0.25679  0.26397  1.0000
  H   H61       1.0  0.18469  0.23375  0.29043  1.0000
  H   H62       1.0  0.24553  0.22176  0.23350  1.0000
  H   H63       1.0  0.21593  0.22228  0.22427  1.0000
  H   H64       1.0  0.22538  0.24916  0.22956  1.0000
  H   H65       1.0  0.24154  0.20274  0.30935  1.0000
  H   H66       1.0  0.22724  0.27174  0.26063  1.0000
  C   C73       1.0  0.38494  0.30722  0.14833  1.0000
  H   H67       1.0  0.25298  0.28814  0.28570  1.0000
  N   N4        1.0  0.25765  0.05908  0.42450  1.0000
  H   H68       1.0  0.20647  0.19196  0.25926  1.0000
  H   H69       1.0  0.35021  0.04974  0.31633  1.0000
  C   C74       1.0  0.13642  0.03496  0.13879  1.0000
  H   H70       1.0  0.43815  0.08819  0.33511  1.0000
  H   H71       1.0  0.27423  0.08410  0.39486  1.0000
  C   C75       1.0  0.01885  0.22397  0.23468  1.0000
  H   H72       1.0  0.08167  0.26481  0.42015  1.0000
  C   C76       1.0  0.36549  0.29431  0.15492  1.0000
  S   S34       1.0  0.30754  0.30714  0.09842  1.0000
  H   H73       1.0  0.08376  0.29239  0.39875  1.0000
  C   C77       1.0  0.12911  0.28085  0.37743  1.0000
  H   H74       1.0  0.35319  0.29723  0.17252  1.0000
  H   H75       1.0  0.23209  0.17872  0.15016  1.0000
  H   H76       1.0  0.24271  0.08597  0.39426  1.0000
  H   H77       1.0  0.11671  0.00646  0.19852  1.0000
  C   C78       1.0  0.27703  0.05391  0.44224  1.0000
  H   H78       1.0  0.27792  0.12972  0.16435  1.0000
  H   H79       1.0  0.26683  0.08960  0.17635  1.0000
  H   H80       1.0  0.25529  0.19769  0.14196  1.0000
  H   H81       1.0  0.25948  0.17131  0.16545  1.0000
  C   C79       1.0  0.01326  0.21069  0.28180  1.0000
  H   H82       1.0  0.02212  0.21979  0.21444  1.0000
  C   C80       1.0  0.40075  0.30449  0.12476  1.0000
  C   C81       1.0  0.29244  0.07084  0.44446  1.0000
  H   H83       1.0  0.00211  0.09028  0.07828  1.0000
  C   C82       1.0  0.37022  0.10298  0.31553  1.0000
  C   C83       1.0  0.43821  0.06864  0.34151  1.0000
  C   C84       1.0  0.38941  0.09537  0.33081  1.0000
  C   C85       1.0  0.35637  0.08649  0.31010  1.0000
  H   H84       1.0  0.14903  0.27742  0.37682  1.0000
  H   H85       1.0  0.43826  0.99557  0.43706  1.0000
  H   H86       1.0  0.11731  0.23240  0.42133  1.0000
  H   H87       1.0  0.11658  0.05901  0.17773  1.0000
  H   H88       1.0  0.42648  0.31521  0.07473  1.0000
  H   H89       1.0  0.39463  0.07386  0.39273  1.0000
  N   N5        1.0  0.26230  0.16469  0.12469  1.0000
  C   C86       1.0  0.28877  0.16411  0.12154  1.0000
  C   C87       1.0  0.25335  0.17767  0.09974  1.0000
  C   C88       1.0  0.25588  0.14010  0.13135  1.0000
  C   C89       1.0  0.23856  0.13176  0.11851  1.0000
  H   H90       1.0  0.14532  0.23824  0.40179  1.0000
  C   C90       1.0  0.23208  0.10881  0.12612  1.0000
  C   C91       1.0  0.25940  0.10120  0.15972  1.0000
  C   C92       1.0  0.24263  0.09348  0.14651  1.0000
  N   N6        1.0  0.11751  0.26890  0.40233  1.0000
  C   C93       1.0  0.12363  0.27910  0.42518  1.0000
  H   H91       1.0  0.29754  0.15225  0.10663  1.0000
  H   H92       1.0  0.23347  0.18085  0.10137  1.0000
  H   H93       1.0  0.25901  0.19587  0.09483  1.0000
  H   H94       1.0  0.26003  0.16760  0.08262  1.0000
  H   H95       1.0  0.22926  0.14276  0.10291  1.0000
  H   H96       1.0  0.21831  0.10317  0.11650  1.0000
  H   H97       1.0  0.23718  0.07590  0.15276  1.0000
  H   H98       1.0  0.45400  0.06250  0.35296  1.0000
  H   H99       1.0  0.09476  0.06097  0.15466  1.0000
  H   H100      1.0  0.14609  0.29749  0.25349  1.0000
  H   H101      1.0  0.40778  0.28396  0.09107  1.0000
  C   C94       1.0  0.25711  0.08280  0.40779  1.0000
  H   H102      1.0  0.01846  0.18719  0.25150  1.0000
  C   C95       1.0  0.47378  0.00521  0.42616  1.0000
  H   H103      1.0  0.14717  0.01951  0.12980  1.0000
  C   C96       1.0  0.36107  0.27853  0.13835  1.0000
  C   C97       1.0  0.12540  0.24265  0.40312  1.0000
  H   H104      1.0  0.24892  0.04536  0.39008  1.0000
  H   H105      1.0  0.29127  0.08842  0.43298  1.0000
  H   H106      1.0  0.44603  0.28665  0.10782  1.0000
  S   S35       1.0  0.41692  0.08390  0.45219  1.0000
  H   H107      1.0  0.12128  0.23204  0.18183  1.0000
  H   H108      1.0  0.02542  0.22965  0.35160  1.0000
  S   S36       1.0  0.05045  0.29597  0.34147  1.0000
  H   H109      1.0  0.07903  0.00743  0.18760  1.0000
  H   H110      1.0  0.19980  0.27673  0.17378  1.0000
  C   C98       1.0  0.12680  0.27176  0.14451  1.0000
  H   H111      1.0  0.15925  0.26502  0.18156  1.0000
  C   C99       1.0  0.12377  0.21999  0.16612  1.0000
  H   H112      1.0  0.14437  0.24666  0.44431  1.0000
  C   C100      1.0  0.28095  0.03121  0.45802  1.0000
  H   H113      1.0  0.36572  0.12185  0.30824  1.0000
  H   H114      1.0  0.23582  0.18907  0.26968  1.0000
  H   H115      1.0  0.08067  0.25220  0.12983  1.0000
  H   H116      1.0  0.07712  0.22664  0.15423  1.0000
  H   H117      1.0  0.10786  0.22124  0.10435  1.0000
  H   H118      1.0  0.11693  0.27229  0.16396  1.0000
  C   C101      1.0  0.25180  0.17872  0.14653  1.0000
  C   C102      1.0  0.13735  0.26536  0.44497  1.0000
  C   C103      1.0  0.39625  0.28753  0.10888  1.0000
  H   H119      1.0  0.00449  0.26826  0.33998  1.0000
  H   H120      1.0  0.13391  0.20464  0.11903  1.0000
  H   H121      1.0  0.11443  0.01810  0.10717  1.0000
  H   H122      1.0  0.29398  0.18238  0.11518  1.0000
  H   H123      1.0  0.29688  0.15783  0.14041  1.0000
  H   H124      1.0  0.44125  0.05953  0.32333  1.0000
  H   H125      1.0  0.10458  0.19885  0.13239  1.0000
  N   N7        1.0  0.11739  0.02707  0.15943  1.0000
  H   H126      1.0  0.40240  0.03225  0.38055  1.0000
  H   H127      1.0  0.12867  0.04824  0.12275  1.0000
  C   C104      1.0  0.11518  0.21350  0.12337  1.0000
  H   H128      1.0  0.43383  0.03235  0.38048  1.0000
  N   N8        1.0  0.11386  0.23204  0.14137  1.0000
  C   C105      1.0  0.13989  0.29065  0.13471  1.0000
  H   H129      1.0  0.08517  0.25285  0.16382  1.0000
  C   C106      1.0  0.08815  0.24139  0.14758  1.0000
  C   C107      1.0  0.12722  0.25220  0.13004  1.0000
  H   H130      1.0  0.11498  0.20394  0.17462  1.0000
  H   H131      1.0  0.14333  0.21379  0.16224  1.0000
  C   C108      1.0  0.18125  0.29870  0.23227  1.0000
  C   C109      1.0  0.10135  0.01101  0.12221  1.0000
  C   C110      1.0  0.41873  0.03733  0.36785  1.0000
  H   H132      1.0  0.39946  0.10892  0.33463  1.0000
  S   S37       1.0  0.01151  0.99860  0.03675  1.0000
  H   H133      1.0  0.34114  0.09250  0.29879  1.0000
  H   H134      1.0  0.02405  0.27188  0.31027  1.0000
  C   C111      1.0  0.44398  0.30142  0.12030  1.0000
  H   H135      1.0  0.14296  0.02025  0.18841  1.0000
  H   H136      1.0  0.45998  0.31099  0.11465  1.0000
  H   H137      1.0  0.14924  0.04407  0.14714  1.0000
  H   H138      1.0  0.42286  0.02600  0.35147  1.0000
  C   C112      1.0  0.26069  0.04038  0.40644  1.0000
  C   C113      1.0  0.10025  0.01431  0.14935  1.0000
  C   C114      1.0  0.36161  0.06233  0.31996  1.0000
  H   H139      1.0  0.12377  0.30058  0.37486  1.0000
  C   C115      1.0  0.12946  0.01128  0.18096  1.0000
  C   C116      1.0  0.14120  0.25295  0.10496  1.0000
  C   C117      1.0  0.99257  0.06100  0.04574  1.0000
  C   C118      1.0  0.39520  0.07089  0.34133  1.0000
  C   C119      1.0  0.01670  0.20560  0.25561  1.0000
  C   C120      1.0  0.11593  0.30367  0.42803  1.0000
  H   H140      1.0  0.37279  0.26286  0.10256  1.0000
  C   C121      1.0  0.13421  0.29971  0.46884  1.0000
  S   S38       1.0  0.46437  0.03621  0.42334  1.0000
  H   H141      1.0  0.25653  0.02272  0.41679  1.0000
  C   C122      1.0  0.45715  0.98900  0.43323  1.0000
  C   C123      1.0  0.15363  0.29070  0.11021  1.0000
  H   H142      1.0  0.16532  0.27187  0.07652  1.0000
  H   H143      1.0  0.27323  0.26254  0.32212  1.0000
  H   H144      1.0  0.42643  0.07096  0.39405  1.0000
  N   N9        1.0  0.41558  0.06335  0.35757  1.0000
  C   C124      1.0  0.41189  0.07675  0.38081  1.0000
  C   C125      1.0  0.37648  0.27505  0.11545  1.0000
  H   H145      1.0  0.44452  0.29299  0.14129  1.0000
  C   C126      1.0  0.23407  0.05883  0.44066  1.0000
  C   C127      1.0  0.12101  0.31371  0.44961  1.0000
  C   C128      1.0  0.02714  0.22553  0.33082  1.0000
  H   H146      1.0  0.00080  0.99419  0.98010  1.0000
  H   H147      1.0  0.27949  0.03753  0.39697  1.0000
  C   C129      1.0  0.09110  0.27304  0.40150  1.0000
  H   H148      1.0  0.18754  0.30781  0.24659  1.0000
  H   H149      1.0  0.08574  0.26550  0.38464  1.0000
  H   H150      1.0  0.99191  0.27669  0.30915  1.0000
  C   C130      1.0  0.01394  0.25289  0.26597  1.0000
  H   H151      1.0  0.01230  0.19568  0.29730  1.0000
  H   H152      1.0  0.26991  0.01748  0.45748  1.0000
  H   H153      1.0  0.99315  0.04393  0.05950  1.0000
  H   H154      1.0  0.25366  0.09790  0.41996  1.0000
  C   C131      1.0  0.00693  0.26516  0.31878  1.0000
  C   C132      1.0  0.08136  0.00514  0.16684  1.0000
  H   H155      1.0  0.21901  0.06293  0.42795  1.0000
  N   N10       1.0  0.42141  0.31803  0.11696  1.0000
  C   C133      1.0  0.14247  0.27563  0.46646  1.0000
  H   H156      1.0  0.10583  0.31542  0.41358  1.0000
  C   C134      1.0  0.06472  0.99337  0.15777  1.0000
  H   H157      1.0  0.08556  0.99710  0.09258  1.0000
  C   C135      1.0  0.05993  0.31836  0.35647  1.0000
  H   H158      1.0  0.99300  0.10970  0.03666  1.0000
  H   H159      1.0  0.16443  0.30492  0.10300  1.0000
  H   H160      1.0  0.23237  0.04109  0.45259  1.0000
  C   C136      1.0  0.08477  0.99895  0.11344  1.0000
  H   H161      1.0  0.23133  0.07243  0.45474  1.0000
  C   C137      1.0  0.06647  0.99022  0.13114  1.0000
  H   H162      1.0  0.98769  0.05722  0.02655  1.0000
  H   H163      1.0  0.01334  0.27150  0.26846  1.0000
  H   H164      1.0  0.13887  0.99430  0.17393  1.0000
  H   H165      1.0  0.09451  0.31723  0.33368  1.0000
  H   H166      1.0  0.05004  0.98707  0.17128  1.0000
  H   H167      1.0  0.30519  0.99487  0.68320  1.0000
  H   H168      1.0  0.30245  0.00809  0.48608  1.0000
  S   S39       1.0  0.41642  0.08735  0.52912  1.0000
  H   H169      1.0  0.39409  0.09637  0.63210  1.0000
  H   H170      1.0  0.47589  0.01780  0.61530  1.0000
  H   H171      1.0  0.42131  0.01105  0.56755  1.0000
  H   H172      1.0  0.48182  0.00266  0.58682  1.0000
  H   H173      1.0  0.42423  0.07036  0.65848  1.0000
  H   H174      1.0  0.38650  0.08550  0.58913  1.0000
  H   H175      1.0  0.44202  0.99582  0.63423  1.0000
  H   H176      1.0  0.45182  0.99805  0.56118  1.0000
  C   C138      1.0  0.39948  0.07404  0.60087  1.0000
  N   N11       1.0  0.44447  0.01687  0.59562  1.0000
  C   C139      1.0  0.45648  0.08522  0.55494  1.0000
  C   C140      1.0  0.44725  0.08070  0.53232  1.0000
  C   C141      1.0  0.44017  0.01389  0.56837  1.0000
  H   H177      1.0  0.45582  0.06699  0.49477  1.0000
  H   H178      1.0  0.44458  0.09329  0.57041  1.0000
  H   H179      1.0  0.37051  0.03118  0.53691  1.0000
  C   C142      1.0  0.37002  0.01113  0.57590  1.0000
  C   C143      1.0  0.43012  0.03847  0.60551  1.0000
  H   H180      1.0  0.40788  0.04982  0.57251  1.0000
  C   C144      1.0  0.43370  0.04502  0.63025  1.0000
  C   C145      1.0  0.40385  0.08022  0.62494  1.0000
  C   C146      1.0  0.37006  0.01368  0.54828  1.0000
  H   H181      1.0  0.28871  0.99298  0.65604  1.0000
  H   H182      1.0  0.47539  0.03486  0.58310  1.0000
  C   C147      1.0  0.99020  0.99791  0.93037  1.0000
  H   H183      1.0  0.32071  0.99284  0.65093  1.0000
  H   H184      1.0  0.37038  0.02665  0.58571  1.0000
  H   H185      1.0  0.41925  0.99343  0.61420  1.0000
  C   C148      1.0  0.47045  0.01812  0.59518  1.0000
  C   C149      1.0  0.46268  0.07026  0.51243  1.0000
  Fe  Fe20      1.0  0.40768  0.07071  0.49507  1.0000
  S   S40       1.0  0.37007  0.06618  0.48981  1.0000
  H   H186      1.0  0.44401  0.02991  0.55399  1.0000
  C   C150      1.0  0.42083  0.06564  0.63969  1.0000
  C   C151      1.0  0.46447  0.99101  0.68017  1.0000
  Fe  Fe21      1.0  0.38635  0.02886  0.48295  1.0000
  C   C152      1.0  0.41218  0.05337  0.59134  1.0000
  H   H187      1.0  0.44659  0.03429  0.64251  1.0000
  S   S41       1.0  0.42320  0.03242  0.49164  1.0000
  C   C153      1.0  0.43856  0.99521  0.61354  1.0000
  H   H188      1.0  0.00661  0.00402  0.91881  1.0000
  C   C154      1.0  0.48118  0.07937  0.55750  1.0000
  C   C155      1.0  0.29940  0.02567  0.47455  1.0000
  C   C156      1.0  0.31425  0.04260  0.47612  1.0000
  S   S42       1.0  0.36916  0.99671  0.50112  1.0000
  C   C157      1.0  0.36996  0.98846  0.59074  1.0000
  H   H189      1.0  0.45138  0.00405  0.68945  1.0000
  H   H190      1.0  0.32868  0.03809  0.48877  1.0000
  H   H191      1.0  0.15288  0.26483  0.48140  1.0000
  C   C158      1.0  0.36896  0.99374  0.53564  1.0000
  H   H192      1.0  0.13806  0.30754  0.48561  1.0000
  H   H193      1.0  0.02747  0.98739  0.95879  1.0000
  C   C159      1.0  0.30576  0.98624  0.66499  1.0000
  Fe  Fe22      1.0  0.41119  0.44227  0.12304  1.0000
  S   S43       1.0  0.42785  0.43758  0.08185  1.0000
  S   S44       1.0  0.41727  0.47619  0.13768  1.0000
  Fe  Fe23      1.0  0.38489  0.39835  0.12683  1.0000
  S   S45       1.0  0.39967  0.39100  0.08566  1.0000
  S   S46       1.0  0.35907  0.37582  0.15249  1.0000
  Fe  Fe24      1.0  0.43411  0.39856  0.09724  1.0000
  C   C160      1.0  0.46269  0.64174  0.07416  1.0000
  Fe  Fe25      1.0  0.39170  0.43069  0.07496  1.0000
  S   S47       1.0  0.37626  0.44815  0.03769  1.0000
  S   S48       1.0  0.42026  0.40342  0.13933  1.0000
  S   S49       1.0  0.37415  0.43776  0.11523  1.0000
  H   H194      1.0  0.33703  0.44358  0.07620  1.0000
  Fe  Fe26      1.0  0.41541  0.61346  0.99445  1.0000
  H   H195      1.0  0.15481  0.45332  0.39577  1.0000
  H   H196      1.0  0.40245  0.54994  0.06827  1.0000
  Fe  Fe27      1.0  0.38304  0.57467  0.00948  1.0000
  H   H197      1.0  0.46113  0.55774  0.17998  1.0000
  S   S50       1.0  0.35861  0.55953  0.04322  1.0000
  C   C161      1.0  0.42169  0.32880  0.08870  1.0000
  H   H198      1.0  0.13636  0.46944  0.43221  1.0000
  C   C162      1.0  0.08287  0.32485  0.34951  1.0000
  S   S51       1.0  0.41934  0.57789  0.01917  1.0000
  C   C163      1.0  0.46480  0.46017  0.14488  1.0000
  C   C164      1.0  0.42108  0.33787  0.13300  1.0000
  H   H199      1.0  0.48337  0.52400  0.12684  1.0000
  H   H200      1.0  0.44117  0.37843  0.04447  1.0000
  Fe  Fe28      1.0  0.06143  0.39077  0.43001  1.0000
  S   S52       1.0  0.02697  0.38125  0.45295  1.0000
  S   S53       1.0  0.08775  0.36975  0.40225  1.0000
  Fe  Fe29      1.0  0.01325  0.42031  0.44206  1.0000
  H   H201      1.0  0.45922  0.52663  0.04915  1.0000
  H   H202      1.0  0.11967  0.39242  0.42757  1.0000
  S   S54       1.0  0.04652  0.42891  0.41621  1.0000
  C   C165      1.0  0.13674  0.43085  0.44373  1.0000
  C   C166      1.0  0.34443  0.35706  0.13726  1.0000
  C   C167      1.0  0.37753  0.56310  0.11207  1.0000
  H   H203      1.0  0.13364  0.39600  0.39466  1.0000
  H   H204      1.0  0.36881  0.57552  0.12643  1.0000
  H   H205      1.0  0.47405  0.57550  0.13457  1.0000
  C   C168      1.0  0.47650  0.46953  0.07719  1.0000
  H   H206      1.0  0.30872  0.39836  0.12482  1.0000
  C   C169      1.0  0.46629  0.37925  0.00924  1.0000
  H   H207      1.0  0.00701  0.46953  0.41826  1.0000
  C   C170      1.0  0.44103  0.57290  0.11921  1.0000
  H   H208      1.0  0.41424  0.53090  0.09597  1.0000
  H   H209      1.0  0.04187  0.51117  0.46828  1.0000
  C   C171      1.0  0.98813  0.58513  0.44956  1.0000
  C   C172      1.0  0.45627  0.57023  0.13915  1.0000
  H   H210      1.0  0.27115  0.41767  0.10799  1.0000
  H   H211      1.0  0.42443  0.47889  0.02801  1.0000
  C   C173      1.0  0.46017  0.61135  0.03676  1.0000
  H   H212      1.0  0.42319  0.33112  0.15418  1.0000
  H   H213      1.0  0.04120  0.35306  0.40623  1.0000
  H   H214      1.0  0.11104  0.45819  0.40586  1.0000
  H   H215      1.0  0.99829  0.51402  0.41076  1.0000
  H   H216      1.0  0.45989  0.59997  0.02175  1.0000
  H   H217      1.0  0.42099  0.54477  0.19049  1.0000
  C   C174      1.0  0.44743  0.47984  0.13865  1.0000
  H   H218      1.0  0.27731  0.44663  0.11190  1.0000
  H   H219      1.0  0.39514  0.60616  0.09983  1.0000
  H   H220      1.0  0.15492  0.42872  0.37791  1.0000
  H   H221      1.0  0.36613  0.56580  0.09541  1.0000
  C   C175      1.0  0.45419  0.50286  0.13271  1.0000
  H   H222      1.0  0.45970  0.44238  0.14984  1.0000
  C   C176      1.0  0.32131  0.32631  0.11385  1.0000
  H   H223      1.0  0.44090  0.51807  0.12809  1.0000
  C   C177      1.0  0.32589  0.34556  0.15189  1.0000
  S   S55       1.0  0.07498  0.47005  0.45586  1.0000
  H   H224      1.0  0.38827  0.59400  0.07160  1.0000
  S   S56       1.0  0.37739  0.61197  0.98813  1.0000
  H   H225      1.0  0.44797  0.57997  0.09952  1.0000
  S   S57       1.0  0.46948  0.37625  0.08804  1.0000
  H   H226      1.0  0.33671  0.40688  0.10939  1.0000
  H   H227      1.0  0.17271  0.42515  0.40531  1.0000
  H   H228      1.0  0.29992  0.32156  0.15155  1.0000
  C   C178      1.0  0.37025  0.47910  0.03939  1.0000
  C   C179      1.0  0.36161  0.49490  0.01803  1.0000
  C   C180      1.0  0.35784  0.51974  0.01917  1.0000
  C   C181      1.0  0.36188  0.52863  0.04204  1.0000
  C   C182      1.0  0.37007  0.51277  0.06352  1.0000
  C   C183      1.0  0.37476  0.48813  0.06193  1.0000
  H   H229      1.0  0.35829  0.48805  0.00043  1.0000
  H   H230      1.0  0.35161  0.53204  0.00246  1.0000
  H   H231      1.0  0.37341  0.51953  0.08114  1.0000
  H   H232      1.0  0.38222  0.47630  0.07811  1.0000
  C   C184      1.0  0.07603  0.35134  0.38379  1.0000
  H   H233      1.0  0.37684  0.54419  0.12132  1.0000
  C   C185      1.0  0.02324  0.50685  0.47151  1.0000
  H   H234      1.0  0.45280  0.37930  0.99606  1.0000
  H   H235      1.0  0.36490  0.36232  0.09918  1.0000
  C   C186      1.0  0.47727  0.37790  0.05370  1.0000
  C   C187      1.0  0.35103  0.35341  0.11081  1.0000
  H   H236      1.0  0.42873  0.43682  0.02254  1.0000
  H   H237      1.0  0.44469  0.42559  0.99360  1.0000
  H   H238      1.0  0.29466  0.35326  0.06429  1.0000
  C   C188      1.0  0.13522  0.39949  0.41517  1.0000
  N   N12       1.0  0.30630  0.42555  0.09048  1.0000
  C   C189      1.0  0.28035  0.43294  0.09790  1.0000
  C   C190      1.0  0.02870  0.55906  0.47079  1.0000
  C   C191      1.0  0.31727  0.44773  0.08072  1.0000
  C   C192      1.0  0.30952  0.40830  0.07084  1.0000
  C   C193      1.0  0.32289  0.41218  0.04555  1.0000
  C   C194      1.0  0.29945  0.38654  0.07702  1.0000
  C   C195      1.0  0.32576  0.39531  0.02767  1.0000
  C   C196      1.0  0.30225  0.36993  0.05890  1.0000
  C   C197      1.0  0.31544  0.37426  0.03432  1.0000
  H   H239      1.0  0.44283  0.49303  0.07875  1.0000
  H   H240      1.0  0.40407  0.35053  0.13202  1.0000
  H   H241      1.0  0.31439  0.46046  0.09576  1.0000
  C   C198      1.0  0.41774  0.56595  0.12447  1.0000
  H   H242      1.0  0.10876  0.34605  0.35776  1.0000
  H   H243      1.0  0.41590  0.44354  0.99165  1.0000
  C   C199      1.0  0.31751  0.41386  0.11456  1.0000
  C   C200      1.0  0.09089  0.34129  0.36312  1.0000
  C   C201      1.0  0.13723  0.41302  0.46632  1.0000
  H   H244      1.0  0.33155  0.42797  0.03910  1.0000
  H   H245      1.0  0.28972  0.38188  0.09615  1.0000
  H   H246      1.0  0.33622  0.39857  0.00860  1.0000
  H   H247      1.0  0.38668  0.31974  0.16168  1.0000
  H   H248      1.0  0.11452  0.33248  0.45133  1.0000
  H   H249      1.0  0.40383  0.33888  0.08459  1.0000
  H   H250      1.0  0.32054  0.34837  0.17235  1.0000
  S   S58       1.0  0.07616  0.39990  0.46537  1.0000
  C   C202      1.0  0.11211  0.43836  0.40732  1.0000
  C   C203      1.0  0.43304  0.44140  0.00079  1.0000
  N   N13       1.0  0.13489  0.42545  0.41668  1.0000
  C   C204      1.0  0.15521  0.43352  0.39817  1.0000
  C   C205      1.0  0.41326  0.54941  0.08505  1.0000
  H   H251      1.0  0.46335  0.45709  0.02917  1.0000
  C   C206      1.0  0.42807  0.48312  0.00609  1.0000
  C   C207      1.0  0.44589  0.63388  0.03563  1.0000
  S   S59       1.0  0.42687  0.64388  0.01054  1.0000
  C   C208      1.0  0.47826  0.50623  0.13200  1.0000
  C   C209      1.0  0.41086  0.55579  0.15089  1.0000
  H   H252      1.0  0.41847  0.59542  0.07560  1.0000
  C   C210      1.0  0.05282  0.34537  0.39034  1.0000
  C   C211      1.0  0.40108  0.59179  0.08689  1.0000
  C   C212      1.0  0.44900  0.56025  0.16478  1.0000
  C   C213      1.0  0.46153  0.49100  0.07062  1.0000
  N   N14       1.0  0.40251  0.56758  0.10267  1.0000
  H   H253      1.0  0.43171  0.55230  0.07640  1.0000
  H   H254      1.0  0.09654  0.43338  0.42130  1.0000
  H   H255      1.0  0.27112  0.44076  0.08003  1.0000
  H   H256      1.0  0.39391  0.54915  0.15667  1.0000
  H   H257      1.0  0.01008  0.61299  0.43592  1.0000
  C   C214      1.0  0.42636  0.55305  0.17064  1.0000
  C   C215      1.0  0.98698  0.56218  0.46341  1.0000
  Fe  Fe30      1.0  0.43331  0.56321  0.98134  1.0000
  H   H258      1.0  0.13616  0.39443  0.46513  1.0000
  C   C216      1.0  0.13761  0.45477  0.44817  1.0000
  C   C217      1.0  0.45971  0.37876  0.03661  1.0000
  C   C218      1.0  0.04478  0.32893  0.37666  1.0000
  C   C219      1.0  0.44726  0.64903  0.05435  1.0000
  H   H259      1.0  0.02695  0.32408  0.38211  1.0000
  H   H260      1.0  0.10939  0.43408  0.38748  1.0000
  Fe  Fe31      1.0  0.05841  0.43721  0.45350  1.0000
  H   H261      1.0  0.15209  0.38863  0.42144  1.0000
  C   C220      1.0  0.47073  0.50998  0.05436  1.0000
  H   H262      1.0  0.04604  0.59002  0.45507  1.0000
  H   H263      1.0  0.31785  0.36111  0.02054  1.0000
  H   H264      1.0  0.30969  0.45759  0.06255  1.0000
  H   H265      1.0  0.43523  0.34145  0.08312  1.0000
  H   H266      1.0  0.41029  0.48609  0.99828  1.0000
  C   C221      1.0  0.98867  0.47825  0.42017  1.0000
  N   N15       1.0  0.44450  0.46353  0.99427  1.0000
  C   C222      1.0  0.46699  0.45990  0.00719  1.0000
  H   H267      1.0  0.34516  0.33502  0.07883  1.0000
  C   C223      1.0  0.02959  0.58215  0.45719  1.0000
  S   S60       1.0  0.46629  0.53733  0.98958  1.0000
  H   H268      1.0  0.43607  0.34856  0.12591  1.0000
  H   H269      1.0  0.47664  0.47584  0.00168  1.0000
  C   C224      1.0  0.47719  0.61943  0.07514  1.0000
  C   C225      1.0  0.00937  0.59512  0.44648  1.0000
  H   H270      1.0  0.46854  0.45595  0.09078  1.0000
  C   C226      1.0  0.47590  0.60413  0.05646  1.0000
  C   C227      1.0  0.31425  0.33029  0.14018  1.0000
  H   H271      1.0  0.43577  0.50030  0.00219  1.0000
  H   H272      1.0  0.31682  0.42643  0.12945  1.0000
  H   H273      1.0  0.47943  0.44389  0.00164  1.0000
  C   C228      1.0  0.33970  0.33794  0.09924  1.0000
  H   H274      1.0  0.01721  0.50784  0.45154  1.0000
  C   C229      1.0  0.13899  0.46044  0.47351  1.0000
  C   C230      1.0  0.30556  0.62165  0.90673  1.0000
  C   C231      1.0  0.07123  0.61229  0.58284  1.0000
  Fe  Fe32      1.0  0.39383  0.59398  0.95261  1.0000
  S   S61       1.0  0.03670  0.37875  0.52986  1.0000
  Fe  Fe33      1.0  0.03134  0.52664  0.62566  1.0000
  S   S62       1.0  0.06957  0.51269  0.63233  1.0000
  C   C232      1.0  0.47920  0.53006  0.93736  1.0000
  Fe  Fe34      1.0  0.04501  0.55584  0.57351  1.0000
  S   S63       1.0  0.08441  0.54474  0.57535  1.0000
  S   S64       1.0  0.03079  0.58077  0.53934  1.0000
  Fe  Fe35      1.0  0.07408  0.50818  0.58915  1.0000
  S   S65       1.0  0.09225  0.47400  0.57437  1.0000
  Fe  Fe36      1.0  0.07629  0.55060  0.61822  1.0000
  S   S66       1.0  0.10169  0.56852  0.63674  1.0000
  S   S67       1.0  0.03515  0.51867  0.58375  1.0000
  S   S68       1.0  0.03753  0.56497  0.61500  1.0000
  C   C233      1.0  0.05834  0.65096  0.55890  1.0000
  H   H275      1.0  0.09400  0.64780  0.58935  1.0000
  C   C234      1.0  0.19403  0.64976  0.81364  1.0000
  C   C235      1.0  0.08150  0.42839  0.62389  1.0000
  H   H276      1.0  0.46360  0.54273  0.93243  1.0000
  C   C236      1.0  0.04874  0.40532  0.62428  1.0000
  H   H277      1.0  0.09688  0.60444  0.87864  1.0000
  H   H278      1.0  0.06187  0.55892  0.70302  1.0000
  H   H279      1.0  0.05232  0.44380  0.58619  1.0000
  C   C237      1.0  0.98837  0.48175  0.63406  1.0000
  C   C238      1.0  0.03254  0.39325  0.64307  1.0000
  H   H280      1.0  0.09022  0.61161  0.57391  1.0000
  H   H281      1.0  0.30104  0.60169  0.97275  1.0000
  H   H282      1.0  0.09020  0.41379  0.63793  1.0000
  H   H283      1.0  0.46557  0.48022  0.88803  1.0000
  H   H284      1.0  0.07637  0.43401  0.50178  1.0000
  C   C239      1.0  0.02627  0.37130  0.63915  1.0000
  C   C240      1.0  0.46078  0.47671  0.90924  1.0000
  H   H285      1.0  0.09500  0.52680  0.69343  1.0000
  H   H286      1.0  0.02255  0.61831  0.57065  1.0000
  C   C241      1.0  0.08350  0.45162  0.53371  1.0000
  C   C242      1.0  0.08681  0.47330  0.54161  1.0000
  C   C243      1.0  0.08600  0.49413  0.52325  1.0000
  H   H287      1.0  0.13824  0.40522  0.50870  1.0000
  H   H288      1.0  0.00441  0.53348  0.52692  1.0000
  H   H289      1.0  0.08422  0.43544  0.54777  1.0000
  H   H290      1.0  0.08866  0.51090  0.52927  1.0000
  H   H291      1.0  0.11313  0.59468  0.79490  1.0000
  C   C244      1.0  0.00653  0.37619  0.54049  1.0000
  H   H292      1.0  0.34496  0.59202  0.96244  1.0000
  H   H293      1.0  0.05866  0.36415  0.57983  1.0000
  H   H294      1.0  0.13967  0.44723  0.51493  1.0000
  C   C245      1.0  0.47192  0.45629  0.92371  1.0000
  C   C246      1.0  0.07912  0.45079  0.50759  1.0000
  C   C247      1.0  0.34496  0.60646  0.92118  1.0000
  H   H295      1.0  0.13460  0.64305  0.92185  1.0000
  H   H296      1.0  0.12853  0.61111  0.72220  1.0000
  H   H297      1.0  0.03072  0.34389  0.61340  1.0000
  H   H298      1.0  0.12638  0.56719  0.78285  1.0000
  C   C248      1.0  0.00006  0.57916  0.54121  1.0000
  H   H299      1.0  0.06660  0.58931  0.72961  1.0000
  H   H300      1.0  0.12491  0.60449  0.91193  1.0000
  H   H301      1.0  0.03586  0.62179  0.67856  1.0000
  C   C249      1.0  0.10464  0.60669  0.66268  1.0000
  C   C250      1.0  0.08939  0.59262  0.65452  1.0000
  C   C251      1.0  0.06458  0.59815  0.66033  1.0000
  C   C252      1.0  0.05508  0.61773  0.67397  1.0000
  H   H302      1.0  0.14053  0.64089  0.84876  1.0000
  H   H303      1.0  0.12386  0.60245  0.65826  1.0000
  H   H304      1.0  0.05268  0.58719  0.65470  1.0000
  C   C253      1.0  0.30920  0.60577  0.95266  1.0000
  H   H305      1.0  0.47525  0.43567  0.96136  1.0000
  S   S69       1.0  0.26419  0.62622  0.94146  1.0000
  H   H306      1.0  0.02482  0.44723  0.60750  1.0000
  H   H307      1.0  0.06937  0.40278  0.58552  1.0000
  H   H308      1.0  0.08961  0.42567  0.60347  1.0000
  N   N16       1.0  0.05504  0.42904  0.62718  1.0000
  H   H309      1.0  0.07887  0.64173  0.85516  1.0000
  C   C254      1.0  0.46639  0.45202  0.95117  1.0000
  C   C255      1.0  0.99221  0.36837  0.52411  1.0000
  H   H310      1.0  0.02418  0.48783  0.48090  1.0000
  H   H311      1.0  0.01331  0.36285  0.65340  1.0000
  H   H312      1.0  0.13317  0.52397  0.71297  1.0000
  C   C256      1.0  0.98715  0.58890  0.51973  1.0000
  H   H313      1.0  0.13874  0.55321  0.74130  1.0000
  H   H314      1.0  0.09444  0.57285  0.79093  1.0000
  C   C257      1.0  0.04450  0.44721  0.60651  1.0000
  H   H315      1.0  0.10689  0.63768  0.68165  1.0000
  C   C258      1.0  0.07916  0.47137  0.48895  1.0000
  H   H316      1.0  0.02389  0.40063  0.66068  1.0000
  H   H317      1.0  0.43572  0.50906  0.91088  1.0000
  H   H318      1.0  0.13254  0.61775  0.75461  1.0000
  H   H319      1.0  0.33870  0.62032  0.88087  1.0000
  C   C259      1.0  0.43877  0.48915  0.94974  1.0000
  C   C260      1.0  0.01807  0.62611  0.58891  1.0000
  H   H320      1.0  0.48454  0.58632  0.96609  1.0000
  H   H321      1.0  0.99577  0.59894  0.50261  1.0000
  C   C261      1.0  0.12194  0.64296  0.90766  1.0000
  C   C262      1.0  0.09508  0.62652  0.67607  1.0000
  C   C263      1.0  0.04610  0.43710  0.65339  1.0000
  H   H322      1.0  0.08676  0.44568  0.62732  1.0000
  C   C264      1.0  0.05790  0.39418  0.60132  1.0000
  H   H323      1.0  0.00737  0.38894  0.57785  1.0000
  H   H324      1.0  0.99657  0.46716  0.56458  1.0000
  H   H325      1.0  0.05158  0.45474  0.65518  1.0000
  H   H326      1.0  0.05298  0.42393  0.66992  1.0000
  C   C265      1.0  0.13848  0.41894  0.49162  1.0000
  H   H327      1.0  0.02623  0.43986  0.65644  1.0000
  C   C266      1.0  0.44991  0.46850  0.96513  1.0000
  C   C267      1.0  0.01581  0.52089  0.51433  1.0000
  H   H328      1.0  0.08435  0.62255  0.73570  1.0000
  C   C268      1.0  0.33414  0.60049  0.94688  1.0000
  S   S70       1.0  0.37642  0.60363  0.91469  1.0000
  C   C269      1.0  0.07023  0.63217  0.68154  1.0000
  C   C270      1.0  0.02729  0.64705  0.62338  1.0000
  H   H329      1.0  0.29466  0.62953  0.89108  1.0000
  C   C271      1.0  0.15342  0.64418  0.83176  1.0000
  C   C272      1.0  0.33053  0.61628  0.90093  1.0000
  H   H330      1.0  0.01559  0.50238  0.52491  1.0000
  C   C273      1.0  0.99659  0.38230  0.56540  1.0000
  C   C274      1.0  0.09032  0.64302  0.87002  1.0000
  C   C275      1.0  0.29491  0.61697  0.93277  1.0000
  C   C276      1.0  0.16331  0.65124  0.78421  1.0000
  H   H331      1.0  0.04766  0.46563  0.60871  1.0000
  C   C277      1.0  0.03600  0.36064  0.61666  1.0000
  C   C278      1.0  0.05181  0.37205  0.59781  1.0000
  H   H332      1.0  0.99187  0.48185  0.69982  1.0000
  C   C279      1.0  0.98874  0.47560  0.68177  1.0000
  H   H333      1.0  0.09118  0.62663  0.76760  1.0000
  H   H334      1.0  0.14607  0.59000  0.74423  1.0000
  H   H335      1.0  0.06197  0.60335  0.57000  1.0000
  N   N17       1.0  0.10749  0.59281  0.75446  1.0000
  C   C280      1.0  0.08744  0.61297  0.75580  1.0000
  C   C281      1.0  0.11049  0.58134  0.78196  1.0000
  C   C282      1.0  0.12958  0.60331  0.74334  1.0000
  C   C283      1.0  0.10347  0.57459  0.73819  1.0000
  C   C284      1.0  0.08155  0.57525  0.72718  1.0000
  C   C285      1.0  0.12177  0.55520  0.73319  1.0000
  C   C286      1.0  0.07852  0.55782  0.71173  1.0000
  C   C287      1.0  0.11869  0.53818  0.71725  1.0000
  C   C288      1.0  0.09716  0.53960  0.70639  1.0000
  H   H336      1.0  0.07043  0.60678  0.76551  1.0000
  S   S71       1.0  0.21069  0.64463  0.89729  1.0000
  C   C289      1.0  0.44407  0.49297  0.92217  1.0000
  C   C290      1.0  0.14646  0.64707  0.80617  1.0000
  C   C291      1.0  0.18724  0.65207  0.78795  1.0000
  C   C292      1.0  0.99264  0.48978  0.65737  1.0000
  C   C293      1.0  0.10071  0.62134  0.88331  1.0000
  H   H337      1.0  0.18214  0.64412  0.85535  1.0000
  H   H338      1.0  0.99980  0.36363  0.50483  1.0000
  C   C294      1.0  0.11653  0.62131  0.90203  1.0000
  N   N18       1.0  0.05967  0.63718  0.58570  1.0000
  H   H339      1.0  0.03458  0.52453  0.51339  1.0000
  C   C295      1.0  0.98797  0.63486  0.62531  1.0000
  C   C296      1.0  0.98875  0.56657  0.56357  1.0000
  S   S72       1.0  0.11650  0.64612  0.80192  1.0000
  N   N19       1.0  0.00714  0.52343  0.48778  1.0000
  H   H340      1.0  0.04497  0.54965  0.47842  1.0000
  C   C297      1.0  0.99495  0.62501  0.60173  1.0000
  H   H341      1.0  0.42617  0.50284  0.95848  1.0000
  S   S73       1.0  0.43173  0.59931  0.95674  1.0000
  S   S74       1.0  0.00151  0.51797  0.65689  1.0000
  C   C298      1.0  0.48458  0.52479  0.96365  1.0000
  H   H342      1.0  0.99837  0.55945  0.58050  1.0000
  H   H343      1.0  0.07137  0.60104  0.60247  1.0000
  C   C299      1.0  0.00407  0.64594  0.63603  1.0000
  C   C300      1.0  0.13939  0.44258  0.49520  1.0000
  H   H344      1.0  0.07759  0.63841  0.62007  1.0000
  C   C301      1.0  0.03512  0.63681  0.59951  1.0000
  C   C302      1.0  0.08271  0.49304  0.49679  1.0000
  H   H345      1.0  0.08293  0.50899  0.48243  1.0000
  S   S75       1.0  0.02383  0.43219  0.47807  1.0000
  C   C303      1.0  0.17703  0.64602  0.83550  1.0000
  H   H346      1.0  0.99114  0.49286  0.61525  1.0000
  C   C304      1.0  0.07555  0.64825  0.59985  1.0000
  Fe  Fe37      1.0  0.04038  0.39402  0.48701  1.0000
  H   H347      1.0  0.04862  0.64237  0.54615  1.0000
  H   H348      1.0  0.13884  0.47895  0.47653  1.0000
  S   S76       1.0  0.39708  0.55621  0.97383  1.0000
  C   C305      1.0  0.00732  0.54834  0.47437  1.0000
  H   H349      1.0  0.05257  0.84745  0.01063  1.0000
  C   C306      1.0  0.46493  0.96422  0.43460  1.0000
  C   C307      1.0  0.08452  0.79202  0.00043  1.0000
  S   S77       1.0  0.04018  0.93423  0.02552  1.0000
  H   H350      1.0  0.12307  0.78654  0.00371  1.0000
  H   H351      1.0  0.47722  0.88183  0.46805  1.0000
  C   C308      1.0  0.11228  0.75501  0.99420  1.0000
  H   H352      1.0  0.08380  0.83654  0.03861  1.0000
  H   H353      1.0  0.99640  0.91943  0.01344  1.0000
  H   H354      1.0  0.01559  0.96402  0.98233  1.0000
  C   C309      1.0  0.09531  0.83196  0.98653  1.0000
  C   C310      1.0  0.08747  0.81797  0.03308  1.0000
  C   C311      1.0  0.05415  0.90298  0.98881  1.0000
  H   H355      1.0  0.09745  0.72605  0.98267  1.0000
  H   H356      1.0  0.11486  0.82576  0.98677  1.0000
  C   C312      1.0  0.10785  0.77861  0.00019  1.0000
  H   H357      1.0  0.04895  0.82978  0.98585  1.0000
  C   C313      1.0  0.07056  0.75658  0.98843  1.0000
  Fe  Fe38      1.0  0.00909  0.95906  0.04308  1.0000
  S   S78       1.0  0.99853  0.95839  0.08691  1.0000
  C   C314      1.0  0.06586  0.78015  0.99463  1.0000
  H   H358      1.0  0.07221  0.90602  0.99054  1.0000
  H   H359      1.0  0.07745  0.80623  0.04844  1.0000
  C   C315      1.0  0.01143  0.91082  0.00156  1.0000
  H   H360      1.0  0.09232  0.85115  0.98989  1.0000
  N   N20       1.0  0.08046  0.81718  0.00634  1.0000
  H   H361      1.0  0.04761  0.78888  0.99390  1.0000
  C   C316      1.0  0.03473  0.91472  0.00396  1.0000
  H   H362      1.0  0.98949  0.89244  0.98217  1.0000
  H   H363      1.0  0.47720  0.66337  0.98737  1.0000
  H   H364      1.0  0.43636  0.66648  0.05350  1.0000
  H   H365      1.0  0.04282  0.81884  0.02069  1.0000
  C   C317      1.0  0.05509  0.82866  0.00587  1.0000
  H   H366      1.0  0.10694  0.81193  0.03430  1.0000
  C   C318      1.0  0.00756  0.89543  0.98394  1.0000
  H   H367      1.0  0.13041  0.74545  0.99322  1.0000
  H   H368      1.0  0.45205  0.95165  0.43953  1.0000
  H   H369      1.0  0.05313  0.98169  0.12402  1.0000
  C   C319      1.0  0.09372  0.74408  0.98815  1.0000
  H   H370      1.0  0.05624  0.74814  0.98323  1.0000
  H   H371      1.0  0.46365  0.65360  0.08858  1.0000
  Fe  Fe39      1.0  0.05186  0.84641  0.92104  1.0000
  S   S79       1.0  0.08857  0.85729  0.90994  1.0000
  C   C320      1.0  0.23077  0.68881  0.71129  1.0000
  Fe  Fe40      1.0  0.06304  0.80365  0.88935  1.0000
  S   S80       1.0  0.10044  0.81086  0.87537  1.0000
  S   S81       1.0  0.04810  0.77147  0.88120  1.0000
  Fe  Fe41      1.0  0.10156  0.81772  0.91708  1.0000
  S   S82       1.0  0.13370  0.80161  0.93816  1.0000
  Fe  Fe42      1.0  0.08402  0.84946  0.86940  1.0000
  S   S83       1.0  0.09392  0.87216  0.83138  1.0000
  S   S84       1.0  0.06528  0.80746  0.93177  1.0000
  S   S85       1.0  0.04615  0.84176  0.87960  1.0000
  Fe  Fe43      1.0  0.07557  0.71841  0.75025  1.0000
  S   S86       1.0  0.11339  0.70950  0.76045  1.0000
  S   S87       1.0  0.04956  0.74922  0.76399  1.0000
  Fe  Fe44      1.0  0.08002  0.67687  0.71742  1.0000
  H   H372      1.0  0.09866  0.71765  0.83417  1.0000
  H   H373      1.0  0.99847  0.92437  0.88350  1.0000
  Fe  Fe45      1.0  0.12195  0.70405  0.71756  1.0000
  S   S88       1.0  0.15387  0.71810  0.69365  1.0000
  S   S89       1.0  0.06755  0.68063  0.76013  1.0000
  S   S90       1.0  0.08446  0.71582  0.70677  1.0000
  S   S91       1.0  0.20710  0.69950  0.86534  1.0000
  C   C321      1.0  0.24936  0.67410  0.72345  1.0000
  Fe  Fe46      1.0  0.24030  0.70277  0.88289  1.0000
  S   S92       1.0  0.25490  0.73779  0.87480  1.0000
  H   H374      1.0  0.06862  0.66742  0.60169  1.0000
  S   S93       1.0  0.11853  0.66477  0.72424  1.0000
  Fe  Fe47      1.0  0.21732  0.84720  0.76700  1.0000
  S   S94       1.0  0.25508  0.83737  0.74891  1.0000
  S   S95       1.0  0.20664  0.86214  0.80559  1.0000
  Fe  Fe48      1.0  0.19514  0.82757  0.72601  1.0000
  S   S96       1.0  0.23048  0.81585  0.70343  1.0000
  S   S97       1.0  0.15795  0.82201  0.72039  1.0000
  Fe  Fe49      1.0  0.24314  0.80301  0.74334  1.0000
  S   S98       1.0  0.26614  0.76750  0.75109  1.0000
  Fe  Fe50      1.0  0.24005  0.85118  0.71024  1.0000
  S   S99       1.0  0.26096  0.87186  0.67694  1.0000
  S   S100      1.0  0.20697  0.81118  0.76538  1.0000
  S   S101      1.0  0.20336  0.86439  0.72876  1.0000
  Fe  Fe51      1.0  0.40943  0.89986  0.62064  1.0000
  S   S102      1.0  0.42457  0.93413  0.61903  1.0000
  S   S103      1.0  0.41966  0.88008  0.58523  1.0000
  Fe  Fe52      1.0  0.38455  0.90306  0.67602  1.0000
  S   S104      1.0  0.39854  0.93717  0.67964  1.0000
  S   S105      1.0  0.36025  0.88743  0.71003  1.0000
  Fe  Fe53      1.0  0.38870  0.94815  0.63824  1.0000
  H   H375      1.0  0.45548  0.88866  0.61626  1.0000
  Fe  Fe54      1.0  0.43315  0.91973  0.66023  1.0000
  C   C322      1.0  0.42387  0.96243  0.50535  1.0000
  S   S106      1.0  0.37233  0.91541  0.63568  1.0000
  S   S107      1.0  0.42027  0.88430  0.66080  1.0000
  S   S108      1.0  0.47067  0.92130  0.66839  1.0000
  H   H376      1.0  0.20089  0.71606  0.71501  1.0000
  H   H377      1.0  0.33443  0.80421  0.74325  1.0000
  H   H378      1.0  0.09111  0.83124  0.96609  1.0000
  C   C323      1.0  0.28825  0.87692  0.68616  1.0000
  C   C324      1.0  0.30814  0.87779  0.66712  1.0000
  C   C325      1.0  0.33036  0.88070  0.67444  1.0000
  C   C326      1.0  0.33268  0.88315  0.70070  1.0000
  C   C327      1.0  0.31274  0.88243  0.71972  1.0000
  C   C328      1.0  0.29054  0.87933  0.71245  1.0000
  H   H379      1.0  0.30653  0.87556  0.64685  1.0000
  H   H380      1.0  0.34584  0.88012  0.65992  1.0000
  H   H381      1.0  0.31438  0.88454  0.74002  1.0000
  H   H382      1.0  0.27506  0.87948  0.72706  1.0000
  C   C329      1.0  0.26025  0.74579  0.84047  1.0000
  C   C330      1.0  0.25936  0.77002  0.83005  1.0000
  C   C331      1.0  0.26124  0.77676  0.80252  1.0000
  C   C332      1.0  0.26523  0.75918  0.78541  1.0000
  C   C333      1.0  0.26747  0.73489  0.79582  1.0000
  C   C334      1.0  0.26439  0.72820  0.82335  1.0000
  H   H383      1.0  0.25655  0.78363  0.84324  1.0000
  H   H384      1.0  0.25970  0.79557  0.79459  1.0000
  H   H385      1.0  0.27073  0.72128  0.78259  1.0000
  H   H386      1.0  0.26527  0.70944  0.83126  1.0000
  C   C335      1.0  0.32677  0.67111  0.94553  1.0000
  C   C336      1.0  0.37657  0.83449  0.67931  1.0000
  C   C337      1.0  0.34612  0.80829  0.66053  1.0000
  Fe  Fe55      1.0  0.22544  0.66294  0.85824  1.0000
  C   C338      1.0  0.33176  0.95176  0.68323  1.0000
  C   C339      1.0  0.15425  0.74778  0.69903  1.0000
  C   C340      1.0  0.13536  0.75935  0.71482  1.0000
  C   C341      1.0  0.13666  0.78215  0.72127  1.0000
  C   C342      1.0  0.15674  0.79358  0.71179  1.0000
  C   C343      1.0  0.17551  0.78222  0.69565  1.0000
  C   C344      1.0  0.17421  0.75934  0.68916  1.0000
  H   H387      1.0  0.11967  0.75080  0.72206  1.0000
  H   H388      1.0  0.12220  0.79078  0.73389  1.0000
  H   H389      1.0  0.19094  0.79112  0.68803  1.0000
  H   H390      1.0  0.18881  0.75048  0.67682  1.0000
  C   C345      1.0  0.12518  0.86999  0.82442  1.0000
  C   C346      1.0  0.13988  0.86727  0.84492  1.0000
  C   C347      1.0  0.16488  0.86580  0.83899  1.0000
  C   C348      1.0  0.17525  0.86614  0.81266  1.0000
  C   C349      1.0  0.16048  0.86838  0.79230  1.0000
  C   C350      1.0  0.13549  0.87072  0.79811  1.0000
  H   H391      1.0  0.13197  0.86677  0.86529  1.0000
  H   H392      1.0  0.17621  0.86399  0.85483  1.0000
  H   H393      1.0  0.16824  0.86857  0.77199  1.0000
  H   H394      1.0  0.12423  0.87280  0.78218  1.0000
  C   C351      1.0  0.13982  0.77097  0.93446  1.0000
  C   C352      1.0  0.12261  0.75972  0.92568  1.0000
  C   C353      1.0  0.12768  0.73547  0.92191  1.0000
  C   C354      1.0  0.15022  0.72254  0.92613  1.0000
  C   C355      1.0  0.16755  0.73379  0.93473  1.0000
  C   C356      1.0  0.16226  0.75795  0.93915  1.0000
  H   H395      1.0  0.10524  0.76958  0.92202  1.0000
  H   H396      1.0  0.11421  0.72686  0.91535  1.0000
  H   H397      1.0  0.17569  0.76662  0.94577  1.0000
  C   C357      1.0  0.04914  0.76686  0.84799  1.0000
  C   C358      1.0  0.07092  0.76417  0.83169  1.0000
  C   C359      1.0  0.07147  0.75773  0.80606  1.0000
  C   C360      1.0  0.05016  0.75465  0.79665  1.0000
  C   C361      1.0  0.02849  0.75771  0.81288  1.0000
  C   C362      1.0  0.02807  0.76325  0.83865  1.0000
  H   H398      1.0  0.08730  0.76655  0.83909  1.0000
  H   H399      1.0  0.08817  0.75567  0.79333  1.0000
  H   H400      1.0  0.01197  0.75553  0.80560  1.0000
  H   H401      1.0  0.01128  0.76493  0.85134  1.0000
  H   H402      1.0  0.40431  0.88015  0.50186  1.0000
  H   H403      1.0  0.47888  0.91752  0.48754  1.0000
  C   C363      1.0  0.28863  0.95169  0.68862  1.0000
  H   H404      1.0  0.45239  0.86964  0.53894  1.0000
  H   H405      1.0  0.26147  0.66135  0.71259  1.0000
  H   H406      1.0  0.33635  0.71619  0.92742  1.0000
  Fe  Fe56      1.0  0.19510  0.68188  0.90565  1.0000
  N   N21       1.0  0.32247  0.80181  0.70541  1.0000
  H   H407      1.0  0.17246  0.70023  0.77336  1.0000
  C   C364      1.0  0.29941  0.80835  0.69352  1.0000
  C   C365      1.0  0.32833  0.77530  0.70930  1.0000
  H   H408      1.0  0.31434  0.83007  0.73032  1.0000
  C   C366      1.0  0.34871  0.66857  0.89255  1.0000
  S   S109      1.0  0.15640  0.69249  0.92016  1.0000
  H   H409      1.0  0.29523  0.82811  0.68841  1.0000
  H   H410      1.0  0.28414  0.80227  0.70734  1.0000
  H   H411      1.0  0.29926  0.80007  0.67527  1.0000
  H   H412      1.0  0.31421  0.76680  0.72293  1.0000
  H   H413      1.0  0.32987  0.76758  0.69036  1.0000
  H   H414      1.0  0.33512  0.79792  0.65239  1.0000
  N   N22       1.0  0.06351  0.83490  0.78536  1.0000
  H   H415      1.0  0.35640  0.82951  0.71668  1.0000
  C   C367      1.0  0.08380  0.82491  0.80108  1.0000
  C   C368      1.0  0.05887  0.86135  0.78531  1.0000
  H   H416      1.0  0.03700  0.83043  0.81935  1.0000
  H   H417      1.0  0.07937  0.82774  0.82226  1.0000
  H   H418      1.0  0.10013  0.83350  0.79371  1.0000
  H   H419      1.0  0.08864  0.80530  0.80040  1.0000
  C   C369      1.0  0.04176  0.82508  0.79907  1.0000
  H   H420      1.0  0.05239  0.86631  0.80550  1.0000
  H   H421      1.0  0.07531  0.87002  0.77922  1.0000
  N   N23       1.0  0.19955  0.72359  0.76708  1.0000
  C   C370      1.0  0.20196  0.74858  0.75525  1.0000
  C   C371      1.0  0.17475  0.71909  0.76545  1.0000
  C   C372      1.0  0.20283  0.72144  0.79566  1.0000
  S   S110      1.0  0.02136  0.86441  0.94712  1.0000
  H   H422      1.0  0.26177  0.95559  0.75217  1.0000
  C   C373      1.0  0.42040  0.88871  0.49863  1.0000
  C   C374      1.0  0.23665  0.69203  0.76384  1.0000
  H   H423      1.0  0.44229  0.96262  0.68945  1.0000
  H   H424      1.0  0.11589  0.68861  0.83166  1.0000
  H   H425      1.0  0.19907  0.75178  0.73396  1.0000
  H   H426      1.0  0.18881  0.76191  0.76531  1.0000
  H   H427      1.0  0.22027  0.75275  0.75648  1.0000
  H   H428      1.0  0.16119  0.73109  0.77672  1.0000
  H   H429      1.0  0.24161  0.91934  0.69264  1.0000
  H   H430      1.0  0.16985  0.72227  0.74487  1.0000
  H   H431      1.0  0.46429  0.96943  0.52267  1.0000
  H   H432      1.0  0.22046  0.72625  0.79861  1.0000
  H   H433      1.0  0.18909  0.73375  0.80633  1.0000
  C   C375      1.0  0.46212  0.91030  0.49115  1.0000
  H   H434      1.0  0.26664  0.66420  0.75925  1.0000
  C   C376      1.0  0.08376  0.81724  0.70568  1.0000
  H   H435      1.0  0.47100  0.95702  0.49220  1.0000
  H   H436      1.0  0.05774  0.79269  0.71470  1.0000
  C   C377      1.0  0.31858  0.81014  0.73199  1.0000
  C   C378      1.0  0.31760  0.69838  0.87459  1.0000
  C   C379      1.0  0.09497  0.83382  0.71531  1.0000
  C   C380      1.0  0.21492  0.70501  0.72540  1.0000
  H   H437      1.0  0.06342  0.72149  0.87103  1.0000
  H   H438      1.0  0.04883  0.66949  0.56013  1.0000
  C   C381      1.0  0.46233  0.87495  0.55319  1.0000
  N   N24       1.0  0.44150  0.94358  0.51791  1.0000
  C   C382      1.0  0.26473  0.95077  0.73219  1.0000
  H   H439      1.0  0.32845  0.95609  0.63181  1.0000
  H   H440      1.0  0.28804  0.66787  0.91980  1.0000
  C   C383      1.0  0.25330  0.93051  0.69865  1.0000
  H   H441      1.0  0.30326  0.80269  0.74460  1.0000
  H   H442      1.0  0.06247  0.91996  0.92102  1.0000
  H   H443      1.0  0.27478  0.93133  0.66191  1.0000
  H   H444      1.0  0.08950  0.81236  0.68597  1.0000
  C   C384      1.0  0.35804  0.82537  0.69657  1.0000
  C   C385      1.0  0.02694  0.88387  0.96862  1.0000
  N   N25       1.0  0.18157  0.78685  0.85527  1.0000
  C   C386      1.0  0.19292  0.76395  0.86933  1.0000
  C   C387      1.0  0.20134  0.80061  0.84317  1.0000
  C   C388      1.0  0.16630  0.80059  0.87498  1.0000
  C   C389      1.0  0.16638  0.78299  0.83523  1.0000
  C   C390      1.0  0.15468  0.76225  0.83784  1.0000
  C   C391      1.0  0.16119  0.80089  0.81355  1.0000
  C   C392      1.0  0.14040  0.75895  0.81868  1.0000
  C   C393      1.0  0.14715  0.79730  0.79435  1.0000
  C   C394      1.0  0.13700  0.77625  0.79674  1.0000
  H   H445      1.0  0.20333  0.75229  0.85502  1.0000
  H   H446      1.0  0.20571  0.76698  0.88291  1.0000
  H   H447      1.0  0.17972  0.75390  0.88239  1.0000
  H   H448      1.0  0.21126  0.79281  0.82559  1.0000
  H   H449      1.0  0.21453  0.80103  0.85736  1.0000
  H   H450      1.0  0.19489  0.81977  0.83694  1.0000
  H   H451      1.0  0.15113  0.79101  0.88426  1.0000
  H   H452      1.0  0.17648  0.80350  0.89116  1.0000
  H   H453      1.0  0.15831  0.81850  0.86572  1.0000
  H   H454      1.0  0.15620  0.74843  0.85465  1.0000
  H   H455      1.0  0.16791  0.81789  0.81108  1.0000
  H   H456      1.0  0.13193  0.74288  0.82086  1.0000
  H   H457      1.0  0.14420  0.81101  0.77750  1.0000
  H   H458      1.0  0.12624  0.77354  0.78169  1.0000
  H   H459      1.0  0.42248  0.97969  0.51359  1.0000
  C   C395      1.0  0.32789  0.69510  0.84890  1.0000
  H   H460      1.0  0.27940  0.69969  0.91386  1.0000
  C   C396      1.0  0.46506  0.95263  0.51370  1.0000
  C   C397      1.0  0.07283  0.70453  0.88084  1.0000
  H   H461      1.0  0.04351  0.95026  0.94842  1.0000
  H   H462      1.0  0.11653  0.68095  0.89950  1.0000
  C   C398      1.0  0.28390  0.95827  0.71466  1.0000
  H   H463      1.0  0.04033  0.90623  0.88902  1.0000
  Fe  Fe57      1.0  0.24403  0.65241  0.91189  1.0000
  C   C399      1.0  0.25233  0.67578  0.74963  1.0000
  C   C400      1.0  0.42085  0.90956  0.50990  1.0000
  H   H464      1.0  0.07685  0.67639  0.82625  1.0000
  H   H465      1.0  0.06077  0.70476  0.83263  1.0000
  H   H466      1.0  0.44029  0.86253  0.47492  1.0000
  C   C401      1.0  0.27259  0.93763  0.68106  1.0000
  C   C402      1.0  0.36452  0.81780  0.64337  1.0000
  H   H467      1.0  0.47914  0.93919  0.52291  1.0000
  H   H468      1.0  0.22844  0.68762  0.69088  1.0000
  H   H469      1.0  0.40464  0.91658  0.52138  1.0000
  H   H470      1.0  0.11823  0.70451  0.85876  1.0000
  C   C403      1.0  0.46143  0.88953  0.47981  1.0000
  H   H471      1.0  0.10956  0.84165  0.70305  1.0000
  H   H472      1.0  0.35623  0.67575  0.82509  1.0000
  H   H473      1.0  0.05909  0.69547  0.89438  1.0000
  H   H474      1.0  0.34768  0.95668  0.66976  1.0000
  H   H475      1.0  0.43346  0.95686  0.55593  1.0000
  H   H476      1.0  0.08516  0.71005  0.89326  1.0000
  N   N26       1.0  0.30924  0.95966  0.67058  1.0000
  H   H477      1.0  0.29516  0.96909  0.72177  1.0000
  C   C404      1.0  0.45924  0.96767  0.67998  1.0000
  S   S111      1.0  0.05726  0.65736  0.69712  1.0000
  C   C405      1.0  0.03171  0.92038  0.90053  1.0000
  H   H478      1.0  0.31971  0.70536  0.83198  1.0000
  C   C406      1.0  0.31259  0.95004  0.64472  1.0000
  H   H479      1.0  0.40556  0.95725  0.50840  1.0000
  C   C407      1.0  0.37966  0.83096  0.65273  1.0000
  C   C408      1.0  0.09547  0.66543  0.87536  1.0000
  S   S112      1.0  0.26017  0.66781  0.87198  1.0000
  H   H480      1.0  0.39376  0.83856  0.63934  1.0000
  H   H481      1.0  0.36705  0.81503  0.62266  1.0000
  Fe  Fe58      1.0  0.10635  0.67138  0.76613  1.0000
  C   C409      1.0  0.04416  0.92813  0.91862  1.0000
  N   N27       1.0  0.31574  0.68831  0.92422  1.0000
  C   C410      1.0  0.00878  0.95642  0.93184  1.0000
  C   C411      1.0  0.21704  0.70679  0.75233  1.0000
  H   H482      1.0  0.34566  0.76961  0.71800  1.0000
  C   C412      1.0  0.05891  0.81200  0.74756  1.0000
  H   H483      1.0  0.04454  0.80516  0.80196  1.0000
  H   H484      1.0  0.23486  0.93072  0.73793  1.0000
  C   C413      1.0  0.06818  0.68680  0.84252  1.0000
  H   H485      1.0  0.04519  0.86979  0.77177  1.0000
  H   H486      1.0  0.09860  0.85138  0.74808  1.0000
  C   C414      1.0  0.29004  0.68521  0.92623  1.0000
  H   H487      1.0  0.44939  0.97852  0.60732  1.0000
  C   C415      1.0  0.06988  0.82896  0.75795  1.0000
  H   H488      1.0  0.30776  0.72685  0.91527  1.0000
  C   C416      1.0  0.08848  0.83934  0.74117  1.0000
  C   C417      1.0  0.44065  0.87874  0.48355  1.0000
  H   H489      1.0  0.18494  0.72384  0.93821  1.0000
  H   H490      1.0  0.02594  0.83144  0.78782  1.0000
  S   S113      1.0  0.22691  0.68812  0.92407  1.0000
  H   H491      1.0  0.05261  0.67826  0.85287  1.0000
  C   C418      1.0  0.10544  0.70044  0.84585  1.0000
  H   H492      1.0  0.33207  0.95997  0.70149  1.0000
  N   N28       1.0  0.08551  0.68878  0.86129  1.0000
  H   H493      1.0  0.24004  0.69228  0.78403  1.0000
  C   C419      1.0  0.44176  0.92102  0.50656  1.0000
  C   C420      1.0  0.35889  0.66541  0.86678  1.0000
  H   H494      1.0  0.31573  0.93003  0.64753  1.0000
  H   H495      1.0  0.04516  0.80251  0.75898  1.0000
  C   C421      1.0  0.34202  0.81215  0.68760  1.0000
  C   C422      1.0  0.32740  0.68487  0.89724  1.0000
  H   H496      1.0  0.41645  0.93413  0.55222  1.0000
  H   H497      1.0  0.30176  0.71150  0.87656  1.0000
  H   H498      1.0  0.38822  0.84495  0.68655  1.0000
  C   C423      1.0  0.45083  0.87935  0.57817  1.0000
  C   C424      1.0  0.05027  0.88766  0.97108  1.0000
  H   H499      1.0  0.20148  0.70284  0.80563  1.0000
  H   H500      1.0  0.36945  0.95085  0.58934  1.0000
  C   C425      1.0  0.24951  0.93685  0.72422  1.0000
  H   H501      1.0  0.44744  0.92623  0.55712  1.0000
  C   C426      1.0  0.46392  0.88566  0.59677  1.0000
  H   H502      1.0  0.42865  0.96596  0.48355  1.0000
  C   C427      1.0  0.43439  0.94006  0.54695  1.0000
  H   H503      1.0  0.33454  0.93197  0.68872  1.0000
  H   H504      1.0  0.36758  0.95566  0.54088  1.0000
  C   C428      1.0  0.06592  0.80622  0.72186  1.0000
  H   H505      1.0  0.29688  0.95628  0.63330  1.0000
  C   C429      1.0  0.34844  0.67853  0.84500  1.0000
  C   C430      1.0  0.31731  0.71295  0.92938  1.0000
  C   C431      1.0  0.36948  0.96841  0.57803  1.0000
  C   C432      1.0  0.03294  0.94572  0.93427  1.0000
  H   H506      1.0  0.03881  0.65573  0.63301  1.0000
  H   H507      1.0  0.06526  0.87896  0.95919  1.0000
  C   C433      1.0  0.36846  0.97113  0.55057  1.0000
  C   C434      1.0  0.01076  0.98031  0.96809  1.0000
  C   C435      1.0  0.99682  0.94849  0.91272  1.0000
  C   C436      1.0  0.47620  0.95080  0.66803  1.0000
  C   C437      1.0  0.11151  0.66468  0.89466  1.0000
  H   H508      1.0  0.30909  0.71612  0.94969  1.0000
  C   C438      1.0  0.00811  0.93058  0.89753  1.0000
  H   H509      1.0  0.34574  0.67339  0.94655  1.0000
  H   H510      1.0  0.32622  0.65222  0.94252  1.0000
  H   H511      1.0  0.28115  0.68518  0.94688  1.0000
  N   N29       1.0  0.99626  0.97517  0.94795  1.0000
  H   H512      1.0  0.20037  0.65499  0.77098  1.0000
  H   H513      1.0  0.35760  0.65744  0.90840  1.0000
  H   H514      1.0  0.31710  0.67341  0.96549  1.0000
  H   H515      1.0  0.99867  0.65358  0.65444  1.0000
  S   S114      1.0  0.37102  0.98520  0.62505  1.0000
  H   H516      1.0  0.37470  0.65223  0.86385  1.0000
  S   S115      1.0  0.22356  0.65225  0.81824  1.0000
  H   H517      1.0  0.07652  0.65234  0.54822  1.0000
  H   H518      1.0  0.15804  0.65356  0.76434  1.0000
  C   C439      1.0  0.95106  0.07272  0.06120  1.0000
  C   C440      1.0  0.89520  0.01742  0.98768  1.0000
  H   H519      1.0  0.51102  0.00906  0.41509  1.0000
  H   H520      1.0  0.92382  0.00126  0.01143  1.0000
  S   S116      1.0  0.95892  0.00537  0.07176  1.0000
  H   H521      1.0  0.90782  0.06156  0.02509  1.0000
  C   C441      1.0  0.50657  0.09900  0.45212  1.0000
  C   C442      1.0  0.93901  0.07081  0.03909  1.0000
  C   C443      1.0  0.91645  0.06318  0.04236  1.0000
  H   H522      1.0  0.88797  0.05069  0.07006  1.0000
  C   C444      1.0  0.93921  0.06609  0.08679  1.0000
  C   C445      1.0  0.93360  0.03196  0.98472  1.0000
  H   H523      1.0  0.98033  0.23620  0.34897  1.0000
  H   H524      1.0  0.94721  0.07448  0.01899  1.0000
  C   C446      1.0  0.91664  0.05842  0.08983  1.0000
  H   H525      1.0  0.57477  0.00462  0.44523  1.0000
  C   C447      1.0  0.91814  0.01548  0.99613  1.0000
  C   C448      1.0  0.53695  0.05454  0.46100  1.0000
  C   C449      1.0  0.90529  0.05699  0.06767  1.0000
  C   C450      1.0  0.51779  0.05746  0.44495  1.0000
  C   C451      1.0  0.56288  0.02208  0.44155  1.0000
  C   C452      1.0  0.49818  0.99662  0.42106  1.0000
  Fe  Fe59      1.0  0.97283  0.00252  0.02926  1.0000
  H   H526      1.0  0.90811  0.05308  0.10949  1.0000
  H   H527      1.0  0.49451  0.11573  0.44947  1.0000
  H   H528      1.0  0.96944  0.24134  0.31683  1.0000
  H   H529      1.0  0.96115  0.11693  0.04507  1.0000
  N   N30       1.0  0.55138  0.03067  0.46672  1.0000
  S   S117      1.0  0.96259  0.02990  0.99453  1.0000
  H   H530      1.0  0.54954  0.01894  0.42881  1.0000
  H   H531      1.0  0.51364  0.04263  0.43627  1.0000
  H   H532      1.0  0.97285  0.10022  0.01794  1.0000
  H   H533      1.0  0.57403  0.03526  0.42994  1.0000
  H   H534      1.0  0.94719  0.06614  0.10481  1.0000
  H   H535      1.0  0.88332  0.00458  0.99648  1.0000
  H   H536      1.0  0.52092  0.01140  0.46888  1.0000
  H   H537      1.0  0.48774  0.08071  0.42923  1.0000
  C   C453      1.0  0.50280  0.07931  0.44075  1.0000
  C   C454      1.0  0.54063  0.07517  0.47183  1.0000
  H   H538      1.0  0.97159  0.09839  0.09179  1.0000
  C   C455      1.0  0.52553  0.09697  0.46748  1.0000
  N   N31       1.0  0.97531  0.08013  0.05712  1.0000
  C   C456      1.0  0.97552  0.10270  0.03842  1.0000
  H   H539      1.0  0.98434  0.21236  0.32903  1.0000
  C   C457      1.0  0.98401  0.08438  0.08197  1.0000
  C   C458      1.0  0.98445  0.23199  0.32819  1.0000
  Fe  Fe60      1.0  0.85346  0.11446  0.89089  1.0000
  S   S118      1.0  0.87520  0.14271  0.87031  1.0000
  Fe  Fe61      1.0  0.82016  0.08134  0.87932  1.0000
  S   S119      1.0  0.80772  0.06647  0.84583  1.0000
  S   S120      1.0  0.81596  0.12088  0.88006  1.0000
  S   S121      1.0  0.85907  0.07528  0.88626  1.0000
  Fe  Fe62      1.0  0.69610  0.12274  0.74260  1.0000
  S   S122      1.0  0.69850  0.08420  0.76108  1.0000
  S   S123      1.0  0.72570  0.13507  0.71283  1.0000
  Fe  Fe63      1.0  0.64704  0.13688  0.77107  1.0000
  S   S124      1.0  0.64514  0.09981  0.79221  1.0000
  S   S125      1.0  0.61505  0.16554  0.77380  1.0000
  Fe  Fe64      1.0  0.68356  0.09968  0.79857  1.0000
  S   S126      1.0  0.69579  0.08997  0.83938  1.0000
  Fe  Fe65      1.0  0.66000  0.08769  0.75288  1.0000
  S   S127      1.0  0.64365  0.05859  0.73903  1.0000
  S   S128      1.0  0.68415  0.13794  0.78079  1.0000
  S   S129      1.0  0.65892  0.12492  0.73121  1.0000
  Fe  Fe66      1.0  0.66280  0.26330  0.82497  1.0000
  S   S130      1.0  0.63460  0.26649  0.79721  1.0000
  Fe  Fe67      1.0  0.70223  0.23034  0.85131  1.0000
  H   H540      1.0  0.59975  0.14871  0.72642  1.0000
  Fe  Fe68      1.0  0.70536  0.28330  0.83949  1.0000
  H   H541      1.0  0.63371  0.03272  0.58297  1.0000
  S   S131      1.0  0.66226  0.23603  0.86105  1.0000
  S   S132      1.0  0.70230  0.25573  0.81347  1.0000
  Fe  Fe69      1.0  0.84229  0.19849  0.73840  1.0000
  S   S133      1.0  0.81266  0.21481  0.76603  1.0000
  S   S134      1.0  0.85466  0.15949  0.75033  1.0000
  Fe  Fe70      1.0  0.84291  0.24403  0.70015  1.0000
  H   H542      1.0  0.76756  0.21073  0.85062  1.0000
  H   H543      1.0  0.80796  0.17361  0.90071  1.0000
  Fe  Fe71      1.0  0.83254  0.24647  0.75890  1.0000
  C   C459      1.0  0.78903  0.21863  0.93770  1.0000
  Fe  Fe72      1.0  0.79584  0.23085  0.72914  1.0000
  S   S135      1.0  0.75588  0.23371  0.72959  1.0000
  S   S136      1.0  0.86409  0.22886  0.73445  1.0000
  S   S137      1.0  0.82388  0.21195  0.70165  1.0000
  Fe  Fe73      1.0  0.56758  0.05921  0.62422  1.0000
  S   S138      1.0  0.56226  0.02344  0.64749  1.0000
  S   S139      1.0  0.59092  0.08461  0.63455  1.0000
  Fe  Fe74      1.0  0.53879  0.05188  0.58020  1.0000
  S   S140      1.0  0.53127  0.01570  0.59980  1.0000
  H   H544      1.0  0.54500  0.09603  0.66717  1.0000
  H   H545      1.0  0.66791  0.16154  0.91481  1.0000
  C   C460      1.0  0.74604  0.17531  0.91949  1.0000
  H   H546      1.0  0.52805  0.11213  0.47692  1.0000
  N   N32       1.0  0.64834  0.02437  0.62075  1.0000
  C   C461      1.0  0.63888  0.30552  0.91905  1.0000
  S   S141      1.0  0.57793  0.04459  0.58542  1.0000
  C   C462      1.0  0.86304  0.29624  0.69779  1.0000
  C   C463      1.0  0.73507  0.17775  0.87484  1.0000
  C   C464      1.0  0.66911  0.05741  0.63279  1.0000
  H   H547      1.0  0.69666  0.15067  0.89921  1.0000
  H   H548      1.0  0.65794  0.11535  0.87405  1.0000
  H   H549      1.0  0.75790  0.08477  0.73888  1.0000
  H   H550      1.0  0.61474  0.01131  0.62050  1.0000
  H   H551      1.0  0.52187  0.06622  0.74614  1.0000
  H   H552      1.0  0.63208  0.05785  0.60065  1.0000
  C   C465      1.0  0.92595  0.05043  0.96503  1.0000
  H   H553      1.0  0.78069  0.25604  0.92314  1.0000
  H   H554      1.0  0.58382  0.30605  0.82089  1.0000
  H   H555      1.0  0.60418  0.21446  0.88244  1.0000
  H   H556      1.0  0.56759  0.15274  0.76148  1.0000
  H   H557      1.0  0.79841  0.18037  0.94636  1.0000
  H   H558      1.0  0.58223  0.19989  0.85060  1.0000
  C   C466      1.0  0.90292  0.05252  0.95679  1.0000
  C   C467      1.0  0.79690  0.19565  0.93094  1.0000
  H   H559      1.0  0.92314  0.25784  0.61969  1.0000
  H   H560      1.0  0.60186  0.12625  0.70499  1.0000
  H   H561      1.0  0.60229  0.11904  0.76304  1.0000
  H   H562      1.0  0.74634  0.18361  0.93711  1.0000
  H   H563      1.0  0.57772  0.15115  0.70389  1.0000
  C   C468      1.0  0.78595  0.27185  0.79499  1.0000
  H   H564      1.0  0.81501  0.18102  0.82896  1.0000
  H   H565      1.0  0.78856  0.25861  0.78149  1.0000
  H   H566      1.0  0.74755  0.27453  0.79828  1.0000
  C   C469      1.0  0.62077  0.19318  0.78128  1.0000
  C   C470      1.0  0.60437  0.21376  0.77526  1.0000
  C   C471      1.0  0.60864  0.23616  0.78043  1.0000
  C   C472      1.0  0.62905  0.23804  0.79223  1.0000
  C   C473      1.0  0.64525  0.21740  0.79885  1.0000
  C   C474      1.0  0.64123  0.19502  0.79310  1.0000
  H   H567      1.0  0.58851  0.21244  0.76617  1.0000
  H   H568      1.0  0.59610  0.25205  0.77525  1.0000
  H   H569      1.0  0.66117  0.21870  0.80783  1.0000
  H   H570      1.0  0.65380  0.17921  0.79817  1.0000
  C   C475      1.0  0.73438  0.16230  0.71774  1.0000
  C   C476      1.0  0.72101  0.17622  0.73621  1.0000
  C   C477      1.0  0.72792  0.19788  0.74011  1.0000
  C   C478      1.0  0.74796  0.20615  0.72499  1.0000
  C   C479      1.0  0.76140  0.19237  0.70635  1.0000
  C   C480      1.0  0.75464  0.17041  0.70278  1.0000
  H   H571      1.0  0.70488  0.17080  0.74697  1.0000
  H   H572      1.0  0.71768  0.20805  0.75497  1.0000
  H   H573      1.0  0.77686  0.19868  0.69449  1.0000
  H   H574      1.0  0.76507  0.15975  0.68838  1.0000
  C   C481      1.0  0.62870  0.06628  0.71023  1.0000
  C   C482      1.0  0.63355  0.08601  0.69172  1.0000
  C   C483      1.0  0.62170  0.09155  0.66869  1.0000
  C   C484      1.0  0.60477  0.07754  0.66415  1.0000
  C   C485      1.0  0.59942  0.05819  0.68304  1.0000
  C   C486      1.0  0.61157  0.05242  0.70586  1.0000
  H   H575      1.0  0.64704  0.09652  0.69463  1.0000
  H   H576      1.0  0.62595  0.10652  0.65415  1.0000
  H   H577      1.0  0.58593  0.04768  0.68017  1.0000
  H   H578      1.0  0.60752  0.03729  0.72028  1.0000
  C   C487      1.0  0.86139  0.15476  0.78332  1.0000
  C   C488      1.0  0.86109  0.13200  0.79796  1.0000
  C   C489      1.0  0.86524  0.12832  0.82473  1.0000
  C   C490      1.0  0.87078  0.14712  0.83660  1.0000
  C   C491      1.0  0.87166  0.16976  0.82180  1.0000
  C   C492      1.0  0.86647  0.17371  0.79532  1.0000
  H   H579      1.0  0.85744  0.11721  0.78874  1.0000
  H   H580      1.0  0.86459  0.11079  0.83604  1.0000
  H   H581      1.0  0.87598  0.18431  0.83093  1.0000
  H   H582      1.0  0.86687  0.19130  0.78407  1.0000
  C   C493      1.0  0.77669  0.07352  0.84382  1.0000
  C   C494      1.0  0.76712  0.07050  0.82085  1.0000
  C   C495      1.0  0.74232  0.07605  0.81906  1.0000
  C   C496      1.0  0.72702  0.08425  0.84044  1.0000
  C   C497      1.0  0.73664  0.08737  0.86336  1.0000
  C   C498      1.0  0.76145  0.08221  0.86494  1.0000
  H   H583      1.0  0.77890  0.06396  0.80436  1.0000
  H   H584      1.0  0.73504  0.07347  0.80137  1.0000
  H   H585      1.0  0.72493  0.09363  0.88002  1.0000
  H   H586      1.0  0.76872  0.08420  0.88285  1.0000
  H   H587      1.0  0.61350  0.03475  0.64041  1.0000
  H   H588      1.0  0.61322  0.28616  0.88084  1.0000
  H   H589      1.0  0.66606  0.06891  0.61448  1.0000
  H   H590      1.0  0.70195  0.14165  0.85482  1.0000
  H   H591      1.0  0.66565  0.98800  0.63029  1.0000
  H   H592      1.0  0.58135  0.01253  0.48747  1.0000
  C   C499      1.0  0.92953  0.29215  0.65184  1.0000
  H   H593      1.0  0.76571  0.12301  0.89411  1.0000
  C   C500      1.0  0.60817  0.16856  0.84595  1.0000
  C   C501      1.0  0.88750  0.03595  0.96803  1.0000
  H   H594      1.0  0.80068  0.07256  0.72376  1.0000
  C   C502      1.0  0.86750  0.31810  0.70427  1.0000
  C   C503      1.0  0.93737  0.30879  0.69103  1.0000
  H   H595      1.0  0.65406  0.99395  0.59888  1.0000
  H   H596      1.0  0.56322  0.03566  0.50372  1.0000
  S   S142      1.0  0.72964  0.31161  0.83124  1.0000
  H   H597      1.0  0.83207  0.09220  0.73806  1.0000
  C   C504      1.0  0.83531  0.01829  0.89898  1.0000
  H   H598      1.0  0.60597  0.30376  0.94475  1.0000
  H   H599      1.0  0.65476  0.29185  0.72584  1.0000
  C   C505      1.0  0.91636  0.27709  0.61384  1.0000
  H   H600      1.0  0.52149  0.06837  0.69765  1.0000
  H   H601      1.0  0.66047  0.04520  0.58416  1.0000
  C   C506      1.0  0.61133  0.19791  0.87434  1.0000
  H   H602      1.0  0.67739  0.13987  0.83732  1.0000
  N   N33       1.0  0.77650  0.14149  0.78833  1.0000
  C   C507      1.0  0.75053  0.14591  0.79772  1.0000
  C   C508      1.0  0.78982  0.13561  0.81210  1.0000
  C   C509      1.0  0.78332  0.16407  0.77311  1.0000
  C   C510      1.0  0.78272  0.12205  0.77130  1.0000
  C   C511      1.0  0.80700  0.11491  0.76183  1.0000
  C   C512      1.0  0.76516  0.11055  0.76257  1.0000
  N   N34       1.0  0.93106  0.29336  0.62260  1.0000
  C   C513      1.0  0.77170  0.09287  0.74569  1.0000
  N   N35       1.0  0.58688  0.31171  0.86100  1.0000
  H   H603      1.0  0.74432  0.12960  0.80967  1.0000
  H   H604      1.0  0.74641  0.16068  0.81033  1.0000
  H   H605      1.0  0.73951  0.15172  0.78089  1.0000
  C   C514      1.0  0.67889  0.16115  0.89527  1.0000
  H   H606      1.0  0.78441  0.14919  0.82605  1.0000
  H   H607      1.0  0.80954  0.13481  0.80710  1.0000
  H   H608      1.0  0.77514  0.16806  0.75412  1.0000
  H   H609      1.0  0.77737  0.17971  0.78427  1.0000
  H   H610      1.0  0.80306  0.16309  0.76791  1.0000
  H   H611      1.0  0.82124  0.12343  0.76685  1.0000
  H   H612      1.0  0.74619  0.11507  0.76811  1.0000
  H   H613      1.0  0.91219  0.25950  0.66270  1.0000
  H   H614      1.0  0.54581  0.99495  0.48449  1.0000
  H   H615      1.0  0.58358  0.04309  0.47448  1.0000
  N   N36       1.0  0.67984  0.25959  0.72094  1.0000
  C   C515      1.0  0.68710  0.25624  0.74817  1.0000
  C   C516      1.0  0.69632  0.27467  0.70370  1.0000
  C   C517      1.0  0.65526  0.27323  0.72124  1.0000
  C   C518      1.0  0.68008  0.23585  0.71209  1.0000
  C   C519      1.0  0.69664  0.22726  0.69118  1.0000
  C   C520      1.0  0.66351  0.22037  0.72474  1.0000
  C   C521      1.0  0.69614  0.20481  0.68330  1.0000
  C   C522      1.0  0.66322  0.19794  0.71678  1.0000
  C   C523      1.0  0.67948  0.19019  0.69604  1.0000
  H   H616      1.0  0.70629  0.24841  0.74855  1.0000
  H   H617      1.0  0.68470  0.27351  0.75661  1.0000
  H   H618      1.0  0.67648  0.24405  0.76213  1.0000
  H   H619      1.0  0.71543  0.26632  0.70423  1.0000
  S   S143      1.0  0.85873  0.03765  0.95768  1.0000
  H   H620      1.0  0.69203  0.27764  0.68277  1.0000
  H   H621      1.0  0.64240  0.26503  0.73683  1.0000
  C   C524      1.0  0.53558  0.01323  0.48058  1.0000
  H   H622      1.0  0.64815  0.27432  0.70177  1.0000
  H   H623      1.0  0.71066  0.23713  0.68112  1.0000
  H   H624      1.0  0.65086  0.22532  0.74122  1.0000
  H   H625      1.0  0.70946  0.19820  0.66797  1.0000
  H   H626      1.0  0.65067  0.18629  0.72718  1.0000
  H   H627      1.0  0.67985  0.17243  0.69051  1.0000
  C   C525      1.0  0.75736  0.14128  0.89508  1.0000
  H   H628      1.0  0.63685  0.13986  0.84336  1.0000
  C   C526      1.0  0.54510  0.09529  0.68844  1.0000
  C   C527      1.0  0.86127  0.29366  0.67142  1.0000
  H   H629      1.0  0.79672  0.01550  0.94083  1.0000
  H   H630      1.0  0.74573  0.14551  0.85631  1.0000
  H   H631      1.0  0.82293  0.31228  0.73882  1.0000
  Fe  Fe75      1.0  0.56960  0.00969  0.60799  1.0000
  C   C528      1.0  0.53218  0.07845  0.73287  1.0000
  H   H632      1.0  0.62639  0.00473  0.65168  1.0000
  C   C529      1.0  0.57070  0.03065  0.48379  1.0000
  H   H633      1.0  0.68232  0.11500  0.89258  1.0000
  H   H634      1.0  0.72606  0.20650  0.89906  1.0000
  H   H635      1.0  0.89727  0.28056  0.62238  1.0000
  H   H636      1.0  0.92557  0.29043  0.72907  1.0000
  H   H637      1.0  0.54455  0.15236  0.74044  1.0000
  H   H638      1.0  0.54699  0.13137  0.77008  1.0000
  S   S144      1.0  0.72209  0.19351  0.84704  1.0000
  H   H639      1.0  0.58937  0.27316  0.87035  1.0000
  C   C530      1.0  0.91876  0.27281  0.69700  1.0000
  N   N37       1.0  0.81919  0.00183  0.89356  1.0000
  C   C531      1.0  0.68340  0.15020  0.85134  1.0000
  C   C532      1.0  0.73469  0.18829  0.89793  1.0000
  C   C533      1.0  0.59038  0.10839  0.75545  1.0000
  H   H640      1.0  0.58078  0.09904  0.77321  1.0000
  H   H641      1.0  0.60207  0.09438  0.74498  1.0000
  C   C534      1.0  0.78506  0.01826  0.92520  1.0000
  H   H642      1.0  0.61293  0.28311  0.84686  1.0000
  C   C535      1.0  0.56956  0.30272  0.90926  1.0000
  H   H643      1.0  0.69518  0.29264  0.71032  1.0000
  S   S145      1.0  0.80648  0.07327  0.92218  1.0000
  Fe  Fe76      1.0  0.80559  0.11255  0.92365  1.0000
  Fe  Fe77      1.0  0.84525  0.07009  0.92951  1.0000
  C   C536      1.0  0.68114  0.06638  0.65056  1.0000
  C   C537      1.0  0.58890  0.13805  0.71721  1.0000
  C   C538      1.0  0.49658  0.06910  0.53738  1.0000
  N   N38       1.0  0.57396  0.12373  0.73753  1.0000
  C   C539      1.0  0.55752  0.14076  0.75306  1.0000
  C   C540      1.0  0.80228  0.19199  0.90434  1.0000
  C   C541      1.0  0.75798  0.15200  0.91772  1.0000
  S   S146      1.0  0.84304  0.10899  0.93487  1.0000
  H   H644      1.0  0.59866  0.16238  0.83177  1.0000
  H   H645      1.0  0.69365  0.06059  0.68925  1.0000
  C   C542      1.0  0.78680  0.23816  0.91787  1.0000
  C   C543      1.0  0.79227  0.23474  0.89120  1.0000
  C   C544      1.0  0.79574  0.08611  0.73704  1.0000
  H   H646      1.0  0.78655  0.11789  0.82309  1.0000
  H   H647      1.0  0.68436  0.16872  0.84101  1.0000
  S   S147      1.0  0.77511  0.13672  0.94270  1.0000
  H   H648      1.0  0.78460  0.22124  0.95835  1.0000
  C   C545      1.0  0.74599  0.15409  0.87368  1.0000
  H   H649      1.0  0.75521  0.03334  0.95084  1.0000
  C   C546      1.0  0.55978  0.10868  0.72616  1.0000
  H   H650      1.0  0.54527  0.09131  0.76439  1.0000
  C   C547      1.0  0.79988  0.21149  0.88357  1.0000
  S   S148      1.0  0.70871  0.25727  0.87660  1.0000
  Fe  Fe78      1.0  0.66857  0.26581  0.88244  1.0000
  H   H651      1.0  0.79161  0.31272  0.70247  1.0000
  C   C548      1.0  0.66293  0.00201  0.61297  1.0000
  H   H652      1.0  0.81710  0.30401  0.82596  1.0000
  H   H653      1.0  0.58067  0.28550  0.91215  1.0000
  H   H654      1.0  0.79040  0.25047  0.87653  1.0000
  S   S149      1.0  0.49238  0.02706  0.66641  1.0000
  H   H655      1.0  0.68095  0.00552  0.60328  1.0000
  H   H656      1.0  0.91641  0.27945  0.59189  1.0000
  C   C549      1.0  0.91981  0.27348  0.66950  1.0000
  C   C550      1.0  0.78373  0.21869  0.84108  1.0000
  N   N39       1.0  0.80504  0.20835  0.85514  1.0000
  H   H657      1.0  0.77942  0.23842  0.84090  1.0000
  H   H658      1.0  0.68242  0.17971  0.88722  1.0000
  H   H659      1.0  0.79629  0.17244  0.85879  1.0000
  H   H660      1.0  0.56914  0.12077  0.68379  1.0000
  H   H661      1.0  0.65218  0.12482  0.90646  1.0000
  H   H662      1.0  0.89714  0.06686  0.94164  1.0000
  H   H663      1.0  0.74107  0.03100  0.87120  1.0000
  C   C551      1.0  0.59892  0.18972  0.85650  1.0000
  C   C552      1.0  0.55894  0.10957  0.69840  1.0000
  H   H664      1.0  0.55389  0.29767  0.94995  1.0000
  S   S150      1.0  0.85743  0.26575  0.66312  1.0000
  C   C553      1.0  0.81121  0.18285  0.85049  1.0000
  H   H665      1.0  0.82776  0.17418  0.85958  1.0000
  H   H666      1.0  0.82296  0.01427  0.85163  1.0000
  H   H667      1.0  0.91053  0.25883  0.71005  1.0000
  H   H668      1.0  0.82182  0.24058  0.84415  1.0000
  H   H669      1.0  0.78637  0.21553  0.81995  1.0000
  C   C554      1.0  0.82560  0.22093  0.84322  1.0000
  C   C555      1.0  0.62484  0.01848  0.63402  1.0000
  H   H670      1.0  0.84186  0.21386  0.85358  1.0000
  C   C556      1.0  0.77848  0.30749  0.82849  1.0000
  C   C557      1.0  0.80190  0.29762  0.81990  1.0000
  H   H671      1.0  0.83035  0.21875  0.82186  1.0000
  S   S151      1.0  0.64624  0.27421  0.92029  1.0000
  C   C558      1.0  0.67728  0.03089  0.68195  1.0000
  S   S152      1.0  0.66566  0.29371  0.84689  1.0000
  C   C559      1.0  0.76261  0.28090  0.80454  1.0000
  S   S153      1.0  0.52887  0.07011  0.61682  1.0000
  S   S154      1.0  0.81314  0.26403  0.72445  1.0000
  C   C560      1.0  0.66556  0.02158  0.66420  1.0000
  C   C561      1.0  0.74543  0.03277  0.91183  1.0000
  H   H672      1.0  0.64194  0.19266  0.89520  1.0000
  C   C562      1.0  0.48649  0.99749  0.66806  1.0000
  H   H673      1.0  0.86183  0.28115  0.71313  1.0000
  H   H674      1.0  0.83160  0.03610  0.88695  1.0000
  C   C563      1.0  0.53189  0.07965  0.70558  1.0000
  C   C564      1.0  0.81337  0.09712  0.74509  1.0000
  C   C565      1.0  0.66091  0.03463  0.63912  1.0000
  C   C566      1.0  0.64342  0.16377  0.87057  1.0000
  C   C567      1.0  0.64356  0.04084  0.59608  1.0000
  S   S155      1.0  0.52766  0.06233  0.53918  1.0000
  H   H675      1.0  0.96342  0.26810  0.62098  1.0000
  C   C568      1.0  0.54577  0.09281  0.74309  1.0000
  C   C569      1.0  0.66470  0.12540  0.88792  1.0000
  Fe  Fe79      1.0  0.52441  0.03305  0.63711  1.0000
  C   C570      1.0  0.75884  0.29900  0.82094  1.0000
  C   C571      1.0  0.95639  0.28655  0.61218  1.0000
  H   H676      1.0  0.72711  0.04107  0.91633  1.0000
  N   N40       1.0  0.66716  0.15050  0.87637  1.0000
  C   C572      1.0  0.63320  0.18514  0.88148  1.0000
  C   C573      1.0  0.80562  0.27999  0.80287  1.0000
  C   C574      1.0  0.82560  0.99726  0.86555  1.0000
  S   S156      1.0  0.83480  0.26864  0.79087  1.0000
  C   C575      1.0  0.74010  0.30363  0.74063  1.0000
  H   H677      1.0  0.83326  0.02128  0.92013  1.0000
  C   C576      1.0  0.92718  0.29061  0.70774  1.0000
  C   C577      1.0  0.63010  0.15578  0.85273  1.0000
  C   C578      1.0  0.79382  0.01241  0.89940  1.0000
  H   H678      1.0  0.72656  0.29179  0.74324  1.0000
  C   C579      1.0  0.77715  0.01708  0.88011  1.0000
  H   H679      1.0  0.85459  0.01139  0.89414  1.0000
  C   C580      1.0  0.76127  0.02843  0.93119  1.0000
  C   C581      1.0  0.86326  0.31325  0.65167  1.0000
  H   H680      1.0  0.95842  0.28711  0.59020  1.0000
  C   C582      1.0  0.68512  0.05320  0.67512  1.0000
  C   C583      1.0  0.55426  0.30953  0.93135  1.0000
  C   C584      1.0  0.93899  0.30933  0.66351  1.0000
  H   H681      1.0  0.96817  0.29895  0.61684  1.0000
  H   H682      1.0  0.97770  0.99611  0.91599  1.0000
  C   C585      1.0  0.75330  0.02696  0.88643  1.0000
  H   H683      1.0  0.75961  0.28818  0.70710  1.0000
  H   H684      1.0  0.68684  0.08398  0.64562  1.0000
  H   H685      1.0  0.65984  0.00421  0.67052  1.0000
  H   H686      1.0  0.67974  0.02110  0.70146  1.0000
  C   C586      1.0  0.61711  0.31540  0.93188  1.0000
  H   H687      1.0  0.78216  0.01401  0.85974  1.0000
  H   H688      1.0  0.49884  0.05628  0.49962  1.0000
  H   H689      1.0  0.84482  0.98962  0.86171  1.0000
  H   H690      1.0  0.55838  0.30015  0.84439  1.0000
  C   C587      1.0  0.60110  0.28745  0.86507  1.0000
  C   C588      1.0  0.57244  0.31215  0.83871  1.0000
  H   H691      1.0  0.98120  0.01261  0.94194  1.0000
  H   H692      1.0  0.52714  0.01872  0.50002  1.0000
  H   H693      1.0  0.67077  0.31334  0.89380  1.0000
  C   C589      1.0  0.75874  0.30163  0.72033  1.0000
  H   H694      1.0  0.86143  0.31147  0.63133  1.0000
  H   H695      1.0  0.55432  0.07470  0.48480  1.0000
  H   H696      1.0  0.93781  0.06327  0.95616  1.0000
  H   H697      1.0  0.48830  0.08310  0.57483  1.0000
  C   C590      1.0  0.48720  0.06443  0.51503  1.0000
  C   C591      1.0  0.77711  0.31585  0.71790  1.0000
  C   C592      1.0  0.57089  0.31823  0.88482  1.0000
  C   C593      1.0  0.92279  0.31813  0.61029  1.0000
  Fe  Fe80      1.0  0.57347  0.56084  0.11490  1.0000
  S   S157      1.0  0.56091  0.58238  0.07771  1.0000
  S   S158      1.0  0.60287  0.56883  0.13706  1.0000
  C   C594      1.0  0.63657  0.63834  0.11479  1.0000
  C   C595      1.0  0.80982  0.57043  0.40839  1.0000
  H   H698      1.0  0.91103  0.62924  0.36518  1.0000
  Fe  Fe81      1.0  0.55946  0.54671  0.06451  1.0000
  H   H699      1.0  0.85574  0.64451  0.16908  1.0000
  H   H700      1.0  0.70907  0.62978  0.08337  1.0000
  S   S159      1.0  0.57528  0.52530  0.09992  1.0000
  S   S160      1.0  0.53647  0.55915  0.13605  1.0000
  C   C596      1.0  0.52637  0.43407  0.04643  1.0000
  C   C597      1.0  0.53730  0.44682  0.08570  1.0000
  H   H701      1.0  0.52848  0.48514  0.04252  1.0000
  S   S161      1.0  0.58341  0.42904  0.01001  1.0000
  C   C598      1.0  0.51377  0.60908  0.99146  1.0000
  H   H702      1.0  0.56442  0.51480  0.97920  1.0000
  Fe  Fe82      1.0  0.92334  0.55548  0.44723  1.0000
  S   S162      1.0  0.88524  0.55626  0.43976  1.0000
  S   S163      1.0  0.95419  0.54610  0.41702  1.0000
  C   C599      1.0  0.50126  0.37830  0.04334  1.0000
  H   H703      1.0  0.67490  0.39463  0.98504  1.0000
  S   S164      1.0  0.85376  0.62131  0.44493  1.0000
  C   C600      1.0  0.96010  0.51478  0.41945  1.0000
  S   S165      1.0  0.57062  0.53936  0.02242  1.0000
  H   H704      1.0  0.87944  0.54494  0.27700  1.0000
  H   H705      1.0  0.51490  0.37746  0.05652  1.0000
  H   H706      1.0  0.77604  0.59089  0.37368  1.0000
  S   S166      1.0  0.82899  0.62253  0.23243  1.0000
  H   H707      1.0  0.63190  0.39253  0.99047  1.0000
  N   N41       1.0  0.80935  0.59257  0.38908  1.0000
  C   C601      1.0  0.80867  0.62691  0.20831  1.0000
  C   C602      1.0  0.81475  0.61489  0.18595  1.0000
  H   H708      1.0  0.53071  0.63639  0.04029  1.0000
  H   H709      1.0  0.83148  0.60292  0.18399  1.0000
  S   S167      1.0  0.97557  0.43311  0.43238  1.0000
  C   C603      1.0  0.86323  0.63310  0.41253  1.0000
  C   C604      1.0  0.48878  0.46365  0.14514  1.0000
  H   H710      1.0  0.75100  0.59671  0.10314  1.0000
  H   H711      1.0  0.68975  0.63070  0.11373  1.0000
  H   H712      1.0  0.69768  0.59746  0.15226  1.0000
  H   H713      1.0  0.80945  0.61667  0.41823  1.0000
  H   H714      1.0  0.62844  0.49720  0.99168  1.0000
  C   C605      1.0  0.73615  0.58851  0.09723  1.0000
  H   H715      1.0  0.73616  0.59316  0.07538  1.0000
  Fe  Fe83      1.0  0.52400  0.57849  0.09775  1.0000
  C   C606      1.0  0.50764  0.37999  0.01586  1.0000
  H   H716      1.0  0.53083  0.45318  0.10521  1.0000
  C   C607      1.0  0.61561  0.59568  0.12802  1.0000
  C   C608      1.0  0.61031  0.61128  0.10514  1.0000
  C   C609      1.0  0.81279  0.52791  0.44538  1.0000
  H   H717      1.0  0.51711  0.40672  0.09163  1.0000
  C   C610      1.0  0.58632  0.63970  0.18414  1.0000
  C   C611      1.0  0.63167  0.60135  0.14407  1.0000
  H   H718      1.0  0.59811  0.60705  0.09255  1.0000
  C   C612      1.0  0.83422  0.59559  0.37773  1.0000
  C   C613      1.0  0.82291  0.54752  0.44983  1.0000
  H   H719      1.0  0.63594  0.58927  0.16172  1.0000
  C   C614      1.0  0.57449  0.50867  0.01906  1.0000
  C   C615      1.0  0.58210  0.49131  0.03969  1.0000
  C   C616      1.0  0.58544  0.46687  0.03659  1.0000
  C   C617      1.0  0.58067  0.45969  0.01307  1.0000
  H   H720      1.0  0.49823  0.42887  0.10884  1.0000
  C   C618      1.0  0.78691  0.64232  0.21073  1.0000
  H   H721      1.0  0.58585  0.49669  0.05789  1.0000
  H   H722      1.0  0.59151  0.45352  0.05254  1.0000
  H   H723      1.0  0.53629  0.44702  0.03278  1.0000
  H   H724      1.0  0.52615  0.38056  0.00793  1.0000
  H   H725      1.0  0.57306  0.60567  0.18708  1.0000
  C   C619      1.0  0.62070  0.63256  0.09861  1.0000
  S   S168      1.0  0.52112  0.54490  0.08098  1.0000
  C   C620      1.0  0.79944  0.61852  0.16589  1.0000
  H   H726      1.0  0.97591  0.51553  0.47242  1.0000
  C   C621      1.0  0.50482  0.42395  0.08872  1.0000
  H   H727      1.0  0.79506  0.60952  0.35274  1.0000
  N   N42       1.0  0.51695  0.44311  0.07199  1.0000
  C   C622      1.0  0.56750  0.64996  0.13538  1.0000
  C   C623      1.0  0.51351  0.56625  0.00209  1.0000
  S   S169      1.0  0.82685  0.63454  0.30549  1.0000
  C   C624      1.0  0.96982  0.46450  0.42638  1.0000
  H   H728      1.0  0.55624  0.61496  0.14413  1.0000
  S   S170      1.0  0.75909  0.63789  0.14250  1.0000
  H   H729      1.0  0.72852  0.60187  0.14642  1.0000
  H   H730      1.0  0.79004  0.54993  0.38756  1.0000
  H   H731      1.0  0.93147  0.46536  0.43294  1.0000
  N   N43       1.0  0.51868  0.58584  0.98065  1.0000
  H   H732      1.0  0.96988  0.55576  0.46524  1.0000
  H   H733      1.0  0.84272  0.58019  0.36713  1.0000
  H   H734      1.0  0.65461  0.62650  0.14993  1.0000
  C   C625      1.0  0.52648  0.61295  0.01227  1.0000
  H   H735      1.0  0.54779  0.46053  0.07429  1.0000
  H   H736      1.0  0.59344  0.63475  0.20305  1.0000
  C   C626      1.0  0.57312  0.47701  0.99243  1.0000
  C   C627      1.0  0.80101  0.52922  0.42283  1.0000
  H   H737      1.0  0.64977  0.42160  0.00653  1.0000
  C   C628      1.0  0.82159  0.56842  0.43164  1.0000
  H   H738      1.0  0.68653  0.56154  0.14021  1.0000
  C   C629      1.0  0.49561  0.48664  0.13830  1.0000
  H   H739      1.0  0.92291  0.50979  0.42836  1.0000
  H   H740      1.0  0.55007  0.43003  0.08930  1.0000
  C   C630      1.0  0.79944  0.55014  0.40453  1.0000
  H   H741      1.0  0.51162  0.43042  0.03590  1.0000
  H   H742      1.0  0.80280  0.57787  0.35448  1.0000
  H   H743      1.0  0.52435  0.56517  0.01888  1.0000
  H   H744      1.0  0.55659  0.58013  0.98547  1.0000
  H   H745      1.0  0.53990  0.59917  0.02049  1.0000
  Fe  Fe84      1.0  0.53692  0.52564  0.11752  1.0000
  C   C631      1.0  0.49020  0.38013  0.99882  1.0000
  N   N44       1.0  0.71277  0.59712  0.11152  1.0000
  C   C632      1.0  0.49491  0.50760  0.04480  1.0000
  C   C633      1.0  0.70791  0.62362  0.10499  1.0000
  C   C634      1.0  0.71502  0.59194  0.14046  1.0000
  C   C635      1.0  0.69370  0.58561  0.10326  1.0000
  C   C636      1.0  0.68229  0.56760  0.12020  1.0000
  C   C637      1.0  0.68644  0.59181  0.07731  1.0000
  C   C638      1.0  0.66413  0.55733  0.11191  1.0000
  C   C639      1.0  0.66804  0.58164  0.06938  1.0000
  C   C640      1.0  0.65679  0.56455  0.08672  1.0000
  C   C641      1.0  0.77782  0.63407  0.16810  1.0000
  C   C642      1.0  0.79518  0.59248  0.36663  1.0000
  C   C643      1.0  0.57021  0.50148  0.99530  1.0000
  C   C644      1.0  0.64224  0.62250  0.13742  1.0000
  H   H746      1.0  0.61629  0.64466  0.08103  1.0000
  H   H747      1.0  0.83202  0.54641  0.46746  1.0000
  C   C645      1.0  0.94610  0.47595  0.42852  1.0000
  H   H748      1.0  0.53914  0.41715  0.04925  1.0000
  H   H749      1.0  0.65483  0.54443  0.12550  1.0000
  Fe  Fe85      1.0  0.87897  0.58937  0.46012  1.0000
  H   H750      1.0  0.69466  0.60484  0.06302  1.0000
  H   H751      1.0  0.72125  0.57263  0.14664  1.0000
  C   C646      1.0  0.84660  0.64802  0.39746  1.0000
  H   H752      1.0  0.64197  0.55724  0.08094  1.0000
  N   N45       1.0  0.91918  0.56061  0.34660  1.0000
  C   C647      1.0  0.94052  0.57339  0.34329  1.0000
  C   C648      1.0  0.90360  0.56727  0.37058  1.0000
  C   C649      1.0  0.92792  0.53447  0.35140  1.0000
  C   C650      1.0  0.90547  0.56765  0.32325  1.0000
  C   C651      1.0  0.89825  0.55065  0.30917  1.0000
  C   C652      1.0  0.89817  0.59226  0.31450  1.0000
  C   C653      1.0  0.88480  0.55810  0.28756  1.0000
  C   C654      1.0  0.88494  0.59948  0.29280  1.0000
  C   C655      1.0  0.87817  0.58246  0.27939  1.0000
  H   H753      1.0  0.93566  0.59306  0.34357  1.0000
  H   H754      1.0  0.95209  0.56717  0.35972  1.0000
  H   H755      1.0  0.95174  0.57050  0.32428  1.0000
  H   H756      1.0  0.89651  0.58669  0.36867  1.0000
  H   H757      1.0  0.91362  0.56341  0.38838  1.0000
  H   H758      1.0  0.88794  0.55722  0.37468  1.0000
  H   H759      1.0  0.91287  0.52362  0.35643  1.0000
  H   H760      1.0  0.93962  0.52821  0.33392  1.0000
  H   H761      1.0  0.93878  0.52999  0.36860  1.0000
  H   H762      1.0  0.90273  0.53153  0.31442  1.0000
  H   H763      1.0  0.90250  0.60625  0.32447  1.0000
  C   C656      1.0  0.50988  0.48604  0.05070  1.0000
  H   H764      1.0  0.87984  0.61847  0.28641  1.0000
  H   H765      1.0  0.86769  0.58823  0.26267  1.0000
  H   H766      1.0  0.79766  0.63069  0.38839  1.0000
  S   S171      1.0  0.52591  0.49036  0.13778  1.0000
  C   C657      1.0  0.49148  0.64952  0.99376  1.0000
  H   H767      1.0  0.97237  0.59520  0.44122  1.0000
  C   C658      1.0  0.64036  0.45949  0.00138  1.0000
  C   C659      1.0  0.94125  0.50107  0.42578  1.0000
  H   H768      1.0  0.80441  0.60928  0.14859  1.0000
  H   H769      1.0  0.81420  0.51166  0.45949  1.0000
  S   S172      1.0  0.49672  0.61148  0.09991  1.0000
  C   C660      1.0  0.49611  0.62812  0.98242  1.0000
  H   H770      1.0  0.50963  0.50504  0.99000  1.0000
  H   H771      1.0  0.48722  0.58698  0.05699  1.0000
  C   C661      1.0  0.50103  0.46616  0.06687  1.0000
  C   C662      1.0  0.64582  0.43713  0.99210  1.0000
  C   C663      1.0  0.79876  0.61378  0.40255  1.0000
  H   H772      1.0  0.51751  0.54841  0.99479  1.0000
  C   C664      1.0  0.89300  0.63433  0.37413  1.0000
  S   S173      1.0  0.91764  0.59009  0.46477  1.0000
  H   H773      1.0  0.74056  0.56865  0.10149  1.0000
  H   H774      1.0  0.83471  0.61227  0.36334  1.0000
  H   H775      1.0  0.78024  0.61194  0.41194  1.0000
  H   H776      1.0  0.72113  0.63270  0.11262  1.0000
  H   H777      1.0  0.79308  0.51389  0.41954  1.0000
  C   C665      1.0  0.52152  0.63431  0.02363  1.0000
  H   H778      1.0  0.84577  0.59697  0.39324  1.0000
  H   H779      1.0  0.64037  0.46077  0.02228  1.0000
  C   C666      1.0  0.56495  0.62819  0.15112  1.0000
  Fe  Fe86      1.0  0.82317  0.64830  0.26269  1.0000
  H   H780      1.0  0.89949  0.61491  0.41259  1.0000
  C   C667      1.0  0.88652  0.62631  0.40094  1.0000
  C   C668      1.0  0.57446  0.62301  0.17537  1.0000
  H   H781      1.0  0.66213  0.58732  0.04986  1.0000
  H   H782      1.0  0.83007  0.58295  0.43591  1.0000
  H   H783      1.0  0.49432  0.56876  0.01033  1.0000
  H   H784      1.0  0.50210  0.44850  0.15049  1.0000
  H   H785      1.0  0.48939  0.42009  0.07946  1.0000
  C   C669      1.0  0.63357  0.48005  0.98417  1.0000
  C   C670      1.0  0.77148  0.64593  0.19062  1.0000
  H   H786      1.0  0.50209  0.52254  0.03257  1.0000
  C   C671      1.0  0.87590  0.64814  0.35869  1.0000
  C   C672      1.0  0.98375  0.50339  0.41600  1.0000
  H   H787      1.0  0.78175  0.65115  0.22822  1.0000
  H   H788      1.0  0.56986  0.47155  0.97408  1.0000
  C   C673      1.0  0.79255  0.36714  0.74886  1.0000
  H   H789      1.0  0.90733  0.46931  0.50334  1.0000
  C   C674      1.0  0.51908  0.49678  0.95030  1.0000
  H   H790      1.0  0.91608  0.48908  0.53322  1.0000
  S   S174      1.0  0.61175  0.38495  0.89851  1.0000
  H   H791      1.0  0.53466  0.48433  0.95525  1.0000
  S   S175      1.0  0.58209  0.43849  0.93305  1.0000
  Fe  Fe87      1.0  0.57972  0.40189  0.92303  1.0000
  S   S176      1.0  0.87062  0.56970  0.50051  1.0000
  S   S177      1.0  0.92244  0.56689  0.54334  1.0000
  H   H792      1.0  0.52808  0.33707  0.94699  1.0000
  H   H793      1.0  0.55605  0.35364  0.86628  1.0000
  H   H794      1.0  0.96493  0.38533  0.59325  1.0000
  Fe  Fe88      1.0  0.93690  0.41205  0.64510  1.0000
  S   S178      1.0  0.90056  0.42374  0.66533  1.0000
  C   C675      1.0  0.63223  0.39575  0.96851  1.0000
  Fe  Fe89      1.0  0.91689  0.39072  0.60354  1.0000
  S   S179      1.0  0.87851  0.40022  0.61977  1.0000
  C   C676      1.0  0.94862  0.46277  0.53155  1.0000
  Fe  Fe90      1.0  0.89011  0.43518  0.62416  1.0000
  S   S180      1.0  0.86868  0.47127  0.61498  1.0000
  Fe  Fe91      1.0  0.89213  0.38779  0.65943  1.0000
  S   S181      1.0  0.87408  0.36511  0.69333  1.0000
  S   S182      1.0  0.92746  0.42702  0.60435  1.0000
  S   S183      1.0  0.92950  0.37496  0.64275  1.0000
  C   C677      1.0  0.86399  0.49400  0.52652  1.0000
  C   C678      1.0  0.86239  0.47011  0.53730  1.0000
  C   C679      1.0  0.86420  0.46281  0.56448  1.0000
  C   C680      1.0  0.86685  0.47958  0.58096  1.0000
  C   C681      1.0  0.86806  0.50345  0.57025  1.0000
  C   C682      1.0  0.86704  0.51052  0.54307  1.0000
  H   H795      1.0  0.86009  0.45721  0.52460  1.0000
  H   H796      1.0  0.86307  0.44434  0.57278  1.0000
  H   H797      1.0  0.87002  0.51652  0.58289  1.0000
  H   H798      1.0  0.86837  0.52886  0.53512  1.0000
  C   C683      1.0  0.92515  0.46105  0.49494  1.0000
  C   C684      1.0  0.88505  0.50932  0.65304  1.0000
  H   H799      1.0  0.86869  0.35044  0.64300  1.0000
  S   S184      1.0  0.92772  0.37118  0.56804  1.0000
  H   H800      1.0  0.86974  0.31970  0.72454  1.0000
  H   H801      1.0  0.93872  0.49224  0.61856  1.0000
  C   C685      1.0  0.86743  0.33526  0.65824  1.0000
  H   H802      1.0  0.65643  0.35678  0.88441  1.0000
  H   H803      1.0  0.95656  0.55241  0.58097  1.0000
  H   H804      1.0  0.62637  0.49433  0.94442  1.0000
  C   C686      1.0  0.62287  0.35496  0.90904  1.0000
  C   C687      1.0  0.60895  0.34010  0.92667  1.0000
  C   C688      1.0  0.96323  0.58516  0.52013  1.0000
  Fe  Fe92      1.0  0.54371  0.44741  0.92482  1.0000
  C   C689      1.0  0.80804  0.35310  0.70736  1.0000
  C   C690      1.0  0.64548  0.34535  0.89790  1.0000
  H   H805      1.0  0.50711  0.59862  0.94188  1.0000
  H   H806      1.0  0.94004  0.59434  0.61800  1.0000
  H   H807      1.0  0.96031  0.56553  0.65216  1.0000
  H   H808      1.0  0.63351  0.41890  0.91967  1.0000
  H   H809      1.0  0.83375  0.33760  0.74816  1.0000
  H   H810      1.0  0.91760  0.50297  0.68839  1.0000
  H   H811      1.0  0.67970  0.38128  0.95525  1.0000
  H   H812      1.0  0.68871  0.41026  0.95541  1.0000
  C   C691      1.0  0.55587  0.34074  0.88399  1.0000
  C   C692      1.0  0.53979  0.33173  0.92979  1.0000
  S   S185      1.0  0.54258  0.41221  0.91062  1.0000
  H   H813      1.0  0.91522  0.47543  0.67630  1.0000
  C   C693      1.0  0.91912  0.49311  0.62454  1.0000
  H   H814      1.0  0.75726  0.34511  0.77204  1.0000
  S   S186      1.0  0.97078  0.41563  0.66145  1.0000
  N   N46       1.0  0.65071  0.41079  0.95581  1.0000
  H   H815      1.0  0.90754  0.58273  0.59683  1.0000
  H   H816      1.0  0.77557  0.32149  0.84122  1.0000
  C   C694      1.0  0.49355  0.51798  0.91761  1.0000
  H   H817      1.0  0.97224  0.44258  0.48914  1.0000
  H   H818      1.0  0.94175  0.48868  0.66707  1.0000
  C   C695      1.0  0.86967  0.33763  0.68455  1.0000
  H   H819      1.0  0.97000  0.52741  0.50396  1.0000
  C   C696      1.0  0.63807  0.45614  0.94797  1.0000
  C   C697      1.0  0.95948  0.43154  0.50161  1.0000
  H   H820      1.0  0.95703  0.36026  0.52014  1.0000
  N   N47       1.0  0.79838  0.34532  0.73513  1.0000
  C   C698      1.0  0.77748  0.33240  0.73605  1.0000
  C   C699      1.0  0.92199  0.49307  0.67082  1.0000
  H   H821      1.0  0.90973  0.50104  0.60684  1.0000
  H   H822      1.0  0.80778  0.37783  0.74589  1.0000
  C   C700      1.0  0.91925  0.53110  0.63995  1.0000
  C   C701      1.0  0.67452  0.39879  0.96324  1.0000
  H   H823      1.0  0.81734  0.33783  0.69700  1.0000
  C   C702      1.0  0.96493  0.56284  0.56397  1.0000
  H   H824      1.0  0.96938  0.41775  0.51543  1.0000
  H   H825      1.0  0.61551  0.32908  0.86918  1.0000
  H   H826      1.0  0.95332  0.59258  0.50345  1.0000
  H   H827      1.0  0.94790  0.52658  0.66620  1.0000
  H   H828      1.0  0.92103  0.44967  0.48065  1.0000
  C   C703      1.0  0.95217  0.57202  0.54224  1.0000
  C   C704      1.0  0.54051  0.34724  0.90613  1.0000
  C   C705      1.0  0.91571  0.57048  0.61255  1.0000
  C   C706      1.0  0.93408  0.48400  0.53877  1.0000
  H   H829      1.0  0.89510  0.54319  0.60912  1.0000
  H   H830      1.0  0.79360  0.36300  0.69556  1.0000
  H   H831      1.0  0.91730  0.41883  0.52256  1.0000
  C   C707      1.0  0.97924  0.47204  0.55698  1.0000
  C   C708      1.0  0.93410  0.57700  0.62436  1.0000
  H   H832      1.0  0.78910  0.36260  0.77075  1.0000
  C   C709      1.0  0.64513  0.43476  0.96503  1.0000
  H   H833      1.0  0.77667  0.37904  0.74139  1.0000
  C   C710      1.0  0.75809  0.33398  0.75652  1.0000
  H   H834      1.0  0.87553  0.51615  0.63519  1.0000
  Fe  Fe93      1.0  0.53068  0.40010  0.95321  1.0000
  C   C711      1.0  0.93812  0.53824  0.65143  1.0000
  N   N48       1.0  0.93974  0.44694  0.51557  1.0000
  C   C712      1.0  0.63235  0.47836  0.95756  1.0000
  H   H835      1.0  0.59141  0.34731  0.93522  1.0000
  H   H836      1.0  0.59518  0.34799  0.84873  1.0000
  H   H837      1.0  0.91508  0.47434  0.62956  1.0000
  C   C713      1.0  0.95818  0.37243  0.55776  1.0000
  H   H838      1.0  0.93506  0.41986  0.54874  1.0000
  H   H839      1.0  0.87848  0.52153  0.66830  1.0000
  H   H840      1.0  0.90919  0.44171  0.54414  1.0000
  H   H841      1.0  0.50844  0.56691  0.95117  1.0000
  N   N49       1.0  0.91156  0.50706  0.64715  1.0000
  C   C714      1.0  0.90862  0.54776  0.61985  1.0000
  H   H842      1.0  0.63628  0.45616  0.92726  1.0000
  C   C715      1.0  0.92460  0.43118  0.53346  1.0000
  Fe  Fe94      1.0  0.91000  0.56706  0.50352  1.0000
  C   C716      1.0  0.94543  0.56082  0.64357  1.0000
  Fe  Fe95      1.0  0.88083  0.53640  0.48082  1.0000
  H   H843      1.0  0.87892  0.49160  0.66042  1.0000
  H   H844      1.0  0.52918  0.36451  0.90513  1.0000
  H   H845      1.0  0.54898  0.59584  0.95403  1.0000
  S   S187      1.0  0.86359  0.50292  0.49223  1.0000
  H   H846      1.0  0.94757  0.32344  0.65147  1.0000
  H   H847      1.0  0.48499  0.62669  0.96728  1.0000
  H   H848      1.0  0.97128  0.50536  0.57382  1.0000
  S   S188      1.0  0.52829  0.48191  0.90167  1.0000
  S   S189      1.0  0.91967  0.53248  0.48635  1.0000
  C   C717      1.0  0.65134  0.41170  0.92661  1.0000
  H   H849      1.0  0.66483  0.42283  0.91576  1.0000
  C   C718      1.0  0.94236  0.49921  0.55356  1.0000
  H   H850      1.0  0.82205  0.36502  0.70643  1.0000
  H   H851      1.0  0.65590  0.39348  0.92017  1.0000
  C   C719      1.0  0.51291  0.50057  0.92442  1.0000
  C   C720      1.0  0.60411  0.32924  0.85309  1.0000
  C   C721      1.0  0.81743  0.32891  0.74842  1.0000
  H   H852      1.0  0.97917  0.44183  0.70174  1.0000
  H   H853      1.0  0.90482  0.32513  0.61959  1.0000
  H   H854      1.0  0.95271  0.42102  0.48813  1.0000
  C   C722      1.0  0.96808  0.36630  0.53284  1.0000
  H   H855      1.0  0.93464  0.47556  0.48339  1.0000
  S   S190      1.0  0.56773  0.38647  0.96447  1.0000
  C   C723      1.0  0.50404  0.58455  0.95896  1.0000
  H   H856      1.0  0.63491  0.37791  0.96116  1.0000
  H   H857      1.0  0.61403  0.40468  0.96432  1.0000
  H   H858      1.0  0.98347  0.49694  0.50196  1.0000
  H   H859      1.0  0.81125  0.32303  0.76947  1.0000
  C   C724      1.0  0.65349  0.32069  0.90294  1.0000
  H   H860      1.0  0.93100  0.51559  0.55824  1.0000
  H   H861      1.0  0.97696  0.45308  0.61733  1.0000
  H   H862      1.0  0.93514  0.33109  0.61182  1.0000
  H   H863      1.0  0.56333  0.33047  0.83229  1.0000
  S   S191      1.0  0.52910  0.43591  0.96680  1.0000
  H   H864      1.0  0.54860  0.56388  0.96170  1.0000
  H   H865      1.0  0.48893  0.52117  0.89744  1.0000
  C   C725      1.0  0.97244  0.38049  0.57401  1.0000
  C   C726      1.0  0.54429  0.58130  0.96997  1.0000
  S   S192      1.0  0.49810  0.38168  0.96452  1.0000
  H   H866      1.0  0.97007  0.63394  0.63529  1.0000
  H   H867      1.0  0.61637  0.32502  0.83511  1.0000
  C   C727      1.0  0.98136  0.45308  0.68288  1.0000
  C   C728      1.0  0.97121  0.45679  0.54195  1.0000
  C   C729      1.0  0.97695  0.44502  0.65972  1.0000
  C   C730      1.0  0.98012  0.45947  0.63529  1.0000
  H   H868      1.0  0.98248  0.61637  0.59328  1.0000
  C   C731      1.0  0.98302  0.51560  0.49169  1.0000
  H   H869      1.0  0.94379  0.32273  0.69943  1.0000
  C   C732      1.0  0.50496  0.50876  0.96989  1.0000
  Fe  Fe96      1.0  0.56749  0.42379  0.97377  1.0000
  H   H870      1.0  0.98289  0.44028  0.53891  1.0000
  C   C733      1.0  0.96499  0.49340  0.56242  1.0000
  H   H871      1.0  0.72527  0.32122  0.77456  1.0000
  C   C734      1.0  0.73952  0.32011  0.75834  1.0000
  H   H872      1.0  0.48523  0.44388  0.91366  1.0000
  H   H873      1.0  0.92150  0.31915  0.58864  1.0000
  Fe  Fe97      1.0  0.96076  0.96523  0.07581  1.0000
  H   H874      1.0  0.75472  0.77245  0.24305  1.0000
  S   S193      1.0  0.93267  0.94660  0.10289  1.0000
  C   C735      1.0  0.59371  0.83841  0.32234  1.0000
  C   C736      1.0  0.95280  0.85367  0.06934  1.0000
  Fe  Fe98      1.0  0.85477  0.84681  0.09603  1.0000
  S   S194      1.0  0.84662  0.85092  0.13928  1.0000
  S   S195      1.0  0.87630  0.87108  0.06636  1.0000
  Fe  Fe99      1.0  0.82899  0.80236  0.10178  1.0000
  S   S196      1.0  0.81886  0.80323  0.14515  1.0000
  S   S197      1.0  0.81979  0.77076  0.08533  1.0000
  Fe  Fe100     1.0  0.81004  0.84290  0.13424  1.0000
  S   S198      1.0  0.77532  0.86263  0.15101  1.0000
  Fe  Fe101     1.0  0.85634  0.81090  0.14567  1.0000
  S   S199      1.0  0.88038  0.79026  0.17517  1.0000
  S   S200      1.0  0.81724  0.84170  0.09037  1.0000
  S   S201      1.0  0.86729  0.80716  0.10289  1.0000
  H   H875      1.0  0.76328  0.77925  0.17548  1.0000
  H   H876      1.0  0.89991  0.84706  0.11167  1.0000
  C   C737      1.0  0.71683  0.80343  0.21629  1.0000
  C   C738      1.0  0.74787  0.73656  0.25527  1.0000
  S   S202      1.0  0.59461  0.84859  0.45035  1.0000
  S   S203      1.0  0.56747  0.91683  0.44170  1.0000
  Fe  Fe102     1.0  0.70489  0.71688  0.13213  1.0000
  S   S204      1.0  0.72206  0.69733  0.16756  1.0000
  S   S205      1.0  0.71162  0.75498  0.11907  1.0000
  H   H877      1.0  0.53577  0.88362  0.41578  1.0000
  H   H878      1.0  0.69939  0.79819  0.22580  1.0000
  Fe  Fe103     1.0  0.68528  0.68823  0.18228  1.0000
  S   S206      1.0  0.67006  0.69049  0.22460  1.0000
  H   H879      1.0  0.75100  0.81025  0.17534  1.0000
  S   S207      1.0  0.66761  0.71005  0.14834  1.0000
  Fe  Fe104     1.0  0.67535  0.80355  0.28282  1.0000
  S   S208      1.0  0.68795  0.83949  0.27965  1.0000
  S   S209      1.0  0.65362  0.79733  0.25148  1.0000
  Fe  Fe105     1.0  0.69893  0.78396  0.33255  1.0000
  S   S210      1.0  0.71350  0.81810  0.33374  1.0000
  S   S211      1.0  0.70511  0.75495  0.36681  1.0000
  Fe  Fe106     1.0  0.67731  0.83641  0.32358  1.0000
  S   S212      1.0  0.66011  0.86900  0.34282  1.0000
  Fe  Fe107     1.0  0.72286  0.81814  0.28999  1.0000
  S   S213      1.0  0.76020  0.82447  0.27292  1.0000
  S   S214      1.0  0.66171  0.80218  0.32592  1.0000
  S   S215      1.0  0.71126  0.78227  0.28956  1.0000
  Fe  Fe108     1.0  0.81619  0.70009  0.27211  1.0000
  S   S216      1.0  0.79013  0.67444  0.27113  1.0000
  S   S217      1.0  0.80633  0.73870  0.25647  1.0000
  C   C739      1.0  0.81487  0.90827  0.15684  1.0000
  C   C740      1.0  0.84426  0.68966  0.11920  1.0000
  H   H880      1.0  0.56982  0.69383  0.20158  1.0000
  S   S218      1.0  0.49921  0.92484  0.43243  1.0000
  H   H881      1.0  0.53660  0.85635  0.40227  1.0000
  S   S219      1.0  0.81894  0.69131  0.31554  1.0000
  C   C741      1.0  0.72109  0.72708  0.36030  1.0000
  C   C742      1.0  0.73216  0.72343  0.33497  1.0000
  C   C743      1.0  0.74679  0.70169  0.33103  1.0000
  C   C744      1.0  0.74951  0.68324  0.35220  1.0000
  C   C745      1.0  0.73772  0.68658  0.37730  1.0000
  C   C746      1.0  0.72379  0.70859  0.38141  1.0000
  H   H882      1.0  0.72963  0.73734  0.31846  1.0000
  H   H883      1.0  0.75569  0.69906  0.31156  1.0000
  H   H884      1.0  0.92185  0.79711  0.10288  1.0000
  H   H885      1.0  0.71518  0.71129  0.40101  1.0000
  N   N50       1.0  0.72950  0.78531  0.19948  1.0000
  C   C747      1.0  0.69275  0.83944  0.40173  1.0000
  N   N51       1.0  0.66450  0.78359  0.43128  1.0000
  H   H886      1.0  0.90382  0.82188  0.13673  1.0000
  C   C748      1.0  0.66535  0.72017  0.23217  1.0000
  C   C749      1.0  0.65891  0.73937  0.21286  1.0000
  C   C750      1.0  0.65510  0.76298  0.21906  1.0000
  C   C751      1.0  0.65850  0.76757  0.24431  1.0000
  C   C752      1.0  0.66547  0.74845  0.26351  1.0000
  C   C753      1.0  0.66843  0.72473  0.25758  1.0000
  H   H887      1.0  0.65642  0.73609  0.19328  1.0000
  H   H888      1.0  0.64968  0.77773  0.20419  1.0000
  H   H889      1.0  0.66811  0.75188  0.28306  1.0000
  H   H890      1.0  0.67359  0.70995  0.27254  1.0000
  Fe  Fe109     1.0  0.79608  0.66310  0.31375  1.0000
  C   C754      1.0  0.61114  0.85539  0.41960  1.0000
  C   C755      1.0  0.61686  0.83781  0.40258  1.0000
  C   C756      1.0  0.63194  0.84179  0.37900  1.0000
  C   C757      1.0  0.64069  0.86376  0.37193  1.0000
  C   C758      1.0  0.63377  0.88193  0.38825  1.0000
  C   C759      1.0  0.61917  0.87768  0.41222  1.0000
  H   H891      1.0  0.60953  0.82113  0.40779  1.0000
  H   H892      1.0  0.63656  0.82799  0.36619  1.0000
  H   H893      1.0  0.64044  0.89899  0.38280  1.0000
  H   H894      1.0  0.61499  0.89129  0.42540  1.0000
  C   C760      1.0  0.67036  0.80846  0.42743  1.0000
  H   H895      1.0  0.95384  0.82324  0.14631  1.0000
  H   H896      1.0  0.97970  0.90398  0.06382  1.0000
  C   C761      1.0  0.86130  0.77643  0.20027  1.0000
  C   C762      1.0  0.83812  0.78803  0.20622  1.0000
  C   C763      1.0  0.82162  0.77637  0.22403  1.0000
  C   C764      1.0  0.82826  0.75304  0.23604  1.0000
  C   C765      1.0  0.85171  0.74155  0.23088  1.0000
  C   C766      1.0  0.86832  0.75332  0.21298  1.0000
  H   H897      1.0  0.83291  0.80603  0.19691  1.0000
  H   H898      1.0  0.80353  0.78528  0.22816  1.0000
  H   H899      1.0  0.85701  0.72360  0.24035  1.0000
  H   H900      1.0  0.88629  0.74429  0.20839  1.0000
  C   C767      1.0  0.77110  0.85439  0.18541  1.0000
  C   C768      1.0  0.74808  0.85733  0.19910  1.0000
  C   C769      1.0  0.74457  0.84884  0.22627  1.0000
  C   C770      1.0  0.76410  0.83753  0.23971  1.0000
  C   C771      1.0  0.78722  0.83582  0.22626  1.0000
  C   C772      1.0  0.79069  0.84405  0.19910  1.0000
  H   H901      1.0  0.73291  0.86562  0.18859  1.0000
  H   H902      1.0  0.72674  0.85081  0.23670  1.0000
  H   H903      1.0  0.80245  0.82759  0.23671  1.0000
  H   H904      1.0  0.80852  0.84236  0.18870  1.0000
  C   C773      1.0  0.78959  0.76661  0.09389  1.0000
  C   C774      1.0  0.78205  0.74497  0.09062  1.0000
  C   C775      1.0  0.75819  0.74106  0.09864  1.0000
  C   C776      1.0  0.74163  0.75917  0.10900  1.0000
  C   C777      1.0  0.74906  0.78104  0.11152  1.0000
  C   C778      1.0  0.77307  0.78458  0.10450  1.0000
  H   H905      1.0  0.79475  0.73108  0.08225  1.0000
  H   H906      1.0  0.75252  0.72423  0.09640  1.0000
  H   H907      1.0  0.73623  0.79531  0.11894  1.0000
  H   H908      1.0  0.77868  0.80144  0.10675  1.0000
  C   C779      1.0  0.91700  0.92603  0.09204  1.0000
  C   C780      1.0  0.90264  0.91256  0.11091  1.0000
  C   C781      1.0  0.88976  0.89602  0.10324  1.0000
  C   C782      1.0  0.89156  0.89239  0.07662  1.0000
  C   C783      1.0  0.90583  0.90597  0.05768  1.0000
  C   C784      1.0  0.91847  0.92282  0.06532  1.0000
  H   H909      1.0  0.90161  0.91488  0.13160  1.0000
  H   H910      1.0  0.87853  0.88609  0.11803  1.0000
  H   H911      1.0  0.90723  0.90335  0.03702  1.0000
  H   H912      1.0  0.92943  0.93317  0.05061  1.0000
  H   H913      1.0  0.85100  0.93239  0.08533  1.0000
  S   S220      1.0  0.71171  0.68530  0.10933  1.0000
  H   H914      1.0  0.82871  0.67177  0.19452  1.0000
  C   C785      1.0  0.56524  0.86932  0.35662  1.0000
  C   C786      1.0  0.58745  0.87499  0.34283  1.0000
  C   C787      1.0  0.55804  0.84743  0.35250  1.0000
  C   C788      1.0  0.60128  0.85975  0.32588  1.0000
  C   C789      1.0  0.57213  0.83224  0.33565  1.0000
  H   H915      1.0  0.64179  0.76015  0.45600  1.0000
  H   H916      1.0  0.59490  0.89084  0.34505  1.0000
  H   H917      1.0  0.54147  0.84184  0.36239  1.0000
  C   C790      1.0  0.96581  0.88497  0.10048  1.0000
  H   H918      1.0  0.61296  0.71467  0.16784  1.0000
  Fe  Fe110     1.0  0.84952  0.66366  0.30392  1.0000
  H   H919      1.0  0.87144  0.93352  0.16925  1.0000
  H   H920      1.0  0.72730  0.80556  0.23246  1.0000
  H   H921      1.0  0.76633  0.78990  0.35183  1.0000
  H   H922      1.0  0.56636  0.81556  0.33288  1.0000
  C   C791      1.0  0.84727  0.93147  0.14068  1.0000
  H   H923      1.0  0.77807  0.80735  0.32266  1.0000
  H   H924      1.0  0.79619  0.79737  0.34961  1.0000
  H   H925      1.0  0.76439  0.79459  0.20359  1.0000
  H   H926      1.0  0.76245  0.74877  0.36559  1.0000
  S   S221      1.0  0.97139  0.96295  0.03241  1.0000
  C   C792      1.0  0.78293  0.79206  0.33816  1.0000
  H   H927      1.0  0.52498  0.96530  0.42006  1.0000
  H   H928      1.0  0.84879  0.69437  0.09808  1.0000
  H   H929      1.0  0.82498  0.94401  0.06897  1.0000
  N   N52       1.0  0.81762  0.92656  0.10898  1.0000
  C   C793      1.0  0.81772  0.90330  0.09911  1.0000
  C   C794      1.0  0.79263  0.93911  0.11123  1.0000
  C   C795      1.0  0.82672  0.92221  0.13537  1.0000
  H   H930      1.0  0.94726  0.80488  0.08070  1.0000
  H   H931      1.0  0.69551  0.80403  0.39193  1.0000
  H   H932      1.0  0.83604  0.89295  0.09804  1.0000
  H   H933      1.0  0.80554  0.89182  0.11196  1.0000
  H   H934      1.0  0.78006  0.92791  0.12392  1.0000
  H   H935      1.0  0.78552  0.94360  0.09156  1.0000
  H   H936      1.0  0.79152  0.95609  0.11999  1.0000
  H   H937      1.0  0.73977  0.67234  0.39367  1.0000
  H   H938      1.0  0.75732  0.73462  0.27266  1.0000
  C   C796      1.0  0.72253  0.74158  0.21116  1.0000
  C   C797      1.0  0.72511  0.71981  0.22795  1.0000
  C   C798      1.0  0.73738  0.71743  0.25018  1.0000
  H   H939      1.0  0.71181  0.74239  0.19499  1.0000
  H   H940      1.0  0.71676  0.70488  0.22432  1.0000
  H   H941      1.0  0.73851  0.70080  0.26362  1.0000
  H   H942      1.0  0.85751  0.94234  0.12574  1.0000
  H   H943      1.0  0.70052  0.76771  0.41864  1.0000
  H   H944      1.0  0.56261  0.91841  0.35712  1.0000
  H   H945      1.0  0.57760  0.90273  0.38517  1.0000
  C   C799      1.0  0.74616  0.75817  0.23817  1.0000
  C   C800      1.0  0.83212  0.94130  0.08862  1.0000
  H   H946      1.0  0.81184  0.90569  0.07886  1.0000
  H   H947      1.0  0.83221  0.95947  0.09423  1.0000
  H   H948      1.0  0.82175  0.75918  0.29706  1.0000
  H   H949      1.0  0.83833  0.74479  0.33695  1.0000
  H   H950      1.0  0.79898  0.90090  0.15447  1.0000
  H   H951      1.0  0.81642  0.70634  0.21436  1.0000
  C   C801      1.0  0.65499  0.77844  0.40732  1.0000
  N   N53       1.0  0.54987  0.88514  0.37445  1.0000
  C   C802      1.0  0.56006  0.90720  0.37669  1.0000
  N   N54       1.0  0.60175  0.67954  0.17851  1.0000
  C   C803      1.0  0.85408  0.66764  0.13196  1.0000
  C   C804      1.0  0.52606  0.89283  0.36450  1.0000
  H   H952      1.0  0.51616  0.87746  0.36443  1.0000
  H   H953      1.0  0.78667  0.72212  0.21458  1.0000
  C   C805      1.0  0.96457  0.87307  0.05752  1.0000
  Fe  Fe111     1.0  0.67595  0.67625  0.12919  1.0000
  C   C806      1.0  0.85556  0.92649  0.16575  1.0000
  C   C807      1.0  0.75309  0.79254  0.18809  1.0000
  H   H954      1.0  0.91451  0.84899  0.14015  1.0000
  H   H955      1.0  0.71304  0.82146  0.20462  1.0000
  C   C808      1.0  0.79975  0.70888  0.20431  1.0000
  C   C809      1.0  0.54635  0.87194  0.40153  1.0000
  C   C810      1.0  0.81333  0.77533  0.30645  1.0000
  H   H956      1.0  0.80758  0.78935  0.28996  1.0000
  H   H957      1.0  0.82723  0.78231  0.31543  1.0000
  H   H958      1.0  0.96819  0.87639  0.03610  1.0000
  H   H959      1.0  0.75459  0.65756  0.19276  1.0000
  H   H960      1.0  0.54797  0.91879  0.39002  1.0000
  H   H961      1.0  0.51428  0.90528  0.37717  1.0000
  H   H962      1.0  0.84696  0.71178  0.37162  1.0000
  H   H963      1.0  0.96932  0.80740  0.11984  1.0000
  C   C811      1.0  0.73291  0.76157  0.21590  1.0000
  C   C812      1.0  0.95424  0.86554  0.11254  1.0000
  H   H964      1.0  0.80195  0.75337  0.18504  1.0000
  H   H965      1.0  0.77178  0.77513  0.29279  1.0000
  H   H966      1.0  0.83192  0.73827  0.17937  1.0000
  C   C813      1.0  0.82330  0.73932  0.35031  1.0000
  C   C814      1.0  0.82857  0.72027  0.37025  1.0000
  C   C815      1.0  0.66047  0.82554  0.44498  1.0000
  H   H967      1.0  0.60472  0.82660  0.30936  1.0000
  N   N55       1.0  0.80446  0.71720  0.17557  1.0000
  C   C816      1.0  0.81362  0.74060  0.17282  1.0000
  H   H968      1.0  0.71311  0.80376  0.16484  1.0000
  H   H969      1.0  0.75623  0.76457  0.32343  1.0000
  C   C817      1.0  0.83245  0.67765  0.17360  1.0000
  H   H970      1.0  0.76705  0.73223  0.17551  1.0000
  S   S222      1.0  0.64856  0.66569  0.10619  1.0000
  C   C818      1.0  0.93059  0.81256  0.09216  1.0000
  N   N56       1.0  0.79277  0.76985  0.32626  1.0000
  C   C819      1.0  0.78122  0.72079  0.16419  1.0000
  C   C820      1.0  0.82186  0.70013  0.16112  1.0000
  C   C821      1.0  0.77417  0.76324  0.31183  1.0000
  H   H971      1.0  0.81475  0.74963  0.15201  1.0000
  H   H972      1.0  0.77224  0.71515  0.39962  1.0000
  C   C822      1.0  0.79925  0.75021  0.34758  1.0000
  H   H973      1.0  0.56385  0.86499  0.40930  1.0000
  H   H974      1.0  0.77905  0.74455  0.30693  1.0000
  H   H975      1.0  0.79186  0.69184  0.20783  1.0000
  C   C823      1.0  0.84824  0.66170  0.15911  1.0000
  H   H976      1.0  0.78258  0.72974  0.14347  1.0000
  Fe  Fe112     1.0  0.52917  0.91613  0.45820  1.0000
  C   C824      1.0  0.71505  0.78586  0.17715  1.0000
  H   H977      1.0  0.69651  0.78196  0.18432  1.0000
  C   C825      1.0  0.95130  0.81345  0.12987  1.0000
  C   C826      1.0  0.68702  0.81605  0.40593  1.0000
  C   C827      1.0  0.57961  0.66667  0.14376  1.0000
  H   H978      1.0  0.72356  0.77264  0.16363  1.0000
  H   H979      1.0  0.61378  0.69824  0.14057  1.0000
  H   H980      1.0  0.83948  0.66579  0.35885  1.0000
  H   H981      1.0  0.52793  0.90227  0.34388  1.0000
  C   C828      1.0  0.85276  0.65509  0.37047  1.0000
  H   H982      1.0  0.49961  0.66873  0.02388  1.0000
  H   H983      1.0  0.94771  0.84276  0.05602  1.0000
  C   C829      1.0  0.82840  0.70571  0.13350  1.0000
  H   H984      1.0  0.81408  0.89221  0.19763  1.0000
  H   H985      1.0  0.77477  0.70327  0.16406  1.0000
  H   H986      1.0  0.82119  0.72253  0.12268  1.0000
  C   C830      1.0  0.78110  0.74126  0.36635  1.0000
  C   C831      1.0  0.78654  0.72211  0.38605  1.0000
  C   C832      1.0  0.68255  0.85577  0.41911  1.0000
  C   C833      1.0  0.91260  0.83703  0.12550  1.0000
  C   C834      1.0  0.94752  0.84914  0.09738  1.0000
  C   C835      1.0  0.97111  0.88863  0.07306  1.0000
  S   S223      1.0  0.84896  0.67493  0.26018  1.0000
  C   C836      1.0  0.68661  0.76653  0.43594  1.0000
  H   H987      1.0  0.68307  0.74755  0.43939  1.0000
  C   C837      1.0  0.81023  0.71164  0.38800  1.0000
  H   H988      1.0  0.61832  0.86429  0.31582  1.0000
  H   H989      1.0  0.65819  0.86175  0.45388  1.0000
  H   H990      1.0  0.65338  0.75906  0.40821  1.0000
  H   H991      1.0  0.85031  0.90834  0.20553  1.0000
  S   S224      1.0  0.76813  0.65622  0.34770  1.0000
  H   H992      1.0  0.63704  0.78874  0.40472  1.0000
  H   H993      1.0  0.94331  0.79718  0.13952  1.0000
  Fe  Fe113     1.0  0.57372  0.88107  0.46659  1.0000
  H   H994      1.0  0.81438  0.69671  0.40319  1.0000
  Fe  Fe114     1.0  0.72596  0.66501  0.14641  1.0000
  H   H995      1.0  0.70465  0.84516  0.38449  1.0000
  H   H996      1.0  0.91788  0.82241  0.07802  1.0000
  C   C838      1.0  0.84372  0.91233  0.18620  1.0000
  H   H997      1.0  0.66643  0.78318  0.38873  1.0000
  N   N57       1.0  0.93575  0.82840  0.11075  1.0000
  H   H998      1.0  0.95025  0.86373  0.13385  1.0000
  C   C839      1.0  0.82336  0.90328  0.18176  1.0000
  H   H999      1.0  0.68652  0.87408  0.41536  1.0000
  C   C840      1.0  0.60342  0.70201  0.15987  1.0000
  C   C841      1.0  0.64625  0.77876  0.45414  1.0000
  H   H1000     1.0  0.58536  0.71175  0.15605  1.0000
  H   H1001     1.0  0.63634  0.68118  0.19088  1.0000
  H   H1002     1.0  0.58155  0.68279  0.13014  1.0000
  S   S225      1.0  0.88307  0.65533  0.32447  1.0000
  H   H1003     1.0  0.64734  0.82176  0.46163  1.0000
  H   H1004     1.0  0.69467  0.77015  0.45338  1.0000
  C   C842      1.0  0.58887  0.68632  0.20394  1.0000
  H   H1005     1.0  0.59737  0.70002  0.21153  1.0000
  H   H1006     1.0  0.82864  0.65337  0.40642  1.0000
  H   H1007     1.0  0.97009  0.89773  0.11237  1.0000
  H   H1008     1.0  0.58895  0.67077  0.21986  1.0000
  C   C843      1.0  0.62657  0.66860  0.18313  1.0000
  C   C844      1.0  0.50606  0.97188  0.42367  1.0000
  H   H1009     1.0  0.65271  0.78074  0.47322  1.0000
  H   H1010     1.0  0.63689  0.66369  0.16436  1.0000
  C   C845      1.0  0.66662  0.84878  0.44080  1.0000
  H   H1011     1.0  0.62912  0.79115  0.45187  1.0000
  C   C846      1.0  0.58928  0.66210  0.16861  1.0000
  C   C847      1.0  0.48940  0.95570  0.43002  1.0000
  H   H1012     1.0  0.86619  0.65513  0.12080  1.0000
  H   H1013     1.0  0.96439  0.98093  0.97541  1.0000
  S   S226      1.0  0.69077  0.65367  0.16462  1.0000
  C   C848      1.0  0.50402  0.65254  0.01442  1.0000
  H   H1014     1.0  0.97736  0.94994  0.97473  1.0000
  H   H1015     1.0  0.56062  0.65355  0.11619  1.0000
  H   H1016     1.0  0.62729  0.65217  0.19783  1.0000
  N   N58       1.0  0.56281  0.90695  0.61778  1.0000
  S   S227      1.0  0.58088  0.89619  0.50229  1.0000
  C   C849      1.0  0.48805  0.88849  0.59022  1.0000
  Fe  Fe115     1.0  0.54133  0.89798  0.51393  1.0000
  S   S228      1.0  0.52918  0.89021  0.55712  1.0000
  H   H1017     1.0  0.81479  0.98430  0.86022  1.0000
  S   S229      1.0  0.53168  0.93504  0.49298  1.0000
  H   H1018     1.0  0.53075  0.88498  0.65681  1.0000
  H   H1019     1.0  0.49775  0.89382  0.60472  1.0000
  H   H1020     1.0  0.56600  0.87858  0.59307  1.0000
  H   H1021     1.0  0.59515  0.90245  0.59060  1.0000
  H   H1022     1.0  0.51694  0.89612  0.70040  1.0000
  H   H1023     1.0  0.82209  0.98101  0.93216  1.0000
  H   H1024     1.0  0.53911  0.88140  0.61432  1.0000
  C   C850      1.0  0.48651  0.87821  0.54638  1.0000
  H   H1025     1.0  0.52945  0.92394  0.60349  1.0000
  C   C851      1.0  0.57191  0.96882  0.53058  1.0000
  H   H1026     1.0  0.53132  0.92986  0.71606  1.0000
  H   H1027     1.0  0.56689  0.86844  0.62790  1.0000
  S   S230      1.0  0.53492  0.87924  0.48057  1.0000
  C   C852      1.0  0.49813  0.95736  0.65601  1.0000
  C   C853      1.0  0.55527  0.91202  0.64537  1.0000
  C   C854      1.0  0.55856  0.88276  0.61332  1.0000
  H   H1028     1.0  0.55985  0.95323  0.68668  1.0000
  C   C855      1.0  0.54902  0.92517  0.59974  1.0000
  C   C856      1.0  0.53860  0.89923  0.66270  1.0000
  H   H1029     1.0  0.59974  0.89672  0.62527  1.0000
  H   H1030     1.0  0.59319  0.92680  0.60863  1.0000
  C   C857      1.0  0.82407  0.97866  0.91079  1.0000
  C   C858      1.0  0.50336  0.98057  0.65617  1.0000
  H   H1031     1.0  0.51106  0.94446  0.64646  1.0000
  C   C859      1.0  0.58882  0.90824  0.61045  1.0000
  C   C860      1.0  0.53836  0.92464  0.69677  1.0000
  H   H1032     1.0  0.55469  0.92287  0.57853  1.0000
  H   H1033     1.0  0.84275  0.96970  0.90628  1.0000
  C   C861      1.0  0.56263  0.93174  0.65480  1.0000
  C   C862      1.0  0.53043  0.90548  0.68801  1.0000
  C   C863      1.0  0.59465  0.97241  0.56652  1.0000
  H   H1034     1.0  0.57403  0.94332  0.64230  1.0000
  C   C864      1.0  0.59322  0.96493  0.51382  1.0000
  H   H1035     1.0  0.55139  0.94369  0.60237  1.0000
  C   C865      1.0  0.61599  0.96775  0.55003  1.0000
  C   C866      1.0  0.55442  0.93776  0.68019  1.0000
  H   H1036     1.0  0.81153  0.96612  0.90823  1.0000
  H   H1037     1.0  0.96048  0.96589  0.94868  1.0000
  S   S231      1.0  0.59237  0.96142  0.48050  1.0000
  H   H1038     1.0  0.49525  0.87521  0.52693  1.0000
  C   C867      1.0  0.49929  0.88518  0.56491  1.0000
  C   C868      1.0  0.97370  0.96759  0.96225  1.0000
  H   H1039     1.0  0.55483  0.96886  0.52336  1.0000
  H   H1040     1.0  0.63307  0.96710  0.55756  1.0000
  H   H1041     1.0  0.63176  0.96159  0.51060  1.0000
  C   C869      1.0  0.61525  0.96463  0.52351  1.0000
  C   C870      1.0  0.57260  0.97328  0.55664  1.0000
  Fe  Fe116     1.0  0.57085  0.93198  0.47884  1.0000
  H   H1042     1.0  0.97857  0.95596  0.90951  1.0000
  S   S232      1.0  0.59566  0.97713  0.59942  1.0000
  H   H1043     1.0  0.55605  0.97704  0.56916  1.0000
  H   H1044     1.0  0.52060  0.98521  0.64738  1.0000
