data_image0
_chemical_formula_structural       FeS2CHS2HFeHS3C6H8FeSH2FeH2NC7HCH3C2H4CH2CH4CSH2NSHCHCHFeSCFeS2FeSFeS3CHC4H2CHC4HCHC3H2CH2CH2C2HCHCHC4H2CSCH2CHNH2SH2CH3CH2CH2CHNH2CHCH2CH6NC3H2CHC2FeCH4SH3CSFeS2FeS2FeHFeS3FeCSH3CNCSC8H4C4SCHCH2C5HCN2C4HCH2CH9CHCH3C2SH2CHCH2FeHCH2CHCH7C2H2CHCH2C2FeHC4HC2H2CH2SHSC2HCFeS2H3FeCH2S3CHSC6H4C5FeHC2HC3HC3SCHSH2NH2C2H2C4FeHNCH3NFeC2H2CH7CH2CH2CH3CHFeS2FeSHFeSFeCS2C3SCH5C5H3C6H2CHC3HCHCHCHCH2CHS2CHCHCH2C4HNCHSH2CH2CHC3H3SCH2CNC3NH2C2H3CH2CH4C2H2C2H4C2H8NHFeSHFeSHSH2FeS2FeS2FeSFeHS2C4H4CH3C6H4CH3C5H2C2H5CH3CH2C5SHCHFeHNHC2SHCH3CH2CHNCH4CH3SNCHFeCSFeHCSFeS2FeS2FeSFeS3C2H2C6H2CH2C4SH2C6H4C2NC6H3CH9CHCH3C2H5CHCHCSH2CFeCH4NHCH2CSH2C2H2CFeS2FeS2FeSFeHS2C2H2C4HC2NHC6H4CHC4H2CNHCH2NC2HCHCHCH2C4H2CHC2HC2H2SCH4CH3CFeHSH4CHSHCHC3H2C3HCHCH2CHCH2CH3CH4CS2FeS2H3CFeCS3FeSH2C7H6C2HC2SCHCH2FeNCHCHCH2CH4CH4CH2CHFeS2FeS2FeSFeHS2HSFeHSFeCSH2C6H4C6H5C3H3SNC4H5CH9CHCH2C2FeCHCHCHNH2C2HC4H2C2HFeSHFeS2FeHFeS3H3CH3C2H2C2HC6HCHC6H6C4H5NH3SHCH2C2H2CNHNCH3CHCSHC2H2CHCHCH5CH2C2H2NHCHCHC3HCHC2H2NSHFeS2Fe2SCSHFeSC8H4C3HCH6CH2CH4SCH2CHC2HC2H2SC5H3CHCH2CH2C2HCH2NCH2C2FeCHSHCSH2SH
_chemical_formula_sum              "Fe64 S128 C480 H576 N32"
_cell_length_a       35.646
_cell_length_b       37.5159
_cell_length_c       39.799
_cell_angle_alpha    89.8514
_cell_angle_beta     89.2596
_cell_angle_gamma    89.5966

_space_group_name_H-M_alt    "P 1"
_space_group_IT_number       1

loop_
  _space_group_symop_operation_xyz
  'x, y, z'

loop_
  _atom_site_type_symbol
  _atom_site_label
  _atom_site_symmetry_multiplicity
  _atom_site_fract_x
  _atom_site_fract_y
  _atom_site_fract_z
  _atom_site_occupancy
  Fe  Fe1       1.0  0.37036  0.20421  0.28057  1.0000
  S   S1        1.0  0.40722  0.23853  0.31262  1.0000
  S   S2        1.0  0.35700  0.21690  0.22609  1.0000
  C   C1        1.0  0.50527  0.09373  0.08582  1.0000
  H   H1        1.0  0.49829  0.11326  0.20237  1.0000
  S   S3        1.0  0.34815  0.11285  0.02247  1.0000
  S   S4        1.0  0.42323  0.06458  0.02928  1.0000
  H   H2        1.0  0.27064  0.18132  0.18415  1.0000
  Fe  Fe2       1.0  0.43416  0.18694  0.32805  1.0000
  H   H3        1.0  0.48127  0.10390  0.07222  1.0000
  S   S5        1.0  0.32583  0.19737  0.32092  1.0000
  S   S6        1.0  0.40080  0.15387  0.29315  1.0000
  S   S7        1.0  0.40291  0.10747  0.11097  1.0000
  C   C2        1.0  0.36982  0.18668  0.19378  1.0000
  C   C3        1.0  0.36685  0.19702  0.15993  1.0000
  C   C4        1.0  0.37666  0.17313  0.13388  1.0000
  C   C5        1.0  0.38926  0.13873  0.14176  1.0000
  C   C6        1.0  0.39226  0.12856  0.17549  1.0000
  C   C7        1.0  0.38268  0.15235  0.20129  1.0000
  H   H4        1.0  0.35690  0.22354  0.15383  1.0000
  H   H5        1.0  0.37437  0.18124  0.10788  1.0000
  H   H6        1.0  0.40199  0.10200  0.18172  1.0000
  H   H7        1.0  0.38529  0.14381  0.22690  1.0000
  H   H8        1.0  0.03688  0.48161  0.10998  1.0000
  H   H9        1.0  0.45065  0.20365  0.20429  1.0000
  H   H10       1.0  0.46011  0.15834  0.21377  1.0000
  H   H11       1.0  0.47117  0.06757  0.12321  1.0000
  Fe  Fe3       1.0  0.35936  0.14876  0.33542  1.0000
  S   S8        1.0  0.43097  0.15168  0.02158  1.0000
  H   H12       1.0  0.49459  0.03762  0.03343  1.0000
  H   H13       1.0  0.31694  0.06065  0.15388  1.0000
  Fe  Fe4       1.0  0.39935  0.11318  0.05447  1.0000
  H   H14       1.0  0.23234  0.11544  0.27699  1.0000
  H   H15       1.0  0.31026  0.10742  0.11069  1.0000
  N   N1        1.0  0.27235  0.13470  0.24015  1.0000
  C   C8        1.0  0.25897  0.17172  0.24659  1.0000
  C   C9        1.0  0.24198  0.11009  0.25072  1.0000
  C   C10       1.0  0.30524  0.12840  0.26183  1.0000
  C   C11       1.0  0.28271  0.12792  0.20453  1.0000
  C   C12       1.0  0.27939  0.15427  0.17894  1.0000
  C   C13       1.0  0.29613  0.09378  0.19444  1.0000
  C   C14       1.0  0.28858  0.14656  0.14544  1.0000
  H   H16       1.0  0.48905  0.24091  0.29709  1.0000
  C   C15       1.0  0.30178  0.11284  0.13648  1.0000
  H   H17       1.0  0.23328  0.17812  0.23213  1.0000
  H   H18       1.0  0.25197  0.17609  0.27364  1.0000
  H   H19       1.0  0.28105  0.19161  0.24008  1.0000
  C   C16       1.0  0.51390  0.22739  0.28768  1.0000
  C   C17       1.0  0.47980  0.16765  0.14975  1.0000
  H   H20       1.0  0.25127  0.08175  0.25019  1.0000
  H   H21       1.0  0.32811  0.14729  0.25547  1.0000
  H   H22       1.0  0.29801  0.13216  0.28888  1.0000
  H   H23       1.0  0.31693  0.10098  0.25974  1.0000
  C   C18       1.0  0.30567  0.08654  0.16094  1.0000
  H   H24       1.0  0.28677  0.16725  0.12644  1.0000
  H   H25       1.0  0.46879  0.14049  0.15484  1.0000
  C   C19       1.0  0.49950  0.07323  0.11459  1.0000
  H   H26       1.0  0.29982  0.07251  0.21246  1.0000
  H   H27       1.0  0.48894  0.19225  0.23125  1.0000
  H   H28       1.0  0.45532  0.18467  0.14294  1.0000
  H   H29       1.0  0.21731  0.11277  0.23400  1.0000
  C   C20       1.0  0.47392  0.18412  0.20823  1.0000
  S   S9        1.0  0.49540  0.17245  0.33029  1.0000
  H   H30       1.0  0.05174  0.49279  0.06822  1.0000
  H   H31       1.0  0.10150  0.47262  0.01047  1.0000
  N   N2        1.0  0.50003  0.18227  0.17887  1.0000
  S   S10       1.0  0.02624  0.44748  0.00907  1.0000
  H   H32       1.0  0.49850  0.16557  0.12721  1.0000
  C   C21       1.0  0.51095  0.21944  0.17047  1.0000
  H   H33       1.0  0.48600  0.23686  0.16626  1.0000
  C   C22       1.0  0.03045  0.49891  0.08802  1.0000
  H   H34       1.0  0.27234  0.42811  0.01097  1.0000
  Fe  Fe5       1.0  0.22027  0.48672  0.48888  1.0000
  S   S11       1.0  0.17984  0.46751  0.45038  1.0000
  C   C23       1.0  0.23407  0.25823  0.43557  1.0000
  Fe  Fe6       1.0  0.21091  0.42070  0.53351  1.0000
  S   S12       1.0  0.16975  0.39740  0.49753  1.0000
  S   S13       1.0  0.21822  0.38185  0.57706  1.0000
  Fe  Fe7       1.0  0.20929  0.41448  0.45651  1.0000
  S   S14       1.0  0.21756  0.37731  0.41187  1.0000
  Fe  Fe8       1.0  0.14473  0.45222  0.49505  1.0000
  S   S15       1.0  0.08210  0.46028  0.49970  1.0000
  S   S16       1.0  0.25264  0.43467  0.49227  1.0000
  S   S17       1.0  0.18297  0.47449  0.53358  1.0000
  C   C24       1.0  0.34072  0.04213  0.44473  1.0000
  H   H35       1.0  0.49017  0.10987  0.37506  1.0000
  C   C25       1.0  0.35140  0.03819  0.38451  1.0000
  C   C26       1.0  0.34049  0.07397  0.38070  1.0000
  C   C27       1.0  0.33042  0.09399  0.40900  1.0000
  C   C28       1.0  0.32990  0.07789  0.44086  1.0000
  H   H36       1.0  0.32179  0.12155  0.40619  1.0000
  H   H37       1.0  0.32080  0.09314  0.46258  1.0000
  C   C29       1.0  0.10806  0.37809  0.56520  1.0000
  H   H38       1.0  0.03724  0.36854  0.58874  1.0000
  C   C30       1.0  0.25688  0.34863  0.40625  1.0000
  C   C31       1.0  0.25738  0.32412  0.37955  1.0000
  C   C32       1.0  0.28727  0.29959  0.37549  1.0000
  C   C33       1.0  0.28700  0.34907  0.42834  1.0000
  H   H39       1.0  0.23427  0.32378  0.36221  1.0000
  C   C34       1.0  0.35227  0.02246  0.41658  1.0000
  H   H40       1.0  0.28721  0.36841  0.44837  1.0000
  C   C35       1.0  0.22249  0.39239  0.62018  1.0000
  C   C36       1.0  0.23301  0.42627  0.63098  1.0000
  C   C37       1.0  0.06561  0.50457  0.50196  1.0000
  H   H41       1.0  0.46442  0.11687  0.46784  1.0000
  H   H42       1.0  0.43814  0.11705  0.40951  1.0000
  C   C38       1.0  0.21639  0.36540  0.64418  1.0000
  H   H43       1.0  0.23801  0.44719  0.61274  1.0000
  H   H44       1.0  0.05622  0.48189  0.63793  1.0000
  C   C39       1.0  0.24997  0.29757  0.55475  1.0000
  H   H45       1.0  0.20844  0.33905  0.63607  1.0000
  H   H46       1.0  0.10063  0.39897  0.54652  1.0000
  C   C40       1.0  0.22866  0.29928  0.48215  1.0000
  C   C41       1.0  0.14604  0.44998  0.65671  1.0000
  H   H47       1.0  0.33633  0.29136  0.51857  1.0000
  C   C42       1.0  0.31686  0.29935  0.39826  1.0000
  H   H48       1.0  0.24428  0.26876  0.55893  1.0000
  C   C43       1.0  0.21456  0.28515  0.45246  1.0000
  H   H49       1.0  0.09662  0.35278  0.55517  1.0000
  C   C44       1.0  0.23794  0.43285  0.66551  1.0000
  C   C45       1.0  0.11173  0.41827  0.61286  1.0000
  C   C46       1.0  0.46120  0.03347  0.43509  1.0000
  C   C47       1.0  0.11132  0.45065  0.59431  1.0000
  H   H50       1.0  0.13228  0.39551  0.66025  1.0000
  H   H51       1.0  0.43760  0.07583  0.38590  1.0000
  C   C48       1.0  0.43634  0.08750  0.41160  1.0000
  S   S18       1.0  0.35334  0.26699  0.39642  1.0000
  C   C49       1.0  0.51213  0.10000  0.39114  1.0000
  H   H52       1.0  0.22382  0.24833  0.41187  1.0000
  H   H53       1.0  0.22270  0.31094  0.54967  1.0000
  C   C50       1.0  0.05237  0.39255  0.59761  1.0000
  H   H54       1.0  0.04538  0.41467  0.58005  1.0000
  N   N3        1.0  0.09338  0.38607  0.59944  1.0000
  H   H55       1.0  0.51345  0.06629  0.55490  1.0000
  H   H56       1.0  0.09815  0.45230  0.57006  1.0000
  S   S19       1.0  0.39546  0.17748  0.37188  1.0000
  H   H57       1.0  0.43068  0.08256  0.47702  1.0000
  H   H58       1.0  0.29345  0.35472  0.54542  1.0000
  C   C51       1.0  0.51105  0.01632  0.52842  1.0000
  H   H59       1.0  0.08613  0.32974  0.60930  1.0000
  H   H60       1.0  0.30912  0.24893  0.48548  1.0000
  H   H61       1.0  0.16009  0.50458  0.64642  1.0000
  C   C52       1.0  0.09956  0.35367  0.62028  1.0000
  H   H62       1.0  0.28372  0.22552  0.43420  1.0000
  H   H63       1.0  0.33964  0.32459  0.44201  1.0000
  C   C53       1.0  0.45982  0.08757  0.46766  1.0000
  H   H64       1.0  0.46672  0.02101  0.41013  1.0000
  H   H65       1.0  0.25988  0.30914  0.57882  1.0000
  C   C54       1.0  0.26308  0.28698  0.49575  1.0000
  H   H66       1.0  0.48045  0.02049  0.45330  1.0000
  N   N4        1.0  0.46612  0.07271  0.43349  1.0000
  H   H67       1.0  0.31133  0.25814  0.54311  1.0000
  H   H68       1.0  0.08689  0.35660  0.64578  1.0000
  C   C55       1.0  0.12960  0.41890  0.64461  1.0000
  H   H69       1.0  0.25731  0.35595  0.51521  1.0000
  C   C56       1.0  0.26778  0.24535  0.44826  1.0000
  H   H70       1.0  0.40789  0.08165  0.42179  1.0000
  H   H71       1.0  0.13005  0.34752  0.62273  1.0000
  C   C57       1.0  0.28228  0.25942  0.47786  1.0000
  H   H72       1.0  0.13920  0.37556  0.56528  1.0000
  H   H73       1.0  0.49174  0.20634  0.41732  1.0000
  H   H74       1.0  0.35925  0.02268  0.36260  1.0000
  H   H75       1.0  0.04039  0.39942  0.62279  1.0000
  H   H76       1.0  0.18922  0.29629  0.44172  1.0000
  H   H77       1.0  0.32386  0.29981  0.56146  1.0000
  N   N5        1.0  0.27760  0.30285  0.52701  1.0000
  C   C58       1.0  0.28349  0.34164  0.52209  1.0000
  C   C59       1.0  0.31672  0.32442  0.42448  1.0000
  C   C60       1.0  0.31387  0.28720  0.53791  1.0000
  H   H78       1.0  0.21286  0.32072  0.49381  1.0000
  H   H79       1.0  0.30454  0.34673  0.50180  1.0000
  C   C61       1.0  0.02903  0.47892  0.64962  1.0000
  H   H80       1.0  0.47874  0.07548  0.48658  1.0000
  C   C62       1.0  0.12856  0.48139  0.60633  1.0000
  C   C63       1.0  0.50460  0.08104  0.42147  1.0000
  Fe  Fe9       1.0  0.36539  0.22728  0.35433  1.0000
  C   C64       1.0  0.14596  0.48102  0.63745  1.0000
  H   H81       1.0  0.12911  0.50536  0.59102  1.0000
  H   H82       1.0  0.28706  0.28048  0.35521  1.0000
  H   H83       1.0  0.48244  0.01148  0.53590  1.0000
  H   H84       1.0  0.43220  0.02616  0.44323  1.0000
  S   S20       1.0  0.33664  0.02235  0.48464  1.0000
  H   H85       1.0  0.04474  0.50065  0.58233  1.0000
  H   H86       1.0  0.51128  0.17014  0.46640  1.0000
  H   H87       1.0  0.24478  0.51031  0.41809  1.0000
  C   C65       1.0  0.02691  0.51103  0.50089  1.0000
  S   S21       1.0  0.33772  0.09265  0.34032  1.0000
  Fe  Fe10      1.0  0.25821  0.31552  0.82171  1.0000
  S   S22       1.0  0.26211  0.37556  0.82178  1.0000
  S   S23       1.0  0.30964  0.28159  0.83489  1.0000
  Fe  Fe11      1.0  0.17618  0.31810  0.80141  1.0000
  S   S24       1.0  0.17317  0.37762  0.80160  1.0000
  S   S25       1.0  0.12382  0.28710  0.79097  1.0000
  Fe  Fe12      1.0  0.22851  0.37437  0.77411  1.0000
  H   H88       1.0  0.09268  0.37603  0.70513  1.0000
  Fe  Fe13      1.0  0.20648  0.37396  0.84869  1.0000
  S   S26       1.0  0.18906  0.40419  0.89539  1.0000
  S   S27       1.0  0.22972  0.31447  0.77112  1.0000
  S   S28       1.0  0.20442  0.31424  0.85141  1.0000
  Fe  Fe14      1.0  0.38074  0.14881  0.98712  1.0000
  C   C66       1.0  0.10857  0.48293  0.90646  1.0000
  S   S29       1.0  0.34178  0.19410  0.96981  1.0000
  H   H89       1.0  0.06329  0.39525  0.81351  1.0000
  H   H90       1.0  0.21587  0.35116  0.69692  1.0000
  H   H91       1.0  0.29517  0.10195  0.83657  1.0000
  C   C67       1.0  0.32580  0.46003  0.94673  1.0000
  N   N6        1.0  0.31584  0.36316  0.91819  1.0000
  C   C68       1.0  0.08403  0.49414  0.00121  1.0000
  S   S30       1.0  0.40522  0.10332  0.95679  1.0000
  C   C69       1.0  0.29269  0.39691  0.96898  1.0000
  C   C70       1.0  0.33265  0.33407  0.93855  1.0000
  C   C71       1.0  0.31712  0.25564  0.87175  1.0000
  C   C72       1.0  0.35145  0.23734  0.87543  1.0000
  C   C73       1.0  0.35932  0.21779  0.90490  1.0000
  C   C74       1.0  0.33303  0.21669  0.93129  1.0000
  C   C75       1.0  0.29862  0.23480  0.92752  1.0000
  C   C76       1.0  0.29046  0.25373  0.89780  1.0000
  H   H92       1.0  0.37229  0.23861  0.85545  1.0000
  H   H93       1.0  0.38606  0.20429  0.90748  1.0000
  H   H94       1.0  0.27803  0.23409  0.94773  1.0000
  H   H95       1.0  0.26365  0.26706  0.89523  1.0000
  C   C77       1.0  0.21439  0.44256  0.90588  1.0000
  C   C78       1.0  0.24105  0.45714  0.88383  1.0000
  C   C79       1.0  0.30536  0.45962  0.97676  1.0000
  C   C80       1.0  0.36811  0.01832  0.91613  1.0000
  S   S31       1.0  0.34591  0.01686  0.98247  1.0000
  C   C81       1.0  0.20658  0.45948  0.93655  1.0000
  H   H96       1.0  0.24719  0.44427  0.86010  1.0000
  C   C82       1.0  0.23181  0.40585  0.68952  1.0000
  H   H97       1.0  0.27916  0.50068  0.87475  1.0000
  H   H98       1.0  0.31458  0.32628  0.96027  1.0000
  C   C83       1.0  0.08329  0.35284  0.71886  1.0000
  C   C84       1.0  0.10730  0.33637  0.74194  1.0000
  C   C85       1.0  0.09516  0.30670  0.76032  1.0000
  C   C86       1.0  0.05901  0.29342  0.75528  1.0000
  C   C87       1.0  0.03053  0.41076  0.92004  1.0000
  H   H99       1.0  0.13532  0.34645  0.74525  1.0000
  C   C88       1.0  0.27636  0.01202  0.88136  1.0000
  N   N7        1.0  0.02475  0.35904  0.83739  1.0000
  N   N8        1.0  0.29701  0.10867  0.90518  1.0000
  C   C89       1.0  0.26792  0.13621  0.89871  1.0000
  C   C90       1.0  0.29782  0.10238  0.94205  1.0000
  C   C91       1.0  0.33417  0.12298  0.89482  1.0000
  C   C92       1.0  0.28898  0.07617  0.88555  1.0000
  H   H100      1.0  0.05833  0.31239  0.82537  1.0000
  C   C93       1.0  0.28130  0.04260  0.90080  1.0000
  H   H101      1.0  0.36041  0.34201  0.94847  1.0000
  H   H102      1.0  0.18251  0.45980  0.77137  1.0000
  C   C94       1.0  0.32979  0.42899  0.92756  1.0000
  H   H103      1.0  0.23947  0.12628  0.90556  1.0000
  H   H104      1.0  0.27298  0.16087  0.91355  1.0000
  H   H105      1.0  0.26734  0.14455  0.87190  1.0000
  H   H106      1.0  0.27030  0.09296  0.95196  1.0000
  H   H107      1.0  0.30423  0.12720  0.95612  1.0000
  H   H108      1.0  0.31980  0.08248  0.94880  1.0000
  H   H109      1.0  0.33397  0.13504  0.86928  1.0000
  H   H110      1.0  0.34367  0.14434  0.91199  1.0000
  H   H111      1.0  0.35604  0.10170  0.89487  1.0000
  C   C95       1.0  0.25895  0.48917  0.89206  1.0000
  H   H112      1.0  0.28047  0.03877  0.92772  1.0000
  C   C96       1.0  0.27762  0.35255  0.90816  1.0000
  H   H113      1.0  0.04954  0.27036  0.76933  1.0000
  H   H114      1.0  0.33703  0.30933  0.92350  1.0000
  H   H115      1.0  0.06501  0.37170  0.89678  1.0000
  C   C97       1.0  0.33895  0.36675  0.88701  1.0000
  C   C98       1.0  0.05457  0.33260  0.84556  1.0000
  S   S32       1.0  0.23796  0.41547  0.73268  1.0000
  H   H116      1.0  0.28707  0.04773  0.80353  1.0000
  H   H117      1.0  0.04424  0.36234  0.78610  1.0000
  C   C99       1.0  0.02685  0.45511  0.67663  1.0000
  H   H118      1.0  0.37436  0.04602  0.91987  1.0000
  C   C100      1.0  0.04713  0.33961  0.71385  1.0000
  H   H119      1.0  0.16029  0.44950  0.68066  1.0000
  H   H120      1.0  0.33751  0.48498  0.93775  1.0000
  Fe  Fe15      1.0  0.37550  0.06812  0.99397  1.0000
  H   H121      1.0  0.18642  0.44799  0.95393  1.0000
  C   C101      1.0  0.13218  0.46410  0.80171  1.0000
  H   H122      1.0  0.24661  0.45898  0.67365  1.0000
  H   H123      1.0  0.32674  0.38679  0.86953  1.0000
  C   C102      1.0  0.03494  0.30998  0.73224  1.0000
  H   H124      1.0  0.21803  0.50434  0.96835  1.0000
  C   C103      1.0  0.13632  0.50003  0.85312  1.0000
  H   H125      1.0  0.34524  0.43155  0.90421  1.0000
  H   H126      1.0  0.26302  0.37496  0.89538  1.0000
  H   H127      1.0  0.27872  0.37332  0.97828  1.0000
  H   H128      1.0  0.04761  0.31754  0.86893  1.0000
  H   H129      1.0  0.08758  0.46519  0.89487  1.0000
  H   H130      1.0  0.05152  0.44031  0.68445  1.0000
  H   H131      1.0  0.25961  0.34465  0.92989  1.0000
  C   C104      1.0  0.03960  0.38721  0.89390  1.0000
  C   C105      1.0  0.31332  0.39634  0.93822  1.0000
  H   H132      1.0  0.08260  0.34517  0.84817  1.0000
  H   H133      1.0  0.36834  0.37417  0.89269  1.0000
  C   C106      1.0  0.28509  0.04650  0.83072  1.0000
  H   H134      1.0  0.34046  0.34125  0.87265  1.0000
  C   C107      1.0  0.28988  0.07731  0.84988  1.0000
  H   H135      1.0  0.04816  0.41222  0.94207  1.0000
  H   H136      1.0  0.27828  0.32960  0.89052  1.0000
  C   C108      1.0  0.03751  0.37995  0.80783  1.0000
  C   C109      1.0  0.22431  0.49152  0.94468  1.0000
  Fe  Fe16      1.0  0.45208  0.10231  0.99453  1.0000
  H   H137      1.0  0.11627  0.44690  0.78543  1.0000
  C   C110      1.0  0.25006  0.50679  0.92221  1.0000
  C   C111      1.0  0.28884  0.42813  0.98789  1.0000
  C   C112      1.0  0.19051  0.49268  0.81482  1.0000
  C   C113      1.0  0.11577  0.47805  0.83102  1.0000
  H   H138      1.0  0.08705  0.47095  0.83664  1.0000
  C   C114      1.0  0.22068  0.37215  0.67871  1.0000
  C   C115      1.0  0.16952  0.47134  0.79369  1.0000
  H   H139      1.0  0.13367  0.46616  0.91191  1.0000
  H   H140      1.0  0.37845  0.02041  0.86267  1.0000
  C   C116      1.0  0.04546  0.48882  0.99730  1.0000
  H   H141      1.0  0.50075  0.01675  0.91667  1.0000
  H   H142      1.0  0.09632  0.49184  0.93088  1.0000
  S   S33       1.0  0.01805  0.36038  0.68421  1.0000
  H   H143      1.0  0.21980  0.49755  0.80880  1.0000
  S   S34       1.0  0.51281  0.08955  0.98025  1.0000
  C   C117      1.0  0.17434  0.50701  0.84406  1.0000
  C   C118      1.0  0.27876  0.01386  0.84646  1.0000
  H   H144      1.0  0.30150  0.48407  0.99092  1.0000
  C   C119      1.0  0.01607  0.38383  0.86543  1.0000
  Fe  Fe17      1.0  0.21483  0.70918  0.26068  1.0000
  S   S35       1.0  0.19065  0.75292  0.29298  1.0000
  S   S36       1.0  0.21200  0.72018  0.20450  1.0000
  H   H145      1.0  0.14627  0.66265  0.19982  1.0000
  H   H146      1.0  0.16776  0.56988  0.14350  1.0000
  H   H147      1.0  0.07144  0.78781  0.24223  1.0000
  Fe  Fe18      1.0  0.16126  0.70928  0.32108  1.0000
  C   C120      1.0  0.23862  0.73651  0.04228  1.0000
  H   H148      1.0  0.10810  0.63254  0.20885  1.0000
  H   H149      1.0  0.11756  0.67016  0.23525  1.0000
  S   S37       1.0  0.18221  0.66628  0.28678  1.0000
  S   S38       1.0  0.26553  0.70211  0.29322  1.0000
  S   S39       1.0  0.22854  0.60215  0.09102  1.0000
  C   C121      1.0  0.29359  0.73706  0.11307  1.0000
  H   H150      1.0  0.11084  0.73149  0.21059  1.0000
  S   S40       1.0  0.09975  0.70480  0.33413  1.0000
  C   C122      1.0  0.21677  0.68697  0.17338  1.0000
  C   C123      1.0  0.21064  0.69616  0.13962  1.0000
  C   C124      1.0  0.21373  0.67032  0.11414  1.0000
  C   C125      1.0  0.22332  0.63519  0.12226  1.0000
  C   C126      1.0  0.22919  0.62596  0.15602  1.0000
  C   C127      1.0  0.22581  0.65171  0.18155  1.0000
  H   H151      1.0  0.20347  0.72338  0.13319  1.0000
  H   H152      1.0  0.20888  0.67751  0.08826  1.0000
  H   H153      1.0  0.23675  0.59882  0.16244  1.0000
  H   H154      1.0  0.23060  0.64437  0.20746  1.0000
  C   C128      1.0  0.07037  0.72511  0.30432  1.0000
  C   C129      1.0  0.05457  0.68530  0.20720  1.0000
  C   C130      1.0  0.11472  0.64391  0.10225  1.0000
  C   C131      1.0  0.06060  0.76731  0.25881  1.0000
  C   C132      1.0  0.08398  0.75189  0.28303  1.0000
  Fe  Fe19      1.0  0.23021  0.66295  0.32254  1.0000
  H   H155      1.0  0.11242  0.76103  0.28530  1.0000
  C   C133      1.0  0.30414  0.71412  0.13912  1.0000
  C   C134      1.0  0.27548  0.78598  0.06032  1.0000
  H   H156      1.0  0.08723  0.73752  0.17131  1.0000
  C   C135      1.0  0.11793  0.65609  0.13526  1.0000
  C   C136      1.0  0.04818  0.65562  0.10436  1.0000
  C   C137      1.0  0.30214  0.74358  0.02182  1.0000
  H   H157      1.0  0.31234  0.63683  0.09553  1.0000
  C   C138      1.0  0.10879  0.56619  0.15589  1.0000
  C   C139      1.0  0.05115  0.66804  0.13735  1.0000
  C   C140      1.0  0.31142  0.67824  0.13271  1.0000
  S   S41       1.0  0.17754  0.65264  0.01581  1.0000
  C   C141      1.0  0.13549  0.55271  0.10143  1.0000
  H   H158      1.0  0.30334  0.79554  0.06869  1.0000
  S   S42       1.0  0.24999  0.60781  0.33655  1.0000
  H   H159      1.0  0.14559  0.65621  0.14576  1.0000
  H   H160      1.0  0.04289  0.55569  0.04706  1.0000
  N   N9        1.0  0.03008  0.53715  0.09747  1.0000
  H   H161      1.0  0.33190  0.74855  0.02840  1.0000
  H   H162      1.0  0.21884  0.73833  0.06409  1.0000
  C   C142      1.0  0.10634  0.71942  0.18541  1.0000
  C   C143      1.0  0.09987  0.54429  0.08962  1.0000
  H   H163      1.0  0.03560  0.70628  0.19696  1.0000
  H   H164      1.0  0.30540  0.72393  0.16471  1.0000
  C   C144      1.0  0.08627  0.66830  0.15400  1.0000
  C   C145      1.0  0.13997  0.56350  0.13454  1.0000
  C   C146      1.0  0.29001  0.72448  0.07955  1.0000
  C   C147      1.0  0.29737  0.68770  0.07404  1.0000
  Fe  Fe20      1.0  0.21931  0.61324  0.03571  1.0000
  H   H165      1.0  0.29362  0.67577  0.04969  1.0000
  N   N10       1.0  0.27693  0.74747  0.05165  1.0000
  C   C148      1.0  0.30814  0.66508  0.10021  1.0000
  H   H166      1.0  0.25413  0.79165  0.08029  1.0000
  H   H167      1.0  0.13950  0.63474  0.08856  1.0000
  H   H168      1.0  0.31840  0.66034  0.15315  1.0000
  N   N11       1.0  0.09067  0.68305  0.18825  1.0000
  Fe  Fe21      1.0  0.23896  0.74292  0.32777  1.0000
  C   C149      1.0  0.06735  0.54701  0.11054  1.0000
  C   C150      1.0  0.07990  0.64362  0.08681  1.0000
  H   H169      1.0  0.07766  0.63445  0.06107  1.0000
  H   H170      1.0  0.28752  0.76426  0.12011  1.0000
  C   C151      1.0  0.11667  0.66093  0.20866  1.0000
  H   H171      1.0  0.13405  0.71938  0.17215  1.0000
  H   H172      1.0  0.09811  0.53538  0.06393  1.0000
  H   H173      1.0  0.02241  0.69307  0.31753  1.0000
  H   H174      1.0  0.01961  0.58764  0.07345  1.0000
  H   H175      1.0  0.26730  0.80267  0.03834  1.0000
  H   H176      1.0  0.05882  0.69275  0.23387  1.0000
  H   H177      1.0  0.22721  0.75345  0.02169  1.0000
  C   C152      1.0  0.07287  0.55844  0.14417  1.0000
  H   H178      1.0  0.11258  0.57421  0.18172  1.0000
  H   H179      1.0  0.03965  0.65936  0.20729  1.0000
  C   C153      1.0  0.03306  0.71404  0.30149  1.0000
  H   H180      1.0  0.04996  0.56140  0.16196  1.0000
  H   H181      1.0  0.30059  0.71672  0.01025  1.0000
  C   C154      1.0  0.02364  0.75564  0.25537  1.0000
  H   H182      1.0  0.02551  0.67771  0.14906  1.0000
  H   H183      1.0  0.23805  0.70858  0.03300  1.0000
  H   H184      1.0  0.15989  0.55082  0.08487  1.0000
  C   C155      1.0  0.02147  0.55878  0.06725  1.0000
  H   H185      1.0  0.02106  0.65593  0.09223  1.0000
  Fe  Fe22      1.0  0.37921  0.89214  0.49449  1.0000
  S   S43       1.0  0.34134  0.92758  0.52576  1.0000
  S   S44       1.0  0.35297  0.83947  0.47827  1.0000
  Fe  Fe23      1.0  0.44695  0.94121  0.50480  1.0000
  S   S45       1.0  0.41330  0.97911  0.53625  1.0000
  H   H186      1.0  0.13246  0.72425  0.46254  1.0000
  Fe  Fe24      1.0  0.38929  0.93072  0.56149  1.0000
  S   S46       1.0  0.38224  0.93722  0.61776  1.0000
  Fe  Fe25      1.0  0.36895  0.97249  0.49780  1.0000
  C   C156      1.0  0.37952  0.83906  0.66199  1.0000
  S   S47       1.0  0.42603  0.89255  0.53254  1.0000
  S   S48       1.0  0.40380  0.93733  0.46386  1.0000
  C   C157      1.0  0.37597  0.90175  0.64645  1.0000
  C   C158      1.0  0.38107  0.86603  0.63724  1.0000
  C   C159      1.0  0.33505  0.61680  0.39151  1.0000
  S   S49       1.0  0.20695  0.70295  0.35922  1.0000
  C   C160      1.0  0.05304  0.56850  0.41326  1.0000
  H   H187      1.0  0.38439  0.70920  0.41914  1.0000
  H   H188      1.0  0.38697  0.85930  0.61127  1.0000
  H   H189      1.0  0.38410  0.81153  0.65493  1.0000
  H   H190      1.0  0.29325  0.67053  0.36089  1.0000
  H   H191      1.0  0.20080  0.83441  0.37402  1.0000
  C   C161      1.0  0.12244  0.63336  0.40870  1.0000
  C   C162      1.0  0.33481  0.84638  0.41071  1.0000
  C   C163      1.0  0.33083  0.82680  0.44046  1.0000
  C   C164      1.0  0.30902  0.79566  0.44029  1.0000
  C   C165      1.0  0.29117  0.78428  0.41080  1.0000
  H   H192      1.0  0.35211  0.86994  0.41025  1.0000
  H   H193      1.0  0.30570  0.78043  0.46326  1.0000
  H   H194      1.0  0.27391  0.76072  0.41123  1.0000
  C   C166      1.0  0.24382  0.59064  0.37752  1.0000
  C   C167      1.0  0.23962  0.61299  0.40544  1.0000
  C   C168      1.0  0.23859  0.59830  0.43803  1.0000
  C   C169      1.0  0.24050  0.56120  0.44276  1.0000
  C   C170      1.0  0.24298  0.53891  0.41473  1.0000
  C   C171      1.0  0.24505  0.55361  0.38228  1.0000
  H   H195      1.0  0.23684  0.61565  0.45967  1.0000
  H   H196      1.0  0.36085  0.99494  0.41930  1.0000
  C   C172      1.0  0.03685  0.57443  0.50893  1.0000
  H   H197      1.0  0.09466  0.59009  0.51337  1.0000
  C   C173      1.0  0.07570  0.56811  0.50951  1.0000
  C   C174      1.0  0.07794  0.70587  0.47831  1.0000
  C   C175      1.0  0.21544  0.88995  0.37283  1.0000
  H   H198      1.0  0.33636  0.72084  0.42999  1.0000
  C   C176      1.0  0.01642  0.60602  0.36238  1.0000
  H   H199      1.0  0.32994  0.61579  0.36481  1.0000
  C   C177      1.0  0.07457  0.59175  0.39243  1.0000
  H   H200      1.0  0.37096  0.70625  0.34559  1.0000
  C   C178      1.0  0.05481  0.61112  0.36741  1.0000
  H   H201      1.0  0.27639  0.97937  0.39996  1.0000
  C   C179      1.0  0.49767  0.93712  0.59076  1.0000
  H   H202      1.0  0.23876  0.64154  0.40208  1.0000
  H   H203      1.0  0.22219  0.94855  0.47716  1.0000
  C   C180      1.0  0.21273  0.85646  0.38777  1.0000
  H   H204      1.0  0.34435  0.61528  0.48837  1.0000
  S   S50       1.0  0.01880  0.61760  0.51645  1.0000
  S   S51       1.0  0.24120  0.54333  0.48376  1.0000
  C   C181      1.0  0.04100  0.69944  0.46876  1.0000
  H   H205      1.0  0.05690  0.53582  0.61161  1.0000
  C   C182      1.0  0.05595  0.71976  0.41244  1.0000
  H   H206      1.0  0.08636  0.70049  0.50394  1.0000
  C   C183      1.0  0.48638  0.93960  0.62447  1.0000
  H   H207      1.0  0.25672  0.87229  0.46079  1.0000
  H   H208      1.0  0.04932  0.72617  0.38672  1.0000
  C   C184      1.0  0.13259  0.57134  0.42080  1.0000
  C   C185      1.0  0.29521  0.80387  0.38105  1.0000
  C   C186      1.0  0.23222  0.91812  0.38989  1.0000
  C   C187      1.0  0.34194  0.64954  0.40811  1.0000
  H   H209      1.0  0.16357  0.57453  0.42219  1.0000
  N   N12       1.0  0.11550  0.59673  0.39652  1.0000
  C   C188      1.0  0.22674  0.85094  0.41986  1.0000
  H   H210      1.0  0.16643  0.59296  0.36645  1.0000
  S   S52       1.0  0.50870  0.95233  0.49389  1.0000
  H   H211      1.0  0.12005  0.52847  0.50683  1.0000
  H   H212      1.0  0.31316  0.90761  0.45412  1.0000
  C   C189      1.0  0.02903  0.70543  0.43530  1.0000
  H   H213      1.0  0.32645  0.56015  0.39605  1.0000
  H   H214      1.0  0.39624  0.67079  0.36619  1.0000
  C   C190      1.0  0.33260  0.58467  0.40924  1.0000
  H   H215      1.0  0.35763  0.73912  0.39345  1.0000
  C   C191      1.0  0.09281  0.72630  0.42226  1.0000
  C   C192      1.0  0.25316  0.94473  0.47602  1.0000
  C   C193      1.0  0.30734  0.93317  0.44082  1.0000
  H   H216      1.0  0.33238  0.55940  0.45778  1.0000
  H   H217      1.0  0.12872  0.56552  0.35253  1.0000
  H   H218      1.0  0.48603  0.95521  0.57228  1.0000
  S   S53       1.0  0.27324  0.79123  0.34318  1.0000
  C   C194      1.0  0.24416  0.87868  0.43691  1.0000
  H   H219      1.0  0.12843  0.61297  0.34520  1.0000
  H   H220      1.0  0.26627  0.96756  0.48934  1.0000
  C   C195      1.0  0.31701  0.83499  0.38123  1.0000
  N   N13       1.0  0.26682  0.94193  0.44066  1.0000
  C   C196      1.0  0.26222  0.97772  0.42501  1.0000
  C   C197      1.0  0.24693  0.91334  0.42269  1.0000
  C   C198      1.0  0.35595  0.71429  0.40887  1.0000
  N   N14       1.0  0.34269  0.68347  0.38894  1.0000
  H   H221      1.0  0.32027  0.85033  0.35833  1.0000
  H   H222      1.0  0.11284  0.65395  0.39048  1.0000
  C   C199      1.0  0.34241  0.61581  0.46120  1.0000
  C   C200      1.0  0.34550  0.64809  0.44368  1.0000
  H   H223      1.0  0.31886  0.93053  0.41481  1.0000
  H   H224      1.0  0.26039  0.92091  0.49133  1.0000
  H   H225      1.0  0.23401  0.94313  0.37656  1.0000
  C   C201      1.0  0.03546  0.52639  0.59368  1.0000
  H   H226      1.0  0.22554  0.82459  0.43101  1.0000
  H   H227      1.0  0.11288  0.73686  0.40412  1.0000
  C   C202      1.0  0.09010  0.53324  0.50595  1.0000
  H   H228      1.0  0.23207  0.98499  0.42248  1.0000
  H   H229      1.0  0.35003  0.67154  0.45869  1.0000
  H   H230      1.0  0.46579  0.96001  0.63030  1.0000
  H   H231      1.0  0.32349  0.95415  0.45376  1.0000
  C   C203      1.0  0.13539  0.59184  0.36378  1.0000
  C   C204      1.0  0.10385  0.71920  0.45507  1.0000
  H   H232      1.0  0.24834  0.53615  0.36081  1.0000
  H   H233      1.0  0.12171  0.57553  0.44683  1.0000
  C   C205      1.0  0.33592  0.58420  0.44403  1.0000
  C   C206      1.0  0.50038  0.91546  0.64905  1.0000
  H   H234      1.0  0.28440  0.69415  0.39921  1.0000
  H   H235      1.0  0.10736  0.63837  0.43294  1.0000
  H   H236      1.0  0.15291  0.63802  0.41269  1.0000
  H   H237      1.0  0.03526  0.54620  0.57285  1.0000
  C   C207      1.0  0.30424  0.69176  0.37750  1.0000
  C   C208      1.0  0.36778  0.68027  0.35897  1.0000
  H   H238      1.0  0.27522  0.99901  0.44039  1.0000
  H   H239      1.0  0.06520  0.55323  0.43351  1.0000
  H   H240      1.0  0.30316  0.71730  0.36313  1.0000
  H   H241      1.0  0.12767  0.54312  0.41347  1.0000
  H   H242      1.0  0.35677  0.66162  0.33986  1.0000
  H   H243      1.0  0.06897  0.63031  0.35143  1.0000
  H   H244      1.0  0.02186  0.68966  0.48790  1.0000
  H   H245      1.0  0.20517  0.89381  0.34754  1.0000
  N   N15       1.0  0.33358  0.71718  0.80240  1.0000
  H   H246      1.0  0.12974  0.53107  0.99722  1.0000
  Fe  Fe26      1.0  0.23789  0.58418  0.96575  1.0000
  S   S54       1.0  0.19742  0.62142  0.94073  1.0000
  H   H247      1.0  0.34820  0.64525  0.80631  1.0000
  Fe  Fe27      1.0  0.22079  0.66286  0.97502  1.0000
  S   S55       1.0  0.23082  0.71937  0.95656  1.0000
  H   H248      1.0  0.45094  0.94419  0.71930  1.0000
  S   S56       1.0  0.09671  0.59783  0.97404  1.0000
  H   H249      1.0  0.47262  0.93490  0.86877  1.0000
  H   H250      1.0  0.32570  0.76343  0.83384  1.0000
  Fe  Fe28      1.0  0.38066  0.89484  0.83084  1.0000
  S   S57       1.0  0.42062  0.86862  0.86636  1.0000
  S   S58       1.0  0.36089  0.95141  0.83734  1.0000
  Fe  Fe29      1.0  0.38928  0.83674  0.77837  1.0000
  S   S59       1.0  0.43079  0.80629  0.80935  1.0000
  S   S60       1.0  0.37543  0.81461  0.72737  1.0000
  Fe  Fe30      1.0  0.39117  0.81783  0.85259  1.0000
  S   S61       1.0  0.38339  0.77079  0.88799  1.0000
  Fe  Fe31      1.0  0.45605  0.85938  0.82017  1.0000
  H   H251      1.0  0.15159  0.56139  0.88899  1.0000
  S   S62       1.0  0.34769  0.84500  0.82068  1.0000
  S   S63       1.0  0.41812  0.88883  0.78558  1.0000
  C   C209      1.0  0.36140  0.96793  0.87846  1.0000
  C   C210      1.0  0.35079  0.94651  0.90570  1.0000
  C   C211      1.0  0.34702  0.96153  0.93787  1.0000
  C   C212      1.0  0.08393  0.53400  0.87687  1.0000
  H   H252      1.0  0.48556  0.98133  0.86448  1.0000
  H   H253      1.0  0.27651  0.98975  0.83164  1.0000
  H   H254      1.0  0.34365  0.91887  0.90168  1.0000
  H   H255      1.0  0.49098  0.85911  0.69308  1.0000
  C   C213      1.0  0.02317  0.51666  0.98506  1.0000
  H   H256      1.0  0.38829  0.69146  0.80038  1.0000
  H   H257      1.0  0.26966  0.61872  0.88422  1.0000
  H   H258      1.0  0.36368  0.93764  0.68741  1.0000
  C   C214      1.0  0.27305  0.73274  0.93657  1.0000
  C   C215      1.0  0.30517  0.71114  0.93684  1.0000
  C   C216      1.0  0.33871  0.72324  0.92183  1.0000
  C   C217      1.0  0.34036  0.75677  0.90608  1.0000
  C   C218      1.0  0.30812  0.77820  0.90542  1.0000
  C   C219      1.0  0.27468  0.76630  0.92085  1.0000
  H   H259      1.0  0.30425  0.68519  0.94870  1.0000
  H   H260      1.0  0.36352  0.70646  0.92233  1.0000
  H   H261      1.0  0.30911  0.80415  0.89352  1.0000
  H   H262      1.0  0.24995  0.78319  0.92060  1.0000
  C   C220      1.0  0.47139  0.96153  0.88109  1.0000
  H   H263      1.0  0.09002  0.55619  0.85902  1.0000
  H   H264      1.0  0.31949  0.60113  0.84379  1.0000
  H   H265      1.0  0.38111  0.72149  0.83483  1.0000
  C   C221      1.0  0.37470  0.71698  0.80786  1.0000
  C   C222      1.0  0.28630  0.69971  0.84822  1.0000
  C   C223      1.0  0.26980  0.67383  0.86896  1.0000
  C   C224      1.0  0.31013  0.62869  0.84474  1.0000
  C   C225      1.0  0.28193  0.63850  0.86749  1.0000
  H   H266      1.0  0.24798  0.68141  0.88692  1.0000
  H   H267      1.0  0.33423  0.77344  0.79049  1.0000
  C   C226      1.0  0.32648  0.65422  0.82354  1.0000
  C   C227      1.0  0.31996  0.75427  0.80783  1.0000
  H   H268      1.0  0.45824  0.88187  0.71957  1.0000
  H   H269      1.0  0.27620  0.72669  0.85154  1.0000
  H   H270      1.0  0.33906  0.72810  0.74926  1.0000
  H   H271      1.0  0.33699  0.94538  0.95864  1.0000
  H   H272      1.0  0.36189  0.89040  0.73079  1.0000
  C   C228      1.0  0.31534  0.69064  0.82483  1.0000
  H   H273      1.0  0.33866  0.68175  0.75970  1.0000
  H   H274      1.0  0.28941  0.75698  0.80299  1.0000
  H   H275      1.0  0.38903  0.73826  0.79303  1.0000
  C   C229      1.0  0.32648  0.70805  0.76681  1.0000
  H   H276      1.0  0.29582  0.70716  0.76188  1.0000
  H   H277      1.0  0.44118  0.96917  0.88215  1.0000
  C   C230      1.0  0.47066  0.88169  0.69377  1.0000
  C   C231      1.0  0.14326  0.53752  0.90390  1.0000
  C   C232      1.0  0.46670  0.93458  0.93559  1.0000
  C   C233      1.0  0.46046  0.94494  0.69251  1.0000
  C   C234      1.0  0.36744  0.88341  0.70485  1.0000
  S   S64       1.0  0.27130  0.54778  0.93132  1.0000
  H   H278      1.0  0.47544  0.93438  0.96230  1.0000
  C   C235      1.0  0.03933  0.54981  0.97735  1.0000
  H   H279      1.0  0.02187  0.57140  0.96825  1.0000
  Fe  Fe32      1.0  0.15834  0.60750  0.98337  1.0000
  H   H280      1.0  0.06183  0.51715  0.86578  1.0000
  N   N16       1.0  0.48825  0.96061  0.91506  1.0000
  H   H281      1.0  0.43603  0.94083  0.93569  1.0000
  C   C236      1.0  0.37352  0.84783  0.69596  1.0000
  C   C237      1.0  0.48329  0.99658  0.93010  1.0000
  S   S65       1.0  0.26428  0.62665  0.99741  1.0000
  H   H282      1.0  0.07119  0.54602  0.90003  1.0000
  C   C238      1.0  0.07775  0.55542  0.98220  1.0000
  H   H283      1.0  0.19256  0.52278  0.85948  1.0000
  H   H284      1.0  0.47042  0.90705  0.92560  1.0000
  H   H285      1.0  0.44775  0.87523  0.67613  1.0000
  C   C239      1.0  0.10011  0.52733  0.99377  1.0000
  H   H286      1.0  0.43483  0.94215  0.67719  1.0000
  H   H287      1.0  0.49132  0.99740  0.95699  1.0000
  C   C240      1.0  0.35518  0.99758  0.94303  1.0000
  H   H288      1.0  0.27226  0.98639  0.89351  1.0000
  N   N17       1.0  0.48816  0.91626  0.68477  1.0000
  C   C241      1.0  0.37042  0.00375  0.88377  1.0000
  H   H289      1.0  0.50842  0.82476  0.76641  1.0000
  H   H290      1.0  0.51273  0.92210  0.73372  1.0000
  H   H291      1.0  0.45350  0.00581  0.92933  1.0000
  H   H292      1.0  0.47229  0.97186  0.68772  1.0000
  C   C242      1.0  0.36824  0.91014  0.68017  1.0000
  H   H293      1.0  0.29444  0.76239  0.00126  1.0000
  H   H294      1.0  0.16894  0.52351  0.91235  1.0000
  H   H295      1.0  0.12920  0.54760  0.92711  1.0000
  S   S66       1.0  0.19717  0.56722  0.00599  1.0000
  N   N18       1.0  0.11860  0.51354  0.88453  1.0000
  C   C243      1.0  0.54164  0.10025  0.07383  1.0000
  H   H296      1.0  0.77789  0.26598  0.04821  1.0000
  Fe  Fe33      1.0  0.90214  0.38789  0.03368  1.0000
  C   C244      1.0  0.88569  0.36320  0.14888  1.0000
  S   S67       1.0  0.89300  0.33302  0.05672  1.0000
  Fe  Fe34      1.0  0.88963  0.46797  0.03931  1.0000
  H   H297      1.0  0.56223  0.14947  0.29566  1.0000
  C   C245      1.0  0.52299  0.19326  0.29931  1.0000
  S   S68       1.0  0.93331  0.43108  0.06025  1.0000
  Fe  Fe35      1.0  0.73054  0.24486  0.17561  1.0000
  S   S69       1.0  0.76129  0.19761  0.19797  1.0000
  S   S70       1.0  0.74774  0.29235  0.14313  1.0000
  Fe  Fe36      1.0  0.65776  0.22841  0.21477  1.0000
  S   S71       1.0  0.68250  0.18093  0.24038  1.0000
  S   S72       1.0  0.59908  0.24973  0.22313  1.0000
  Fe  Fe37      1.0  0.73378  0.21402  0.24707  1.0000
  S   S73       1.0  0.76280  0.22181  0.29690  1.0000
  Fe  Fe38      1.0  0.70726  0.16800  0.18953  1.0000
  S   S74       1.0  0.69465  0.11115  0.17509  1.0000
  S   S75       1.0  0.70697  0.26292  0.22537  1.0000
  S   S76       1.0  0.67871  0.21369  0.16332  1.0000
  C   C246      1.0  0.59312  0.11201  0.20108  1.0000
  C   C247      1.0  0.79218  0.30100  0.00709  1.0000
  H   H298      1.0  0.61654  0.09460  0.20711  1.0000
  H   H299      1.0  0.62855  0.15473  0.18483  1.0000
  C   C248      1.0  0.71835  0.08772  0.14298  1.0000
  C   C249      1.0  0.74938  0.10180  0.12585  1.0000
  C   C250      1.0  0.76708  0.08191  0.10013  1.0000
  C   C251      1.0  0.75318  0.04842  0.09098  1.0000
  C   C252      1.0  0.72184  0.03473  0.10787  1.0000
  C   C253      1.0  0.70488  0.05408  0.13410  1.0000
  H   H300      1.0  0.75995  0.12773  0.13263  1.0000
  H   H301      1.0  0.79139  0.09259  0.08715  1.0000
  C   C254      1.0  0.63238  0.11438  0.10443  1.0000
  H   H302      1.0  0.68106  0.04299  0.14751  1.0000
  H   H303      1.0  0.61794  0.14037  0.10888  1.0000
  C   C255      1.0  0.53751  0.24448  0.26430  1.0000
  C   C256      1.0  0.57043  0.22768  0.25272  1.0000
  C   C257      1.0  0.57931  0.19343  0.26418  1.0000
  C   C258      1.0  0.55548  0.17616  0.28725  1.0000
  S   S77       1.0  0.85620  0.42411  0.01577  1.0000
  H   H304      1.0  0.60414  0.17995  0.25490  1.0000
  H   H305      1.0  0.72243  0.15506  0.29865  1.0000
  C   C259      1.0  0.85278  0.32204  0.08110  1.0000
  C   C260      1.0  0.85035  0.28818  0.09621  1.0000
  C   C261      1.0  0.81856  0.27855  0.11557  1.0000
  C   C262      1.0  0.78878  0.30269  0.11963  1.0000
  C   C263      1.0  0.79116  0.33642  0.10431  1.0000
  C   C264      1.0  0.82307  0.34619  0.08534  1.0000
  H   H306      1.0  0.87321  0.26933  0.09297  1.0000
  H   H307      1.0  0.81698  0.25242  0.12702  1.0000
  H   H308      1.0  0.76825  0.35526  0.10737  1.0000
  H   H309      1.0  0.82464  0.37237  0.07401  1.0000
  C   C265      1.0  0.72670  0.16357  0.32421  1.0000
  C   C266      1.0  0.63279  0.05843  0.07473  1.0000
  N   N19       1.0  0.82205  0.30831  0.22614  1.0000
  C   C267      1.0  0.84318  0.30874  0.25799  1.0000
  C   C268      1.0  0.78427  0.32383  0.23312  1.0000
  C   C269      1.0  0.81659  0.27071  0.21600  1.0000
  C   C270      1.0  0.84341  0.32758  0.19965  1.0000
  C   C271      1.0  0.87936  0.31504  0.18908  1.0000
  C   C272      1.0  0.82970  0.35904  0.18378  1.0000
  H   H310      1.0  0.82749  0.29489  0.27863  1.0000
  H   H311      1.0  0.87075  0.29491  0.25561  1.0000
  H   H312      1.0  0.54379  0.11535  0.05074  1.0000
  C   C273      1.0  0.55635  0.10072  0.20615  1.0000
  H   H313      1.0  0.76885  0.30850  0.25291  1.0000
  H   H314      1.0  0.76648  0.32333  0.21026  1.0000
  H   H315      1.0  0.84334  0.25561  0.21348  1.0000
  H   H316      1.0  0.79929  0.25589  0.23486  1.0000
  H   H317      1.0  0.80218  0.26928  0.19141  1.0000
  H   H318      1.0  0.89162  0.29131  0.19989  1.0000
  H   H319      1.0  0.80239  0.37025  0.18943  1.0000
  H   H320      1.0  0.83952  0.40006  0.14663  1.0000
  H   H321      1.0  0.78602  0.35171  0.24235  1.0000
  C   C274      1.0  0.89992  0.33248  0.16386  1.0000
  H   H322      1.0  0.52699  0.23173  0.19124  1.0000
  C   C275      1.0  0.59991  0.14596  0.18839  1.0000
  H   H323      1.0  0.90123  0.37610  0.12868  1.0000
  H   H324      1.0  0.66179  0.06211  0.06457  1.0000
  H   H325      1.0  0.58947  0.05573  0.13511  1.0000
  C   C276      1.0  0.52631  0.12345  0.19860  1.0000
  C   C277      1.0  0.53231  0.15864  0.18647  1.0000
  H   H326      1.0  0.57777  0.19528  0.17216  1.0000
  H   H327      1.0  0.52820  0.22080  0.14702  1.0000
  H   H328      1.0  0.66192  0.11996  0.09663  1.0000
  H   H329      1.0  0.84853  0.33657  0.26622  1.0000
  H   H330      1.0  0.92672  0.32180  0.15532  1.0000
  C   C278      1.0  0.57019  0.16907  0.18112  1.0000
  H   H331      1.0  0.63575  0.04342  0.09859  1.0000
  C   C279      1.0  0.61498  0.11216  0.04645  1.0000
  H   H332      1.0  0.64462  0.11565  0.03790  1.0000
  C   C280      1.0  0.56663  0.06651  0.12056  1.0000
  S   S78       1.0  0.86081  0.50669  0.07477  1.0000
  H   H333      1.0  0.60057  0.09718  0.02624  1.0000
  H   H334      1.0  0.60242  0.13933  0.04820  1.0000
  C   C281      1.0  0.85082  0.37659  0.15899  1.0000
  Fe  Fe39      1.0  0.96334  0.44021  0.01103  1.0000
  C   C282      1.0  0.57357  0.08652  0.09080  1.0000
  H   H335      1.0  0.53044  0.27096  0.25543  1.0000
  H   H336      1.0  0.61782  0.04081  0.05713  1.0000
  H   H337      1.0  0.63397  0.10052  0.12908  1.0000
  H   H338      1.0  0.75629  0.21741  0.01131  1.0000
  N   N20       1.0  0.61258  0.09289  0.07906  1.0000
  H   H339      1.0  0.62439  0.24801  0.33268  1.0000
  C   C283      1.0  0.53011  0.05971  0.13198  1.0000
  H   H340      1.0  0.00299  0.49031  0.07777  1.0000
  H   H341      1.0  0.80173  0.32114  0.02422  1.0000
  C   C284      1.0  0.74648  0.19480  0.33052  1.0000
  S   S79       1.0  0.77584  0.02355  0.05915  1.0000
  H   H342      1.0  0.55111  0.07427  0.21608  1.0000
  H   H343      1.0  0.52549  0.04362  0.15428  1.0000
  C   C285      1.0  0.52152  0.03091  0.02264  1.0000
  C   C286      1.0  0.77869  0.26933  0.02108  1.0000
  H   H344      1.0  0.57900  0.22941  0.33421  1.0000
  H   H345      1.0  0.64754  0.18656  0.33493  1.0000
  C   C287      1.0  0.88569  0.13504  0.60153  1.0000
  Fe  Fe40      1.0  0.64564  0.11136  0.53003  1.0000
  S   S80       1.0  0.68390  0.07936  0.49703  1.0000
  S   S81       1.0  0.58652  0.09448  0.54404  1.0000
  Fe  Fe41      1.0  0.70569  0.16886  0.54130  1.0000
  S   S82       1.0  0.74824  0.14083  0.50806  1.0000
  S   S83       1.0  0.71377  0.21951  0.57191  1.0000
  Fe  Fe42      1.0  0.69978  0.13171  0.47316  1.0000
  S   S84       1.0  0.69489  0.12869  0.41636  1.0000
  Fe  Fe43      1.0  0.72808  0.09133  0.53473  1.0000
  H   H346      1.0  0.65735  0.03161  0.58746  1.0000
  S   S85       1.0  0.65843  0.16340  0.50436  1.0000
  S   S86       1.0  0.68861  0.11969  0.56986  1.0000
  C   C288      1.0  0.71803  0.15330  0.38439  1.0000
  C   C289      1.0  0.60170  0.23948  0.35043  1.0000
  H   H347      1.0  0.85716  0.11421  0.54511  1.0000
  H   H348      1.0  0.69717  0.11895  0.34565  1.0000
  C   C290      1.0  0.75293  0.20473  0.36401  1.0000
  C   C291      1.0  0.73865  0.18409  0.39094  1.0000
  C   C292      1.0  0.58625  0.20121  0.39966  1.0000
  C   C293      1.0  0.96254  0.49150  0.65603  1.0000
  H   H349      1.0  0.74293  0.19235  0.41662  1.0000
  C   C294      1.0  0.56596  0.05474  0.52970  1.0000
  C   C295      1.0  0.57923  0.09540  0.39957  1.0000
  N   N21       1.0  0.84630  0.12298  0.59813  1.0000
  H   H350      1.0  0.72799  0.07245  0.61166  1.0000
  C   C296      1.0  0.82618  0.25474  0.61636  1.0000
  C   C297      1.0  0.82558  0.23236  0.58808  1.0000
  C   C298      1.0  0.79138  0.22126  0.57435  1.0000
  C   C299      1.0  0.75737  0.23252  0.58870  1.0000
  C   C300      1.0  0.75790  0.25538  0.61664  1.0000
  C   C301      1.0  0.79213  0.26625  0.63061  1.0000
  H   H351      1.0  0.85176  0.22343  0.57683  1.0000
  H   H352      1.0  0.79115  0.20437  0.55241  1.0000
  H   H353      1.0  0.73164  0.26401  0.62798  1.0000
  H   H354      1.0  0.73467  0.35831  0.57953  1.0000
  C   C302      1.0  0.99677  0.49785  0.63843  1.0000
  H   H355      1.0  0.81566  0.34040  0.63656  1.0000
  C   C303      1.0  0.75426  0.15529  0.63740  1.0000
  C   C304      1.0  0.86676  0.46210  0.62825  1.0000
  C   C305      1.0  0.88403  0.44272  0.60225  1.0000
  C   C306      1.0  0.88833  0.45803  0.57014  1.0000
  H   H356      1.0  0.89341  0.41574  0.60652  1.0000
  H   H357      1.0  0.90068  0.44253  0.54989  1.0000
  C   C307      1.0  0.58554  0.03018  0.50954  1.0000
  N   N22       1.0  0.61501  0.21181  0.37439  1.0000
  H   H358      1.0  0.60174  0.16812  0.34214  1.0000
  C   C308      1.0  0.82144  0.35677  0.61381  1.0000
  H   H359      1.0  0.63857  0.15892  0.37093  1.0000
  H   H360      1.0  0.84265  0.37697  0.62067  1.0000
  N   N23       1.0  0.78693  0.37427  0.60124  1.0000
  C   C309      1.0  0.77030  0.39514  0.62950  1.0000
  C   C310      1.0  0.52876  0.04753  0.53918  1.0000
  H   H361      1.0  0.90505  0.12070  0.58395  1.0000
  C   C311      1.0  0.53612  0.06973  0.44018  1.0000
  H   H362      1.0  0.85996  0.17358  0.64923  1.0000
  C   C312      1.0  0.71274  0.14291  0.35096  1.0000
  H   H363      1.0  0.76849  0.22872  0.36913  1.0000
  C   C313      1.0  0.56930  0.16846  0.45125  1.0000
  H   H364      1.0  0.74933  0.33138  0.61440  1.0000
  H   H365      1.0  0.77192  0.32610  0.57467  1.0000
  C   C314      1.0  0.54766  0.21038  0.39661  1.0000
  C   C315      1.0  0.78025  0.13727  0.61693  1.0000
  C   C316      1.0  0.62626  0.18000  0.35472  1.0000
  C   C317      1.0  0.81940  0.14278  0.61993  1.0000
  H   H366      1.0  0.83420  0.15576  0.55509  1.0000
  H   H367      1.0  0.79007  0.41582  0.63854  1.0000
  C   C318      1.0  0.73142  0.02976  0.64746  1.0000
  H   H368      1.0  0.62439  0.16940  0.43049  1.0000
  C   C319      1.0  0.73727  0.04548  0.61587  1.0000
  C   C320      1.0  0.76646  0.17892  0.66177  1.0000
  H   H369      1.0  0.85216  0.08015  0.63380  1.0000
  C   C321      1.0  0.79998  0.45350  0.54149  1.0000
  C   C322      1.0  0.80470  0.18459  0.66580  1.0000
  H   H370      1.0  0.58955  0.02699  0.60462  1.0000
  H   H371      1.0  0.83464  0.33838  0.59518  1.0000
  S   S87       1.0  0.91665  0.35635  0.64808  1.0000
  C   C323      1.0  0.81207  0.37996  0.54215  1.0000
  H   H372      1.0  0.76394  0.37797  0.65171  1.0000
  H   H373      1.0  0.72443  0.15159  0.63380  1.0000
  H   H374      1.0  0.61418  0.03546  0.50195  1.0000
  H   H375      1.0  0.81641  0.07342  0.60345  1.0000
  C   C324      1.0  0.79057  0.43375  0.57019  1.0000
  H   H376      1.0  0.77971  0.44876  0.59132  1.0000
  H   H377      1.0  0.79211  0.28262  0.65293  1.0000
  H   H378      1.0  0.64103  0.24900  0.40781  1.0000
  C   C325      1.0  0.84488  0.08461  0.60700  1.0000
  Fe  Fe44      1.0  0.88501  0.31010  0.67046  1.0000
  H   H379      1.0  0.83446  0.38724  0.49199  1.0000
  S   S88       1.0  0.87012  0.26571  0.63384  1.0000
  H   H380      1.0  0.66349  0.20605  0.40647  1.0000
  H   H381      1.0  0.59642  0.06822  0.44439  1.0000
  H   H382      1.0  0.59128  0.26365  0.36385  1.0000
  H   H383      1.0  0.76940  0.11921  0.59843  1.0000
  C   C326      1.0  0.83622  0.12714  0.56220  1.0000
  H   H384      1.0  0.88821  0.16407  0.59586  1.0000
  S   S89       1.0  0.76667  0.04701  0.55156  1.0000
  H   H385      1.0  0.89645  0.12996  0.62724  1.0000
  C   C327      1.0  0.54893  0.10698  0.38053  1.0000
  H   H386      1.0  0.81738  0.35156  0.54126  1.0000
  C   C328      1.0  0.79634  0.39620  0.57134  1.0000
  C   C329      1.0  0.87645  0.49318  0.56402  1.0000
  C   C330      1.0  0.75611  0.02665  0.59042  1.0000
  H   H387      1.0  0.80909  0.11441  0.55616  1.0000
  H   H388      1.0  0.74356  0.40833  0.62220  1.0000
  C   C331      1.0  0.75959  0.34641  0.59199  1.0000
  C   C332      1.0  0.57280  0.07694  0.42944  1.0000
  C   C333      1.0  0.59606  0.17918  0.42735  1.0000
  H   H389      1.0  0.82442  0.45262  0.49189  1.0000
  C   C334      1.0  0.81589  0.43681  0.51350  1.0000
  H   H390      1.0  0.86431  0.06840  0.59101  1.0000
  C   C335      1.0  0.82181  0.40008  0.51376  1.0000
  H   H391      1.0  0.67008  0.23570  0.37245  1.0000
  H   H392      1.0  0.79644  0.48227  0.54140  1.0000
  C   C336      1.0  0.64867  0.22630  0.39107  1.0000
  H   H393      1.0  0.60776  0.10091  0.39140  1.0000
  C   C337      1.0  0.85534  0.49739  0.62219  1.0000
  H   H394      1.0  0.57759  0.15175  0.47226  1.0000
  H   H395      1.0  0.97727  0.48418  0.57530  1.0000
  C   C338      1.0  0.52104  0.19919  0.42045  1.0000
  H   H396      1.0  0.53249  0.05506  0.46327  1.0000
  H   H397      1.0  0.00781  0.48900  0.49776  1.0000
  H   H398      1.0  0.53706  0.22564  0.37568  1.0000
  C   C339      1.0  0.83094  0.16691  0.64528  1.0000
  H   H399      1.0  0.55378  0.12166  0.35740  1.0000
  H   H400      1.0  0.64304  0.01778  0.64316  1.0000
  H   H401      1.0  0.93673  0.50474  0.64897  1.0000
  H   H402      1.0  0.71747  0.04477  0.66723  1.0000
  C   C340      1.0  0.53190  0.17859  0.44788  1.0000
  S   S90       1.0  0.85758  0.44297  0.66817  1.0000
  S   S91       1.0  0.88070  0.51124  0.52319  1.0000
  Fe  Fe45      1.0  0.89377  0.33865  0.74259  1.0000
  S   S92       1.0  0.92820  0.30090  0.71055  1.0000
  S   S93       1.0  0.89186  0.32463  0.79830  1.0000
  H   H403      1.0  0.79670  0.39675  0.96067  1.0000
  H   H404      1.0  0.85215  0.34425  0.99521  1.0000
  H   H405      1.0  0.00723  0.29942  0.72838  1.0000
  C   C341      1.0  0.57215  0.04241  0.98344  1.0000
  Fe  Fe46      1.0  0.95612  0.35016  0.69107  1.0000
  C   C342      1.0  0.84852  0.34396  0.96752  1.0000
  S   S94       1.0  0.84789  0.34395  0.70403  1.0000
  S   S95       1.0  0.92425  0.38726  0.72506  1.0000
  S   S96       1.0  0.93679  0.39316  0.98608  1.0000
  Fe  Fe47      1.0  0.89302  0.43249  0.96997  1.0000
  S   S97       1.0  0.87016  0.43638  0.91706  1.0000
  H   H406      1.0  0.99134  0.43074  0.71395  1.0000
  H   H407      1.0  0.80321  0.01932  0.80476  1.0000
  C   C343      1.0  0.59254  0.01340  0.99665  1.0000
  C   C344      1.0  0.88834  0.35704  0.83044  1.0000
  C   C345      1.0  0.89939  0.34792  0.86316  1.0000
  C   C346      1.0  0.89612  0.37265  0.88959  1.0000
  C   C347      1.0  0.87992  0.40617  0.88387  1.0000
  C   C348      1.0  0.86922  0.41539  0.85110  1.0000
  C   C349      1.0  0.87397  0.39117  0.82437  1.0000
  H   H408      1.0  0.91053  0.32154  0.86806  1.0000
  H   H409      1.0  0.90549  0.36546  0.91440  1.0000
  H   H410      1.0  0.85674  0.44128  0.84640  1.0000
  H   H411      1.0  0.86528  0.39849  0.79931  1.0000
  H   H412      1.0  0.86055  0.36933  0.95787  1.0000
  H   H413      1.0  0.97832  0.32488  0.85018  1.0000
  C   C350      1.0  0.97549  0.43024  0.89044  1.0000
  C   C351      1.0  0.80706  0.34267  0.92063  1.0000
  H   H414      1.0  0.99737  0.31782  0.80869  1.0000
  C   C352      1.0  0.78707  0.37095  0.97173  1.0000
  C   C353      1.0  0.76658  0.24201  0.00034  1.0000
  S   S98       1.0  0.92179  0.48027  0.99187  1.0000
  C   C354      1.0  0.79386  0.30646  0.97180  1.0000
  H   H415      1.0  0.78211  0.27938  0.92418  1.0000
  C   C355      1.0  0.76798  0.24630  0.96553  1.0000
  H   H416      1.0  0.58411  0.05795  0.96306  1.0000
  H   H417      1.0  0.77781  0.34013  0.91157  1.0000
  Fe  Fe48      1.0  0.88229  0.38968  0.68348  1.0000
  N   N24       1.0  0.80873  0.34026  0.95788  1.0000
  C   C356      1.0  0.99847  0.43207  0.91839  1.0000
  H   H418      1.0  0.79021  0.37371  0.99936  1.0000
  C   C357      1.0  0.78147  0.27797  0.95128  1.0000
  H   H419      1.0  0.93402  0.46294  0.69566  1.0000
  C   C358      1.0  0.99090  0.33857  0.82796  1.0000
  H   H420      1.0  0.82513  0.32210  0.90823  1.0000
  H   H421      1.0  0.74619  0.19355  0.67697  1.0000
  C   C359      1.0  0.99282  0.44957  0.69330  1.0000
  H   H422      1.0  0.75873  0.22485  0.94949  1.0000
  H   H423      1.0  0.81411  0.20384  0.68411  1.0000
  H   H424      1.0  0.95036  0.44673  0.88938  1.0000
  H   H425      1.0  0.99128  0.44984  0.93899  1.0000
  C   C360      1.0  0.98417  0.40671  0.86420  1.0000
  H   H426      1.0  0.75661  0.36828  0.96655  1.0000
  H   H427      1.0  0.96533  0.40643  0.84312  1.0000
  H   H428      1.0  0.86599  0.32156  0.95756  1.0000
  H   H429      1.0  0.96879  0.35544  0.81641  1.0000
  C   C361      1.0  0.53662  0.05158  0.99652  1.0000
  H   H430      1.0  0.78661  0.03265  0.86314  1.0000
  H   H431      1.0  0.81742  0.36890  0.91123  1.0000
  C   C362      1.0  0.96071  0.46766  0.68299  1.0000
  H   H432      1.0  0.01561  0.39910  0.79930  1.0000
  Fe  Fe49      1.0  0.92011  0.67915  0.16542  1.0000
  S   S99       1.0  0.91812  0.73896  0.16158  1.0000
  S   S100      1.0  0.94142  0.64872  0.11978  1.0000
  Fe  Fe50      1.0  0.89802  0.67952  0.24025  1.0000
  S   S101      1.0  0.89304  0.73927  0.24200  1.0000
  S   S102      1.0  0.89643  0.63957  0.28327  1.0000
  Fe  Fe51      1.0  0.86467  0.73501  0.19156  1.0000
  S   S103      1.0  0.81187  0.76721  0.17926  1.0000
  Fe  Fe52      1.0  0.94644  0.73825  0.21162  1.0000
  H   H433      1.0  0.76090  0.92431  0.12857  1.0000
  S   S104      1.0  0.86467  0.67473  0.19259  1.0000
  S   S105      1.0  0.95336  0.67909  0.21267  1.0000
  H   H434      1.0  0.92065  0.54827  0.04395  1.0000
  S   S106      1.0  0.60293  0.95747  0.04187  1.0000
  Fe  Fe53      1.0  0.73447  0.89864  0.03214  1.0000
  H   H435      1.0  0.84947  0.67903  0.03702  1.0000
  S   S107      1.0  0.76918  0.84865  0.04383  1.0000
  Fe  Fe54      1.0  0.74173  0.97914  0.03697  1.0000
  C   C363      1.0  0.00974  0.72917  0.27697  1.0000
  S   S108      1.0  0.70979  0.93920  0.06788  1.0000
  H   H436      1.0  0.80211  0.65556  0.14367  1.0000
  H   H437      1.0  0.80452  0.95136  0.07023  1.0000
  C   C364      1.0  0.80236  0.79270  0.14249  1.0000
  C   C365      1.0  0.82728  0.79389  0.11505  1.0000
  C   C366      1.0  0.81705  0.81192  0.08536  1.0000
  C   C367      1.0  0.78252  0.83013  0.08313  1.0000
  C   C368      1.0  0.75846  0.83053  0.11117  1.0000
  C   C369      1.0  0.76815  0.81151  0.14050  1.0000
  H   H438      1.0  0.85414  0.78048  0.11641  1.0000
  H   H439      1.0  0.83595  0.81159  0.06386  1.0000
  H   H440      1.0  0.73164  0.84409  0.10976  1.0000
  H   H441      1.0  0.74874  0.81096  0.16162  1.0000
  C   C370      1.0  0.91849  0.60945  0.10752  1.0000
  C   C371      1.0  0.89033  0.59424  0.12753  1.0000
  C   C372      1.0  0.87313  0.56250  0.11737  1.0000
  C   C373      1.0  0.88429  0.54553  0.08744  1.0000
  C   C374      1.0  0.91250  0.56075  0.06743  1.0000
  C   C375      1.0  0.92925  0.59283  0.07732  1.0000
  H   H442      1.0  0.88189  0.60676  0.15089  1.0000
  H   H443      1.0  0.85111  0.55097  0.13281  1.0000
  H   H444      1.0  0.97118  0.53512  0.11109  1.0000
  H   H445      1.0  0.95041  0.60499  0.06140  1.0000
  H   H446      1.0  0.87371  0.70550  0.31717  1.0000
  C   C376      1.0  0.77986  0.94738  0.13242  1.0000
  C   C377      1.0  0.87057  0.85153  0.17519  1.0000
  C   C378      1.0  0.99870  0.54268  0.12192  1.0000
  H   H447      1.0  0.53004  0.98664  0.05648  1.0000
  H   H448      1.0  0.80163  0.90499  0.08118  1.0000
  H   H449      1.0  0.84623  0.92544  0.07408  1.0000
  S   S109      1.0  0.99658  0.77219  0.22211  1.0000
  N   N25       1.0  0.81014  0.68337  0.09662  1.0000
  C   C379      1.0  0.79027  0.71190  0.07787  1.0000
  C   C380      1.0  0.78813  0.67614  0.12786  1.0000
  C   C381      1.0  0.81529  0.65169  0.07486  1.0000
  C   C382      1.0  0.80000  0.61776  0.08296  1.0000
  H   H450      1.0  0.77853  0.95554  0.15928  1.0000
  H   H451      1.0  0.89000  0.91105  0.11360  1.0000
  H   H452      1.0  0.91879  0.86127  0.14381  1.0000
  H   H453      1.0  0.82816  0.99503  0.11248  1.0000
  H   H454      1.0  0.78398  0.73542  0.09410  1.0000
  C   C383      1.0  0.80644  0.58825  0.06221  1.0000
  H   H455      1.0  0.75913  0.66739  0.12221  1.0000
  H   H456      1.0  0.78523  0.70045  0.14386  1.0000
  H   H457      1.0  0.99593  0.57121  0.12942  1.0000
  H   H458      1.0  0.76310  0.70219  0.06806  1.0000
  H   H459      1.0  0.80702  0.72207  0.05617  1.0000
  H   H460      1.0  0.84404  0.97884  0.15249  1.0000
  H   H461      1.0  0.76789  0.96999  0.11773  1.0000
  H   H462      1.0  0.78808  0.89587  0.17324  1.0000
  H   H463      1.0  0.78366  0.61299  0.10550  1.0000
  C   C384      1.0  0.83686  0.65415  0.04470  1.0000
  H   H464      1.0  0.87005  0.96910  0.11456  1.0000
  C   C385      1.0  0.84738  0.69670  0.10679  1.0000
  H   H465      1.0  0.81843  0.84697  0.20221  1.0000
  H   H466      1.0  0.86387  0.70795  0.08546  1.0000
  C   C386      1.0  0.83621  0.90914  0.14042  1.0000
  C   C387      1.0  0.87851  0.68515  0.33597  1.0000
  Fe  Fe55      1.0  0.66446  0.94743  0.02921  1.0000
  C   C388      1.0  0.57761  0.99313  0.02318  1.0000
  H   H467      1.0  0.84481  0.71820  0.12589  1.0000
  C   C389      1.0  0.81788  0.92978  0.08525  1.0000
  H   H468      1.0  0.79569  0.56226  0.06934  1.0000
  C   C390      1.0  0.89039  0.86964  0.15016  1.0000
  H   H469      1.0  0.88328  0.82900  0.18801  1.0000
  N   N26       1.0  0.81891  0.93893  0.12144  1.0000
  H   H470      1.0  0.98119  0.72003  0.27449  1.0000
  H   H471      1.0  0.86456  0.67484  0.11783  1.0000
  C   C391      1.0  0.87361  0.89806  0.13302  1.0000
  C   C392      1.0  0.84135  0.97178  0.12548  1.0000
  H   H472      1.0  0.00207  0.52592  0.14480  1.0000
  C   C393      1.0  0.83399  0.86186  0.18328  1.0000
  C   C394      1.0  0.89019  0.65105  0.32606  1.0000
  C   C395      1.0  0.81680  0.89007  0.16617  1.0000
  C   C396      1.0  0.54185  0.00192  0.03586  1.0000
  H   H473      1.0  0.99439  0.55085  0.05592  1.0000
  H   H474      1.0  0.71086  0.00904  0.10102  1.0000
  C   C397      1.0  0.82822  0.59148  0.03310  1.0000
  C   C398      1.0  0.84332  0.62438  0.02428  1.0000
  H   H475      1.0  0.83410  0.56812  0.01784  1.0000
  Fe  Fe56      1.0  0.88903  0.57072  0.51996  1.0000
  S   S110      1.0  0.92246  0.59474  0.56103  1.0000
  H   H476      1.0  0.75059  0.82445  0.43045  1.0000
  Fe  Fe57      1.0  0.88624  0.64081  0.48025  1.0000
  S   S111      1.0  0.92015  0.66953  0.51896  1.0000
  S   S112      1.0  0.86752  0.67636  0.43739  1.0000
  Fe  Fe58      1.0  0.95550  0.61954  0.51898  1.0000
  H   H477      1.0  0.99879  0.54604  0.42452  1.0000
  Fe  Fe59      1.0  0.88327  0.64176  0.55684  1.0000
  S   S113      1.0  0.85353  0.66245  0.60379  1.0000
  S   S114      1.0  0.92426  0.59311  0.47765  1.0000
  S   S115      1.0  0.84705  0.61570  0.51823  1.0000
  H   H478      1.0  0.80030  0.72266  0.44934  1.0000
  H   H479      1.0  0.85131  0.54018  0.58591  1.0000
  H   H480      1.0  0.98268  0.55015  0.50379  1.0000
  C   C399      1.0  0.59047  0.99791  0.59884  1.0000
  H   H481      1.0  0.78365  0.77013  0.41033  1.0000
  H   H482      1.0  0.77036  0.94823  0.63238  1.0000
  H   H483      1.0  0.68346  0.99126  0.57953  1.0000
  C   C400      1.0  0.76120  0.97538  0.62789  1.0000
  C   C401      1.0  0.76819  0.99160  0.59656  1.0000
  H   H484      1.0  0.64050  0.92121  0.64171  1.0000
  H   H485      1.0  0.83698  0.69648  0.53740  1.0000
  C   C402      1.0  0.77276  0.68408  0.50479  1.0000
  C   C403      1.0  0.82759  0.71757  0.51961  1.0000
  H   H486      1.0  0.74220  0.68514  0.49948  1.0000
  C   C404      1.0  0.84143  0.70727  0.61295  1.0000
  C   C405      1.0  0.85830  0.73581  0.59608  1.0000
  C   C406      1.0  0.84609  0.77095  0.60248  1.0000
  C   C407      1.0  0.81742  0.77795  0.62621  1.0000
  C   C408      1.0  0.80131  0.74949  0.64380  1.0000
  C   C409      1.0  0.81333  0.71431  0.63719  1.0000
  H   H487      1.0  0.88069  0.73081  0.57808  1.0000
  C   C410      1.0  0.56777  0.99880  0.49883  1.0000
  H   H488      1.0  0.78773  0.67543  0.48145  1.0000
  C   C411      1.0  0.96421  0.72313  0.44281  1.0000
  C   C412      1.0  0.53680  0.88651  0.60382  1.0000
  C   C413      1.0  0.87177  0.69254  0.37021  1.0000
  C   C414      1.0  0.87719  0.66612  0.39479  1.0000
  C   C415      1.0  0.88992  0.63233  0.38500  1.0000
  C   C416      1.0  0.77073  0.72365  0.55196  1.0000
  H   H489      1.0  0.00206  0.62041  0.34255  1.0000
  H   H490      1.0  0.86193  0.71876  0.37758  1.0000
  H   H491      1.0  0.89389  0.61168  0.40365  1.0000
  H   H492      1.0  0.95198  0.65288  0.42649  1.0000
  H   H493      1.0  0.85891  0.79289  0.58899  1.0000
  H   H494      1.0  0.57032  0.98405  0.61592  1.0000
  C   C417      1.0  0.62096  0.93502  0.55859  1.0000
  C   C418      1.0  0.75708  0.77972  0.50475  1.0000
  C   C419      1.0  0.62894  0.87243  0.57162  1.0000
  C   C420      1.0  0.75744  0.80329  0.44800  1.0000
  H   H495      1.0  0.73957  0.72546  0.55206  1.0000
  H   H496      1.0  0.78286  0.97689  0.57700  1.0000
  H   H497      1.0  0.77750  0.66229  0.52337  1.0000
  H   H498      1.0  0.97210  0.52951  0.56147  1.0000
  H   H499      1.0  0.95693  0.56039  0.63079  1.0000
  N   N27       1.0  0.99788  0.52332  0.60999  1.0000
  H   H500      1.0  0.74960  0.78451  0.53075  1.0000
  H   H501      1.0  0.93446  0.71858  0.43578  1.0000
  H   H502      1.0  0.84124  0.71169  0.49501  1.0000
  S   S116      1.0  0.80138  0.82235  0.63147  1.0000
  H   H503      1.0  0.61449  0.95489  0.53979  1.0000
  C   C421      1.0  0.63520  0.91664  0.61542  1.0000
  H   H504      1.0  0.83883  0.74353  0.52828  1.0000
  H   H505      1.0  0.62925  0.84477  0.56380  1.0000
  C   C422      1.0  0.77553  0.74791  0.49394  1.0000
  C   C423      1.0  0.77598  0.77271  0.43669  1.0000
  H   H506      1.0  0.61534  0.89264  0.52262  1.0000
  H   H507      1.0  0.55545  0.86528  0.59564  1.0000
  C   C424      1.0  0.74326  0.99470  0.65352  1.0000
  N   N28       1.0  0.78619  0.71894  0.51736  1.0000
  H   H508      1.0  0.98955  0.57979  0.60187  1.0000
  N   N29       1.0  0.62887  0.98296  0.60200  1.0000
  C   C425      1.0  0.62869  0.94488  0.59221  1.0000
  H   H509      1.0  0.78216  0.74778  0.56432  1.0000
  H   H510      1.0  0.98698  0.72825  0.37950  1.0000
  H   H511      1.0  0.77846  0.70091  0.56869  1.0000
  C   C426      1.0  0.64116  0.98888  0.63708  1.0000
  H   H512      1.0  0.90488  0.59830  0.34319  1.0000
  C   C427      1.0  0.63539  0.88103  0.60507  1.0000
  S   S117      1.0  0.71468  0.87865  0.65799  1.0000
  H   H513      1.0  0.73424  0.83094  0.49074  1.0000
  C   C428      1.0  0.74815  0.80684  0.48195  1.0000
  C   C429      1.0  0.78512  0.74549  0.45926  1.0000
  H   H514      1.0  0.95437  0.69275  0.38217  1.0000
  H   H515      1.0  0.62133  0.97710  0.65576  1.0000
  C   C430      1.0  0.62127  0.89936  0.54850  1.0000
  H   H516      1.0  0.58292  0.98011  0.48293  1.0000
  C   C431      1.0  0.97989  0.66087  0.43606  1.0000
  H   H517      1.0  0.64052  0.85992  0.62323  1.0000
  C   C432      1.0  0.01455  0.56405  0.40836  1.0000
  H   H518      1.0  0.96553  0.72073  0.47063  1.0000
  H   H519      1.0  0.66954  0.97723  0.64126  1.0000
  H   H520      1.0  0.80039  0.69238  0.65061  1.0000
  H   H521      1.0  0.00114  0.64126  0.42688  1.0000
  H   H522      1.0  0.77928  0.75452  0.66217  1.0000
  C   C433      1.0  0.98672  0.55931  0.62207  1.0000
  H   H523      1.0  0.57955  0.99496  0.57302  1.0000
  H   H524      1.0  0.53049  0.90834  0.55406  1.0000
  C   C434      1.0  0.53038  0.99175  0.50817  1.0000
  C   C435      1.0  0.89614  0.62481  0.35074  1.0000
  H   H525      1.0  0.97122  0.75114  0.43606  1.0000
  H   H526      1.0  0.97798  0.65772  0.46373  1.0000
  N   N30       1.0  0.98993  0.69766  0.42565  1.0000
  H   H527      1.0  0.53806  0.86964  0.65481  1.0000
  C   C436      1.0  0.99637  0.58241  0.38273  1.0000
  H   H528      1.0  0.64517  0.00433  0.55319  1.0000
  C   C437      1.0  0.98348  0.70048  0.38890  1.0000
  H   H529      1.0  0.96659  0.57857  0.37882  1.0000
  C   C438      1.0  0.97121  0.51187  0.58391  1.0000
  C   C439      1.0  0.52267  0.91058  0.58042  1.0000
  C   C440      1.0  0.01262  0.54580  0.50414  1.0000
  H   H530      1.0  0.00445  0.56781  0.64339  1.0000
  C   C441      1.0  0.52632  0.88908  0.63769  1.0000
  H   H531      1.0  0.00287  0.68262  0.37460  1.0000
  C   C442      1.0  0.65475  0.00324  0.57959  1.0000
  C   C443      1.0  0.86058  0.51306  0.59034  1.0000
  H   H532      1.0  0.94171  0.51269  0.59303  1.0000
  H   H533      1.0  0.84206  0.51264  0.64216  1.0000
  N   N31       1.0  0.83222  0.95696  0.77859  1.0000
  S   S118      1.0  0.78637  0.88254  0.70924  1.0000
  H   H534      1.0  0.82244  0.92859  0.89363  1.0000
  Fe  Fe60      1.0  0.68271  0.85348  0.70079  1.0000
  S   S119      1.0  0.70063  0.89377  0.73841  1.0000
  S   S120      1.0  0.62156  0.83836  0.69597  1.0000
  Fe  Fe61      1.0  0.73616  0.91603  0.69678  1.0000
  Fe  Fe62      1.0  0.74884  0.85703  0.74799  1.0000
  S   S121      1.0  0.76665  0.84552  0.80144  1.0000
  C   C444      1.0  0.61703  0.84651  0.92769  1.0000
  S   S122      1.0  0.72869  0.81415  0.71305  1.0000
  H   H535      1.0  0.53172  0.83174  0.89370  1.0000
  Fe  Fe63      1.0  0.71865  0.94515  0.97027  1.0000
  S   S123      1.0  0.71601  0.95539  0.91435  1.0000
  C   C445      1.0  0.79962  0.96402  0.75662  1.0000
  C   C446      1.0  0.84422  0.91941  0.77288  1.0000
  C   C447      1.0  0.75406  0.87659  0.83290  1.0000
  C   C448      1.0  0.73810  0.90950  0.82452  1.0000
  C   C449      1.0  0.72647  0.93320  0.84984  1.0000
  C   C450      1.0  0.73058  0.92423  0.88381  1.0000
  C   C451      1.0  0.74666  0.89137  0.89239  1.0000
  C   C452      1.0  0.75869  0.86774  0.86692  1.0000
  H   H536      1.0  0.73422  0.91661  0.79859  1.0000
  H   H537      1.0  0.71428  0.95869  0.84309  1.0000
  H   H538      1.0  0.75020  0.88439  0.91857  1.0000
  H   H539      1.0  0.77122  0.84238  0.87362  1.0000
  C   C453      1.0  0.59135  0.85004  0.72967  1.0000
  C   C454      1.0  0.59978  0.87842  0.75091  1.0000
  C   C455      1.0  0.57588  0.88696  0.77803  1.0000
  H   H540      1.0  0.61972  0.00677  0.98613  1.0000
  C   C456      1.0  0.55780  0.83132  0.73485  1.0000
  H   H541      1.0  0.62437  0.89423  0.74626  1.0000
  H   H542      1.0  0.55076  0.80964  0.71822  1.0000
  H   H543      1.0  0.63631  0.92789  0.91542  1.0000
  H   H544      1.0  0.67565  0.87342  0.84599  1.0000
  H   H545      1.0  0.63648  0.87511  0.81876  1.0000
  H   H546      1.0  0.58284  0.90875  0.79454  1.0000
  C   C457      1.0  0.82776  0.93967  0.84056  1.0000
  H   H547      1.0  0.83787  0.91286  0.83620  1.0000
  H   H548      1.0  0.69994  0.79544  0.82417  1.0000
  C   C458      1.0  0.53374  0.83994  0.76202  1.0000
  H   H549      1.0  0.79619  0.98775  0.90772  1.0000
  H   H550      1.0  0.79042  0.99234  0.75663  1.0000
  H   H551      1.0  0.66949  0.84444  0.90200  1.0000
  H   H552      1.0  0.60171  0.92674  0.86194  1.0000
  S   S124      1.0  0.73490  0.97589  0.69333  1.0000
  C   C459      1.0  0.58740  0.94121  0.94513  1.0000
  H   H553      1.0  0.61813  0.77845  0.81892  1.0000
  H   H554      1.0  0.56993  0.81898  0.84470  1.0000
  C   C460      1.0  0.82227  0.96472  0.81411  1.0000
  H   H555      1.0  0.85073  0.91410  0.74590  1.0000
  C   C461      1.0  0.80780  0.99875  0.82332  1.0000
  C   C462      1.0  0.54910  0.94961  0.94499  1.0000
  H   H556      1.0  0.68012  0.85604  0.80409  1.0000
  C   C463      1.0  0.66082  0.85841  0.82621  1.0000
  C   C464      1.0  0.56202  0.83328  0.89555  1.0000
  H   H557      1.0  0.53501  0.94757  0.70065  1.0000
  H   H558      1.0  0.80600  0.95756  0.72983  1.0000
  S   S125      1.0  0.68555  0.90245  0.99636  1.0000
  C   C465      1.0  0.62967  0.80453  0.81056  1.0000
  C   C466      1.0  0.54326  0.86732  0.78406  1.0000
  C   C467      1.0  0.63976  0.83978  0.89948  1.0000
  C   C468      1.0  0.62428  0.82848  0.86856  1.0000
  C   C469      1.0  0.58697  0.93330  0.88511  1.0000
  H   H559      1.0  0.87254  0.97471  0.74140  1.0000
  H   H560      1.0  0.70186  0.81580  0.86380  1.0000
  H   H561      1.0  0.60655  0.82079  0.79992  1.0000
  C   C470      1.0  0.58454  0.82588  0.86734  1.0000
  H   H562      1.0  0.53582  0.95581  0.96887  1.0000
  C   C471      1.0  0.68249  0.80159  0.84694  1.0000
  H   H563      1.0  0.87014  0.91261  0.78687  1.0000
  H   H564      1.0  0.77502  0.94779  0.76434  1.0000
  C   C472      1.0  0.54861  0.94148  0.88465  1.0000
  H   H565      1.0  0.82170  0.90040  0.78049  1.0000
  H   H566      1.0  0.64917  0.79940  0.78894  1.0000
  C   C473      1.0  0.57822  0.84333  0.92571  1.0000
  C   C474      1.0  0.60643  0.93366  0.91521  1.0000
  H   H567      1.0  0.62952  0.85513  0.95101  1.0000
  C   C475      1.0  0.80428  0.98174  0.88196  1.0000
  H   H568      1.0  0.67460  0.77593  0.85910  1.0000
  H   H569      1.0  0.54237  0.90049  0.70364  1.0000
  N   N32       1.0  0.64866  0.82308  0.83854  1.0000
  C   C476      1.0  0.81907  0.94835  0.87393  1.0000
  H   H570      1.0  0.60257  0.94100  0.96860  1.0000
  H   H571      1.0  0.56064  0.84933  0.94742  1.0000
  C   C477      1.0  0.79864  0.00689  0.85673  1.0000
  C   C478      1.0  0.52856  0.95054  0.91465  1.0000
  Fe  Fe64      1.0  0.76254  0.84268  0.67315  1.0000
  C   C479      1.0  0.52098  0.92189  0.70659  1.0000
  H   H572      1.0  0.53542  0.94055  0.86040  1.0000
  S   S126      1.0  0.69514  0.99010  0.00137  1.0000
  H   H573      1.0  0.88832  0.97649  0.78418  1.0000
  C   C480      1.0  0.86352  0.98033  0.76778  1.0000
  S   S127      1.0  0.76893  0.93866  0.00299  1.0000
  H   H574      1.0  0.86065  0.62665  0.00181  1.0000
  H   H575      1.0  0.85556  0.00902  0.76881  1.0000
  S   S128      1.0  0.51642  0.87648  0.82039  1.0000
  H   H576      1.0  0.99348  0.51286  0.98175  1.0000
