data_image0
_chemical_formula_structural       FeS2FeS2FeSFeS3HCFeSHSFeS2FeS2FeSFeS3HCFeSH2CH3C7H4CHCH2CFeSH3C8H4C6H4CH3C4H2C2H2N2SCH2C3NH3C2HSH2CNC9H14CH3C2HCHCH9C4HC2H2C2H3C3HC3HCH4CH2CSH3FeSFeS2FeS2FeSFeS3HCH3SFeS2FeS2FeSFeS3CH2C6H2CH3C6H4C6H5C2H2C2H2C7H4CHCH2NC2H7NC6H11NCH2CHCHC3HCH3C3H3CHNHCH3SH2C2HCHCHNHC3H8CHC2HCHFeC2SH3C3HC3NCH2C2H2CHCH5C2HC2HCHFeHCHC3SHC2HC2H2CS2FeSC2FeS2FeS2FeSFeS3FeS2FeS2FeSFeS3FeSH3SHC3HC3HC2HCH2C6H4C6H4CH9C6H6CH3SH3FeC3HNH3C2SC3H2C2H10CH3CH2C2HC2H2NCHCH3C2H4SC3HC7HCNC9H15NHC3HC2NCHCH2CHCH4CH2NHNHFeSC2HFeH2CH2CH3CH2C3H4CHCHC2HCSCFeSFeS3FeS2FeS2FeSFeS3FeS2FeS2FeSFeS3FeSFeHS2CHCH2C6H4C2H3CHCH2C6H5C2H2C3HC7H4CHCHFeC2NC9H11CHCH2CH2CH3CHCNCHC7HC2H2C2H4C5HCH2C2H4CHNC9H15SH2SHCHCH2NHC2H7C2HNHCHC2H2CH3CHCHCH2NHC2HCH3CHSH3CH2SFeS2CFeS2FeS2FeSFeS3FeS2FeS2FeSFeS3CHFeSH2NCHC2H3C2H2C7H4C6H5C2H3C2H2C6H5C4H2C4H2C2H6CHC7HC2H2C2H2NC4HC2NH9CH2NC7SCH12C5H2SHCHC2HNH4CFeCH2CH2C2H3C2SCHCHCH10CH2SHFeSHCFeS2FeS2FeSFeS4HCH2SFeS2FeS2FeSFeS3C3H3C2NHC6H6CHC6H4CHC2HC3H2C6H4CH4C2H7C2H2C2HNH3NSH2CHCHC2H2CHCH4FeCH5CNCH3C2HC3HSHCH2CH4C3HC2H3NCH6CHFeHCNC9H9C3H2CHCHC3HCH2C2FeHCH2FeH2C3HC2HCHS2H2CFeSFeS2FeS2FeSFeS3FeSFeS3FeS2FeS2FeSFeS3HCH2CHCH2C7H4C2HCFeCHC6H4NC7H2C6H4CH2CH2CH2CH2C2SCHCH3CH3CHCHC2N2C5HCH2CH2C2H2CH2CNC8H11NCH3SC2HCH3CH6NHCHC4HFeH2CH2C2HC2SH2CH6CH2C2H6C3H3CH3CFeSCSH2FeS2HFeS2FeS2FeSFeS3FeS2FeS2FeSFeS3C3H2C3H2C6H4C2H3CHCH2C6H4C4H2C6H12C2HNHCH3CH3C3SCH6C2H2NH4CHCHCHC4HNH3CHCNHC2SH4CNC5H2SCH14NHC4FeHC3H8CHCHSCSC2HCH2C2HC5H2FeS2FeS2FeSFeS3H2FeS2H2SCSFeSFeS2FeS2FeSFeS3C2H3C3H2C6H5NCH2CH2C6H4C6H4CHCH3C3HNC8H12NH2CHC3H2CH3C3HC3H3FeH4N2CHC2H2CH2CH5CH2C2HC2HCHC2HC3HC5H2CH2C2H3C3HC2HC2HCH2NH6C2H3CHCH3CHSH3NHCH5CH2CHCH2C2HCH2SCSCSCSFeSH2FeS2FeS2FeSFeS3FeS2FeS2FeSFeS3C3H3CHC8H4CH3C4HC7H6CH2C6H5CHC3H5NC9H14C2H3FeH3CHC2HCHNSHCHC3SCNC3H4CH2CH4C4HNC8NH12CH6CH2CH3CHC3H3CH2C6FeH3C3HNCH4C2H4SCHCHCHCFeCH2FeS2FeS2FeSFeS4H3FeSFeS2FeS2FeSFeS3FeSCHS2CH3C7H4C3HCHC3H2CH2C2HC6H4C6H4C3HC4H2CH3CH3FeCHSH6CHNC2SHCSC2H2CH5C3HC4H4C2H2CHSCHFeHC2H5NCH2CHCHC2NHCH4C2H3NHNC3HCH4C2H2C2H2CHFeCH3NH4SC4H4CHC3HC2H6C3H3C3H2C2H3FeS2FeS2FeSFeS3FeSC2S2FeS2FeS2FeSFeS3FeSFeS3H2CH2C6H4CHC2HC4HC2HCHC6H4C6H5C3HCHC2HNC9H14NC3H3C3H8CHC2H4CNH2C3HC2H4C2H2NCH4CH2CHNCHC3HSH7CH3FeC4H5CH3CH2CHCH2C2HCHC3SHFeSCHFeS2FeS2FeSFeS3FeS2FeS2FeSFeS3HCHS2HC9H4CHCH2C3H2C6H4C3H2C3H2C6H5C3H3CHCHCH3NC6HCH8CH5CHNHCH2CFeCHNC9H14NC5HFeH12C2NH3CH4NHC2HCHC2HC2NC5HCH9C3HC3H2CH6CHCSCH3CH3SH2SFeSFeS2FeS2FeSFeS3HSHSHSFeS2FeS2FeSFeS3C3H2C2H3C6H5C9H4CH2NH2CH3C6H4C2H3NC3NC2HCSH2CH6CHCH3CH4C2NHFeHNH2CH2C2HCHC2H2CH3NC7H3CH5C4H3C2H2FeH2C3H7FeHCHC2H2SHCHCHC2H3CHCHCHCHC2H4CHCHCHCHC2HC4HCHNC3H2CH2CHFeSHSFeS2FeS2FeSFeS5H2FeSFeS2FeS2FeSFeS3C3H2C2H2C7H6CHCHC7H4C3H2CH4C6H4CH5CH7SHC3H3CFeHNC9H11NC5H2FeC2HCH7CH2CNC2HC3HNHCH2CHC4NH11CHCH2C2H2CHNCHC2HC3H3CHC2S2H2FeC2SCHCHSCHC2H4CHCH2SC3FeS3FeSFeS3FeS2FeS2FeSFeS3FeS2FeS2FeSFeS3C2H4CHCHC6H4CHCH2CH2CHC6H6CH3C6H6CH3CH4NHCH7CHNHCH3CH3CHC2HCH2CH3C4H2CNC5H3CH5NCHNC8H12SH2NC9H4C2H3C3HCHC5HCHCH2Fe
_chemical_formula_sum              "Fe192 S384 H1728 C1440 N96"
_cell_length_a       66.5646
_cell_length_b       66.5978
_cell_length_c       66.5667
_cell_angle_alpha    87.5817
_cell_angle_beta     87.528
_cell_angle_gamma    87.6336

_space_group_name_H-M_alt    "P 1"
_space_group_IT_number       1

loop_
  _space_group_symop_operation_xyz
  'x, y, z'

loop_
  _atom_site_type_symbol
  _atom_site_label
  _atom_site_symmetry_multiplicity
  _atom_site_fract_x
  _atom_site_fract_y
  _atom_site_fract_z
  _atom_site_occupancy
  Fe  Fe1       1.0  0.37709  0.10089  0.26390  1.0000
  S   S1        1.0  0.36124  0.09136  0.23681  1.0000
  S   S2        1.0  0.36037  0.11507  0.29139  1.0000
  Fe  Fe2       1.0  0.41913  0.08632  0.24623  1.0000
  S   S3        1.0  0.40491  0.07562  0.21877  1.0000
  S   S4        1.0  0.45250  0.07597  0.24365  1.0000
  Fe  Fe3       1.0  0.38699  0.10527  0.21816  1.0000
  S   S5        1.0  0.38793  0.12160  0.18656  1.0000
  Fe  Fe4       1.0  0.38096  0.06289  0.23964  1.0000
  S   S6        1.0  0.36983  0.03084  0.24449  1.0000
  S   S7        1.0  0.40203  0.11638  0.24507  1.0000
  S   S8        1.0  0.39589  0.07215  0.26727  1.0000
  H   H1        1.0  0.21180  0.05588  0.44316  1.0000
  C   C1        1.0  0.16778  0.16327  0.31918  1.0000
  Fe  Fe5       1.0  0.39045  0.22324  0.10762  1.0000
  S   S9        1.0  0.38407  0.20848  0.13937  1.0000
  H   H2        1.0  0.19297  0.00400  0.40715  1.0000
  S   S10       1.0  0.40851  0.21347  0.07976  1.0000
  Fe  Fe6       1.0  0.26076  0.09509  0.37458  1.0000
  S   S11       1.0  0.22734  0.09498  0.36923  1.0000
  S   S12       1.0  0.28222  0.09038  0.34652  1.0000
  Fe  Fe7       1.0  0.25211  0.09636  0.42106  1.0000
  S   S13       1.0  0.21865  0.09680  0.41804  1.0000
  S   S14       1.0  0.26639  0.08990  0.45149  1.0000
  Fe  Fe8       1.0  0.22552  0.07256  0.39564  1.0000
  S   S15       1.0  0.20827  0.04356  0.39974  1.0000
  Fe  Fe9       1.0  0.22332  0.11931  0.39198  1.0000
  S   S16       1.0  0.20780  0.15098  0.38657  1.0000
  S   S17       1.0  0.25868  0.07129  0.39965  1.0000
  S   S18       1.0  0.25701  0.12025  0.39636  1.0000
  H   H3        1.0  0.40677  0.02954  0.27754  1.0000
  C   C2        1.0  0.14624  0.23340  0.34282  1.0000
  Fe  Fe10      1.0  0.10457  0.22688  0.38668  1.0000
  S   S19       1.0  0.11981  0.19541  0.38194  1.0000
  H   H4        1.0  0.42909  0.12785  0.17149  1.0000
  H   H5        1.0  0.21754  0.07410  0.47291  1.0000
  C   C3        1.0  0.48250  0.12652  0.21093  1.0000
  H   H6        1.0  0.42314  0.04264  0.24536  1.0000
  H   H7        1.0  0.26947  0.01062  0.48442  1.0000
  H   H8        1.0  0.45239  0.10140  0.19963  1.0000
  C   C4        1.0  0.46938  0.13865  0.19870  1.0000
  C   C5        1.0  0.18281  0.16251  0.38750  1.0000
  C   C6        1.0  0.16560  0.15196  0.38395  1.0000
  C   C7        1.0  0.14656  0.16222  0.38261  1.0000
  C   C8        1.0  0.14417  0.18312  0.38519  1.0000
  C   C9        1.0  0.16129  0.19359  0.38929  1.0000
  C   C10       1.0  0.18042  0.18342  0.39010  1.0000
  H   H9        1.0  0.16701  0.13597  0.38170  1.0000
  H   H10       1.0  0.13356  0.15384  0.37943  1.0000
  H   H11       1.0  0.15989  0.20959  0.39144  1.0000
  H   H12       1.0  0.19351  0.19186  0.39280  1.0000
  C   C11       1.0  0.21805  0.01939  0.39299  1.0000
  H   H13       1.0  0.20743  0.01935  0.44513  1.0000
  C   C12       1.0  0.23632  0.01689  0.38203  1.0000
  H   H14       1.0  0.26011  0.03623  0.45801  1.0000
  H   H15       1.0  0.24484  0.02992  0.37745  1.0000
  C   C13       1.0  0.26178  0.10117  0.47505  1.0000
  Fe  Fe11      1.0  0.38445  0.22993  0.06168  1.0000
  S   S20       1.0  0.36937  0.22080  0.03330  1.0000
  H   H16       1.0  0.24372  0.12651  0.46411  1.0000
  H   H17       1.0  0.17426  0.14814  0.31801  1.0000
  H   H18       1.0  0.10984  0.23557  0.32953  1.0000
  C   C14       1.0  0.26031  0.02033  0.45494  1.0000
  C   C15       1.0  0.21545  0.05814  0.47507  1.0000
  C   C16       1.0  0.33940  0.10696  0.30725  1.0000
  C   C17       1.0  0.33387  0.11760  0.32467  1.0000
  C   C18       1.0  0.31686  0.11249  0.33711  1.0000
  C   C19       1.0  0.30484  0.09674  0.33224  1.0000
  C   C20       1.0  0.31054  0.08593  0.31498  1.0000
  C   C21       1.0  0.32767  0.09091  0.30264  1.0000
  H   H19       1.0  0.34278  0.12998  0.32852  1.0000
  H   H20       1.0  0.31307  0.12084  0.35040  1.0000
  H   H21       1.0  0.30153  0.07367  0.31099  1.0000
  H   H22       1.0  0.33158  0.08251  0.28938  1.0000
  C   C22       1.0  0.38696  0.14602  0.17388  1.0000
  C   C23       1.0  0.38263  0.16384  0.18397  1.0000
  C   C24       1.0  0.38196  0.18266  0.17318  1.0000
  C   C25       1.0  0.38578  0.18413  0.15215  1.0000
  C   C26       1.0  0.39043  0.16635  0.14212  1.0000
  C   C27       1.0  0.39093  0.14751  0.15288  1.0000
  H   H23       1.0  0.37948  0.16311  0.20006  1.0000
  H   H24       1.0  0.37833  0.19620  0.18122  1.0000
  H   H25       1.0  0.39335  0.16704  0.12599  1.0000
  H   H26       1.0  0.39425  0.13393  0.14480  1.0000
  C   C28       1.0  0.37669  0.00728  0.23395  1.0000
  H   H27       1.0  0.41618  0.00625  0.28905  1.0000
  H   H28       1.0  0.32780  0.23853  0.13124  1.0000
  H   H29       1.0  0.16260  0.23628  0.34175  1.0000
  C   C29       1.0  0.41408  0.01459  0.27441  1.0000
  C   C30       1.0  0.47738  0.09965  0.26483  1.0000
  C   C31       1.0  0.47594  0.08479  0.25080  1.0000
  C   C32       1.0  0.44634  0.02932  0.27407  1.0000
  H   H30       1.0  0.46383  0.10639  0.27168  1.0000
  H   H31       1.0  0.42692  0.11052  0.20253  1.0000
  C   C33       1.0  0.25023  0.11905  0.47719  1.0000
  C   C34       1.0  0.47734  0.15639  0.18944  1.0000
  H   H32       1.0  0.44910  0.02278  0.28940  1.0000
  H   H33       1.0  0.34529  0.22859  0.14899  1.0000
  N   N1        1.0  0.13988  0.22262  0.32520  1.0000
  N   N2        1.0  0.44822  0.13370  0.19585  1.0000
  S   S21       1.0  0.36496  0.23705  0.08942  1.0000
  C   C35       1.0  0.42960  0.02719  0.24321  1.0000
  H   H34       1.0  0.46814  0.16653  0.18025  1.0000
  H   H35       1.0  0.41014  0.22796  0.01708  1.0000
  C   C36       1.0  0.44270  0.11405  0.20546  1.0000
  C   C37       1.0  0.26558  0.00586  0.46975  1.0000
  C   C38       1.0  0.14990  0.20247  0.32317  1.0000
  N   N3        1.0  0.43346  0.01646  0.26274  1.0000
  H   H36       1.0  0.47780  0.11290  0.21880  1.0000
  H   H37       1.0  0.44365  0.11401  0.22212  1.0000
  H   H38       1.0  0.35160  0.22014  0.99459  1.0000
  C   C39       1.0  0.17346  0.17529  0.33439  1.0000
  C   C40       1.0  0.44451  0.13288  0.17405  1.0000
  H   H39       1.0  0.25059  0.02560  0.42472  1.0000
  S   S22       1.0  0.08388  0.23471  0.41346  1.0000
  H   H40       1.0  0.43911  0.04455  0.27617  1.0000
  H   H41       1.0  0.43619  0.16438  0.19689  1.0000
  C   C41       1.0  0.15360  0.17065  0.30566  1.0000
  N   N4        1.0  0.26083  0.14890  0.33305  1.0000
  C   C42       1.0  0.27158  0.14819  0.35213  1.0000
  C   C43       1.0  0.25170  0.16940  0.32973  1.0000
  C   C44       1.0  0.24410  0.13481  0.33573  1.0000
  C   C45       1.0  0.27518  0.14408  0.31611  1.0000
  C   C46       1.0  0.29187  0.15634  0.31148  1.0000
  C   C47       1.0  0.27333  0.12721  0.30399  1.0000
  C   C48       1.0  0.30592  0.15184  0.29592  1.0000
  C   C49       1.0  0.28738  0.12298  0.28834  1.0000
  C   C50       1.0  0.30368  0.13519  0.28439  1.0000
  H   H42       1.0  0.28400  0.15882  0.35189  1.0000
  H   H43       1.0  0.26125  0.15201  0.36515  1.0000
  H   H44       1.0  0.27833  0.13286  0.35533  1.0000
  H   H45       1.0  0.26300  0.18121  0.32980  1.0000
  H   H46       1.0  0.24011  0.17307  0.34178  1.0000
  H   H47       1.0  0.24429  0.17081  0.31503  1.0000
  H   H48       1.0  0.24992  0.11914  0.33898  1.0000
  H   H49       1.0  0.23370  0.13867  0.34873  1.0000
  H   H50       1.0  0.23491  0.13490  0.32218  1.0000
  H   H51       1.0  0.29452  0.16919  0.32023  1.0000
  H   H52       1.0  0.26167  0.11652  0.30675  1.0000
  H   H53       1.0  0.31904  0.16084  0.29318  1.0000
  H   H54       1.0  0.28618  0.10958  0.27983  1.0000
  H   H55       1.0  0.31507  0.13125  0.27291  1.0000
  C   C51       1.0  0.20718  0.00223  0.39876  1.0000
  H   H56       1.0  0.39059  0.01929  0.20649  1.0000
  H   H57       1.0  0.44369  0.02861  0.23374  1.0000
  H   H58       1.0  0.40288  0.00653  0.26623  1.0000
  C   C52       1.0  0.21228  0.04782  0.45768  1.0000
  C   C53       1.0  0.00441  0.22030  0.43282  1.0000
  H   H59       1.0  0.41846  0.14570  0.20373  1.0000
  C   C54       1.0  0.11777  0.22067  0.32755  1.0000
  H   H60       1.0  0.18435  0.16941  0.34504  1.0000
  C   C55       1.0  0.20986  0.02715  0.45876  1.0000
  H   H61       1.0  0.45539  0.12216  0.16657  1.0000
  H   H62       1.0  0.11378  0.21076  0.34095  1.0000
  H   H63       1.0  0.36642  0.16338  0.00285  1.0000
  H   H64       1.0  0.02923  0.22966  0.44927  1.0000
  H   H65       1.0  0.44552  0.14778  0.16601  1.0000
  H   H66       1.0  0.41855  0.01967  0.23440  1.0000
  H   H67       1.0  0.46097  0.03194  0.26581  1.0000
  H   H68       1.0  0.47023  0.99846  0.27545  1.0000
  H   H69       1.0  0.02013  0.22400  0.37118  1.0000
  C   C56       1.0  0.38697  0.00577  0.21526  1.0000
  C   C57       1.0  0.43455  0.14942  0.20471  1.0000
  C   C58       1.0  0.01300  0.22879  0.44899  1.0000
  C   C59       1.0  0.24349  0.99752  0.37676  1.0000
  H   H70       1.0  0.43737  0.15102  0.22092  1.0000
  C   C60       1.0  0.14482  0.18998  0.30751  1.0000
  C   C61       1.0  0.44244  0.99612  0.25918  1.0000
  H   H71       1.0  0.01409  0.21478  0.42053  1.0000
  H   H72       1.0  0.14280  0.22474  0.35717  1.0000
  C   C62       1.0  0.25534  0.99392  0.43202  1.0000
  C   C63       1.0  0.16478  0.19462  0.33640  1.0000
  H   H73       1.0  0.16970  0.20290  0.34875  1.0000
  H   H74       1.0  0.16092  0.23680  0.30430  1.0000
  H   H75       1.0  0.14919  0.16122  0.29384  1.0000
  C   C64       1.0  0.37986  0.22400  0.00837  1.0000
  C   C65       1.0  0.36742  0.22282  0.99190  1.0000
  C   C66       1.0  0.00618  0.23140  0.37628  1.0000
  H   H76       1.0  0.13381  0.19497  0.29674  1.0000
  C   C67       1.0  0.40034  0.22712  0.00460  1.0000
  C   C68       1.0  0.25504  0.01434  0.43616  1.0000
  C   C69       1.0  0.00071  0.23639  0.46459  1.0000
  H   H77       1.0  0.11125  0.21422  0.31432  1.0000
  C   C70       1.0  0.14439  0.23543  0.30692  1.0000
  H   H78       1.0  0.20961  0.00040  0.47792  1.0000
  H   H79       1.0  0.48464  0.00221  0.22782  1.0000
  H   H80       1.0  0.25765  0.99588  0.36828  1.0000
  H   H81       1.0  0.36378  0.99047  0.25938  1.0000
  C   C71       1.0  0.21107  0.01657  0.47721  1.0000
  H   H82       1.0  0.32072  0.23640  0.15790  1.0000
  H   H83       1.0  0.13842  0.22933  0.29319  1.0000
  C   C72       1.0  0.33300  0.24029  0.14673  1.0000
  S   S23       1.0  0.41558  0.22143  0.88642  1.0000
  H   H84       1.0  0.34726  0.16234  0.51926  1.0000
  H   H85       1.0  0.14298  0.16752  0.55982  1.0000
  H   H86       1.0  0.43754  0.99387  0.77409  1.0000
  Fe  Fe12      1.0  0.38713  0.21776  0.86988  1.0000
  S   S24       1.0  0.38365  0.18637  0.85691  1.0000
  Fe  Fe13      1.0  0.24538  0.11335  0.56615  1.0000
  S   S25       1.0  0.21649  0.09739  0.56823  1.0000
  S   S26       1.0  0.25402  0.13016  0.53677  1.0000
  Fe  Fe14      1.0  0.25358  0.10454  0.61113  1.0000
  S   S27       1.0  0.22459  0.08782  0.61584  1.0000
  S   S28       1.0  0.27342  0.11165  0.63763  1.0000
  Fe  Fe15      1.0  0.23336  0.07341  0.58637  1.0000
  S   S29       1.0  0.23476  0.04175  0.57397  1.0000
  Fe  Fe16      1.0  0.21002  0.11339  0.59710  1.0000
  S   S30       1.0  0.17794  0.12735  0.60191  1.0000
  S   S31       1.0  0.26297  0.08881  0.58265  1.0000
  S   S32       1.0  0.23821  0.13071  0.59410  1.0000
  H   H87       1.0  0.32260  0.10659  0.58727  1.0000
  C   C73       1.0  0.39599  0.22709  0.96817  1.0000
  H   H88       1.0  0.24182  0.03694  0.52399  1.0000
  H   H89       1.0  0.16811  0.23686  0.63111  1.0000
  H   H90       1.0  0.27946  0.07812  0.49066  1.0000
  S   S33       1.0  0.14106  0.21814  0.60415  1.0000
  Fe  Fe17      1.0  0.37904  0.11901  0.75336  1.0000
  S   S34       1.0  0.39473  0.11997  0.72236  1.0000
  S   S35       1.0  0.37713  0.14951  0.76922  1.0000
  Fe  Fe18      1.0  0.37546  0.07272  0.75185  1.0000
  S   S36       1.0  0.39136  0.07132  0.72177  1.0000
  S   S37       1.0  0.36643  0.04464  0.77028  1.0000
  Fe  Fe19      1.0  0.41295  0.09283  0.73356  1.0000
  S   S38       1.0  0.44638  0.08446  0.73705  1.0000
  Fe  Fe20      1.0  0.37133  0.09845  0.71320  1.0000
  S   S39       1.0  0.35751  0.09613  0.68196  1.0000
  S   S40       1.0  0.39797  0.09258  0.76443  1.0000
  S   S41       1.0  0.35455  0.09914  0.74342  1.0000
  C   C74       1.0  0.46954  0.09640  0.73164  1.0000
  H   H91       1.0  0.12643  0.19170  0.50947  1.0000
  H   H92       1.0  0.46672  0.11545  0.79028  1.0000
  C   C75       1.0  0.45839  0.02396  0.75266  1.0000
  C   C76       1.0  0.17287  0.16009  0.55013  1.0000
  C   C77       1.0  0.14031  0.22366  0.54436  1.0000
  C   C78       1.0  0.37056  0.01826  0.76784  1.0000
  C   C79       1.0  0.36787  0.00615  0.78535  1.0000
  C   C80       1.0  0.27028  0.09180  0.49220  1.0000
  H   H93       1.0  0.36387  0.01305  0.79948  1.0000
  H   H94       1.0  0.14582  0.22219  0.55995  1.0000
  C   C81       1.0  0.47430  0.12599  0.78014  1.0000
  H   H95       1.0  0.43579  0.01471  0.72126  1.0000
  H   H96       1.0  0.43136  0.01788  0.78539  1.0000
  H   H97       1.0  0.44157  0.16602  0.79208  1.0000
  C   C82       1.0  0.16806  0.15278  0.60210  1.0000
  C   C83       1.0  0.18042  0.16934  0.60108  1.0000
  C   C84       1.0  0.17186  0.18913  0.60153  1.0000
  C   C85       1.0  0.15083  0.19275  0.60272  1.0000
  C   C86       1.0  0.13845  0.17623  0.60340  1.0000
  C   C87       1.0  0.14703  0.15643  0.60320  1.0000
  H   H98       1.0  0.19659  0.16687  0.60018  1.0000
  H   H99       1.0  0.18166  0.20170  0.60101  1.0000
  H   H100      1.0  0.12228  0.17862  0.60455  1.0000
  H   H101      1.0  0.13728  0.14378  0.60404  1.0000
  C   C88       1.0  0.29647  0.10593  0.65030  1.0000
  C   C89       1.0  0.31218  0.09371  0.64217  1.0000
  C   C90       1.0  0.33054  0.09084  0.65213  1.0000
  C   C91       1.0  0.33346  0.09963  0.67067  1.0000
  C   C92       1.0  0.31758  0.11146  0.67902  1.0000
  C   C93       1.0  0.29939  0.11472  0.66882  1.0000
  H   H102      1.0  0.31030  0.08653  0.62816  1.0000
  H   H103      1.0  0.34261  0.08163  0.64546  1.0000
  H   H104      1.0  0.31946  0.11845  0.69316  1.0000
  H   H105      1.0  0.28746  0.12420  0.67537  1.0000
  H   H106      1.0  0.25430  0.02316  0.62395  1.0000
  C   C94       1.0  0.22823  0.01791  0.58483  1.0000
  C   C95       1.0  0.21784  0.01575  0.60347  1.0000
  H   H107      1.0  0.36568  0.22333  0.95942  1.0000
  H   H108      1.0  0.21352  0.02893  0.61184  1.0000
  C   C96       1.0  0.33866  0.15262  0.56949  1.0000
  C   C97       1.0  0.25597  0.11812  0.51341  1.0000
  H   H109      1.0  0.37732  0.01812  0.73586  1.0000
  H   H110      1.0  0.20472  0.99494  0.62563  1.0000
  C   C98       1.0  0.31109  0.14190  0.55043  1.0000
  C   C99       1.0  0.38232  0.17651  0.83225  1.0000
  C   C100      1.0  0.38256  0.15548  0.83026  1.0000
  C   C101      1.0  0.38110  0.14692  0.81125  1.0000
  C   C102      1.0  0.37913  0.15928  0.79382  1.0000
  C   C103      1.0  0.37905  0.18030  0.79580  1.0000
  C   C104      1.0  0.38072  0.18885  0.81477  1.0000
  H   H111      1.0  0.38371  0.14568  0.84356  1.0000
  H   H112      1.0  0.38112  0.13076  0.81016  1.0000
  H   H113      1.0  0.37754  0.19010  0.78252  1.0000
  H   H114      1.0  0.38043  0.20502  0.81588  1.0000
  C   C105      1.0  0.47118  0.01831  0.76871  1.0000
  H   H115      1.0  0.36302  0.16590  0.55185  1.0000
  C   C106      1.0  0.24764  0.12765  0.49623  1.0000
  H   H116      1.0  0.20337  0.15575  0.53865  1.0000
  H   H117      1.0  0.45843  0.03978  0.72320  1.0000
  N   N5        1.0  0.44148  0.14376  0.76957  1.0000
  C   C107      1.0  0.43137  0.12869  0.78319  1.0000
  C   C108      1.0  0.43568  0.16399  0.77693  1.0000
  H   H118      1.0  0.43567  0.12983  0.79905  1.0000
  H   H119      1.0  0.41468  0.13089  0.78330  1.0000
  H   H120      1.0  0.43484  0.11310  0.77822  1.0000
  H   H121      1.0  0.41900  0.16639  0.77820  1.0000
  H   H122      1.0  0.44131  0.17625  0.76663  1.0000
  H   H123      1.0  0.41669  0.14396  0.74974  1.0000
  H   H124      1.0  0.07814  0.23425  0.49197  1.0000
  N   N6        1.0  0.37859  0.16717  0.92195  1.0000
  C   C109      1.0  0.39566  0.17960  0.91467  1.0000
  C   C110      1.0  0.38234  0.14682  0.91400  1.0000
  C   C111      1.0  0.36007  0.17633  0.91317  1.0000
  C   C112      1.0  0.37595  0.16575  0.94418  1.0000
  C   C113      1.0  0.35991  0.15485  0.95348  1.0000
  C   C114      1.0  0.38869  0.17529  0.95718  1.0000
  H   H125      1.0  0.41028  0.17333  0.92013  1.0000
  H   H126      1.0  0.39723  0.18048  0.89792  1.0000
  H   H127      1.0  0.39348  0.19533  0.91956  1.0000
  H   H128      1.0  0.39591  0.13926  0.92059  1.0000
  H   H129      1.0  0.38482  0.14754  0.89729  1.0000
  H   H130      1.0  0.36948  0.13693  0.91731  1.0000
  H   H131      1.0  0.35592  0.19102  0.91994  1.0000
  H   H132      1.0  0.36201  0.17912  0.89656  1.0000
  H   H133      1.0  0.34694  0.16662  0.91555  1.0000
  H   H134      1.0  0.34966  0.14716  0.94460  1.0000
  H   H135      1.0  0.40125  0.18399  0.95166  1.0000
  N   N7        1.0  0.13576  0.20373  0.53694  1.0000
  C   C115      1.0  0.18973  0.16527  0.53825  1.0000
  H   H136      1.0  0.40811  0.03627  0.75295  1.0000
  H   H137      1.0  0.39483  0.18217  0.98763  1.0000
  C   C116      1.0  0.32098  0.14857  0.53260  1.0000
  H   H138      1.0  0.27397  0.09271  0.52429  1.0000
  C   C117      1.0  0.30741  0.11426  0.58752  1.0000
  H   H139      1.0  0.11427  0.18099  0.54482  1.0000
  C   C118      1.0  0.32457  0.99387  0.71913  1.0000
  C   C119      1.0  0.21282  0.99645  0.61123  1.0000
  C   C120      1.0  0.43340  0.14205  0.74932  1.0000
  H   H140      1.0  0.22870  0.08684  0.49996  1.0000
  C   C121      1.0  0.46371  0.14104  0.76848  1.0000
  H   H141      1.0  0.43741  0.12704  0.74323  1.0000
  H   H142      1.0  0.45835  0.11894  0.71036  1.0000
  H   H143      1.0  0.43902  0.15359  0.73820  1.0000
  C   C122      1.0  0.48760  0.03913  0.73499  1.0000
  C   C123      1.0  0.18908  0.18276  0.52601  1.0000
  C   C124      1.0  0.23978  0.05322  0.51976  1.0000
  H   H144      1.0  0.12671  0.23402  0.54463  1.0000
  H   H145      1.0  0.32697  0.02456  0.70763  1.0000
  H   H146      1.0  0.27976  0.03537  0.64601  1.0000
  C   C125      1.0  0.21698  0.08064  0.51054  1.0000
  H   H147      1.0  0.21884  0.08821  0.52491  1.0000
  N   N8        1.0  0.21920  0.05839  0.51307  1.0000
  H   H148      1.0  0.29871  0.10814  0.60090  1.0000
  C   C126      1.0  0.20450  0.05205  0.52933  1.0000
  H   H149      1.0  0.29974  0.10970  0.57404  1.0000
  H   H150      1.0  0.24322  0.06155  0.53331  1.0000
  H   H151      1.0  0.44204  0.99266  0.73663  1.0000
  S   S42       1.0  0.36750  0.22783  0.89663  1.0000
  H   H152      1.0  0.30989  0.13539  0.62054  1.0000
  H   H153      1.0  0.23922  0.14180  0.49762  1.0000
  C   C127      1.0  0.33962  0.15724  0.53314  1.0000
  C   C128      1.0  0.31877  0.14077  0.60689  1.0000
  H   H154      1.0  0.32031  0.15721  0.60833  1.0000
  C   C129      1.0  0.28818  0.14568  0.58939  1.0000
  H   H155      1.0  0.28851  0.16238  0.58844  1.0000
  C   C130      1.0  0.31955  0.14382  0.56947  1.0000
  H   H156      1.0  0.33383  0.13296  0.60785  1.0000
  N   N9        1.0  0.30882  0.13637  0.58808  1.0000
  H   H157      1.0  0.24151  0.00204  0.55966  1.0000
  C   C131      1.0  0.47549  0.15374  0.75544  1.0000
  C   C132      1.0  0.17157  0.19514  0.52565  1.0000
  C   C133      1.0  0.21430  0.02672  0.49472  1.0000
  H   H158      1.0  0.11476  0.21577  0.51517  1.0000
  H   H159      1.0  0.20561  0.06094  0.54304  1.0000
  H   H160      1.0  0.14012  0.21436  0.50584  1.0000
  H   H161      1.0  0.28008  0.14131  0.60383  1.0000
  H   H162      1.0  0.27863  0.14101  0.57723  1.0000
  H   H163      1.0  0.34640  0.15450  0.58318  1.0000
  H   H164      1.0  0.29672  0.13510  0.54910  1.0000
  H   H165      1.0  0.20713  0.03619  0.53477  1.0000
  C   C134      1.0  0.46729  0.03447  0.73575  1.0000
  H   H166      1.0  0.15196  0.23131  0.53476  1.0000
  C   C135      1.0  0.21602  0.04793  0.49430  1.0000
  C   C136      1.0  0.32561  0.01466  0.72094  1.0000
  H   H167      1.0  0.46855  0.16541  0.74601  1.0000
  C   C137      1.0  0.43268  0.00690  0.73608  1.0000
  H   H168      1.0  0.42830  0.04934  0.76284  1.0000
  Fe  Fe21      1.0  0.39605  0.23366  0.91198  1.0000
  C   C138      1.0  0.26667  0.01315  0.62865  1.0000
  C   C139      1.0  0.15407  0.19029  0.53755  1.0000
  S   S43       1.0  0.40749  0.22654  0.94353  1.0000
  H   H169      1.0  0.18878  0.05391  0.52429  1.0000
  H   H170      1.0  0.41662  0.00281  0.73628  1.0000
  H   H171      1.0  0.42700  0.04653  0.73634  1.0000
  C   C140      1.0  0.38522  0.17429  0.97806  1.0000
  C   C141      1.0  0.32380  0.01021  0.75707  1.0000
  C   C142      1.0  0.15529  0.17236  0.54993  1.0000
  H   H172      1.0  0.46579  0.01039  0.78223  1.0000
  C   C143      1.0  0.47143  0.11278  0.71790  1.0000
  C   C144      1.0  0.42959  0.00878  0.77197  1.0000
  C   C145      1.0  0.42455  0.03867  0.75124  1.0000
  N   N10       1.0  0.43672  0.01957  0.75316  1.0000
  C   C146      1.0  0.26820  0.99344  0.62216  1.0000
  H   H173      1.0  0.17351  0.14653  0.55979  1.0000
  H   H174      1.0  0.30793  0.01262  0.65682  1.0000
  C   C147      1.0  0.28100  0.02003  0.64106  1.0000
  C   C148      1.0  0.48680  0.08851  0.74108  1.0000
  H   H175      1.0  0.31409  0.14691  0.51830  1.0000
  H   H176      1.0  0.34412  0.14574  0.98117  1.0000
  C   C149      1.0  0.29685  0.00716  0.64712  1.0000
  H   H177      1.0  0.32411  0.01665  0.77176  1.0000
  C   C150      1.0  0.32527  0.02279  0.73988  1.0000
  H   H178      1.0  0.99164  0.23365  0.56066  1.0000
  H   H179      1.0  0.48542  0.07627  0.75216  1.0000
  H   H180      1.0  0.20229  0.18673  0.51681  1.0000
  H   H181      1.0  0.32660  0.03886  0.74131  1.0000
  H   H182      1.0  0.10483  0.20617  0.54813  1.0000
  C   C151      1.0  0.12906  0.20645  0.51597  1.0000
  C   C152      1.0  0.26714  0.10002  0.51131  1.0000
  H   H183      1.0  0.17187  0.20861  0.51604  1.0000
  C   C153      1.0  0.37558  0.00895  0.74958  1.0000
  C   C154      1.0  0.35661  0.15394  0.97440  1.0000
  H   H184      1.0  0.12189  0.19508  0.56578  1.0000
  C   C155      1.0  0.11851  0.19604  0.54950  1.0000
  H   H185      1.0  0.21552  0.01780  0.50859  1.0000
  Fe  Fe22      1.0  0.11059  0.23492  0.59936  1.0000
  H   H186      1.0  0.25128  0.05692  0.50770  1.0000
  C   C156      1.0  0.34845  0.15924  0.55153  1.0000
  H   H187      1.0  0.20192  0.08544  0.50501  1.0000
  C   C157      1.0  0.37536  0.22464  0.97190  1.0000
  C   C158      1.0  0.23354  0.00057  0.57411  1.0000
  C   C159      1.0  0.99182  0.23604  0.57662  1.0000
  S   S44       1.0  0.08406  0.22683  0.58198  1.0000
  H   H188      1.0  0.48795  0.23460  0.91066  1.0000
  C   C160      1.0  0.36917  0.16376  0.98666  1.0000
  C   C161      1.0  0.40837  0.22833  0.98465  1.0000
  H   H189      1.0  0.42437  0.23005  0.98197  1.0000
  C   C162      1.0  0.01099  0.24011  0.60641  1.0000
  C   C163      1.0  0.01041  0.23791  0.58564  1.0000
  H   H190      1.0  0.02431  0.23702  0.57662  1.0000
  H   H191      1.0  0.41325  0.00574  0.77178  1.0000
  C   C164      1.0  0.49049  0.12090  0.71352  1.0000
  S   S45       1.0  0.39918  0.25956  0.06053  1.0000
  S   S46       1.0  0.40589  0.25294  0.10843  1.0000
  Fe  Fe23      1.0  0.38112  0.26602  0.08903  1.0000
  S   S47       1.0  0.36729  0.29791  0.09379  1.0000
  C   C165      1.0  0.48688  0.30883  0.05464  1.0000
  C   C166      1.0  0.48473  0.29984  0.09603  1.0000
  Fe  Fe24      1.0  0.06949  0.39037  0.22238  1.0000
  S   S48       1.0  0.06989  0.40856  0.24989  1.0000
  S   S49       1.0  0.04037  0.37770  0.21222  1.0000
  Fe  Fe25      1.0  0.11607  0.38941  0.21654  1.0000
  S   S50       1.0  0.11881  0.40648  0.24492  1.0000
  S   S51       1.0  0.14668  0.38213  0.20013  1.0000
  Fe  Fe26      1.0  0.09491  0.38632  0.25930  1.0000
  S   S52       1.0  0.09028  0.37190  0.29151  1.0000
  Fe  Fe27      1.0  0.09361  0.42671  0.23307  1.0000
  S   S53       1.0  0.09561  0.46036  0.22419  1.0000
  S   S54       1.0  0.09402  0.36794  0.23188  1.0000
  S   S55       1.0  0.09131  0.40980  0.20456  1.0000
  Fe  Fe28      1.0  0.26336  0.37253  0.08909  1.0000
  S   S56       1.0  0.23282  0.37216  0.07525  1.0000
  S   S57       1.0  0.27888  0.34083  0.09194  1.0000
  Fe  Fe29      1.0  0.25948  0.41866  0.09245  1.0000
  S   S58       1.0  0.22923  0.42057  0.07919  1.0000
  S   S59       1.0  0.27583  0.44737  0.09784  1.0000
  Fe  Fe30      1.0  0.22185  0.39356  0.09925  1.0000
  S   S60       1.0  0.18890  0.39469  0.11172  1.0000
  Fe  Fe31      1.0  0.24242  0.39922  0.05640  1.0000
  S   S61       1.0  0.23875  0.41110  0.02393  1.0000
  S   S62       1.0  0.25175  0.39267  0.11421  1.0000
  S   S63       1.0  0.27333  0.39848  0.06873  1.0000
  Fe  Fe32      1.0  0.09873  0.26926  0.36621  1.0000
  S   S64       1.0  0.10952  0.28615  0.33691  1.0000
  H   H192      1.0  0.19145  0.43095  0.01276  1.0000
  H   H193      1.0  0.00802  0.39989  0.14339  1.0000
  H   H194      1.0  0.30298  0.35139  0.03679  1.0000
  S   S65       1.0  0.07876  0.28015  0.39181  1.0000
  H   H195      1.0  0.20648  0.38521  0.04267  1.0000
  C   C167      1.0  0.33944  0.31434  0.04125  1.0000
  C   C168      1.0  0.10340  0.27089  0.46538  1.0000
  C   C169      1.0  0.03572  0.37552  0.27109  1.0000
  H   H196      1.0  0.13752  0.25093  0.30825  1.0000
  C   C170      1.0  0.23615  0.39895  0.00093  1.0000
  C   C171      1.0  0.23037  0.37903  0.00031  1.0000
  C   C172      1.0  0.33135  0.29910  0.03008  1.0000
  H   H197      1.0  0.22822  0.37015  0.01414  1.0000
  C   C173      1.0  0.29510  0.30854  0.13907  1.0000
  C   C174      1.0  0.26496  0.47226  0.09790  1.0000
  H   H198      1.0  0.02646  0.35508  0.30584  1.0000
  C   C175      1.0  0.24415  0.47605  0.09753  1.0000
  H   H199      1.0  0.29306  0.44995  0.04689  1.0000
  H   H200      1.0  0.23419  0.46360  0.09788  1.0000
  C   C176      1.0  0.09455  0.34729  0.30306  1.0000
  C   C177      1.0  0.10741  0.33260  0.29433  1.0000
  C   C178      1.0  0.11147  0.31399  0.30476  1.0000
  C   C179      1.0  0.10256  0.30949  0.32396  1.0000
  C   C180      1.0  0.08921  0.32393  0.33244  1.0000
  C   C181      1.0  0.08539  0.34269  0.32214  1.0000
  H   H201      1.0  0.11467  0.33579  0.27975  1.0000
  H   H202      1.0  0.12183  0.30306  0.29794  1.0000
  H   H203      1.0  0.08226  0.32091  0.34718  1.0000
  H   H204      1.0  0.07555  0.35389  0.32920  1.0000
  C   C182      1.0  0.15789  0.38525  0.17525  1.0000
  C   C183      1.0  0.14677  0.39133  0.15849  1.0000
  C   C184      1.0  0.15651  0.39407  0.13929  1.0000
  C   C185      1.0  0.17751  0.39085  0.13644  1.0000
  C   C186      1.0  0.18862  0.38481  0.15319  1.0000
  C   C187      1.0  0.17887  0.38196  0.17237  1.0000
  H   H205      1.0  0.13064  0.39381  0.16029  1.0000
  H   H206      1.0  0.14767  0.39869  0.12653  1.0000
  H   H207      1.0  0.20474  0.38220  0.15137  1.0000
  H   H208      1.0  0.18770  0.37720  0.18512  1.0000
  C   C188      1.0  0.01595  0.38815  0.21808  1.0000
  H   H209      1.0  0.25845  0.45080  0.00585  1.0000
  H   H210      1.0  0.35109  0.27804  0.05983  1.0000
  H   H211      1.0  0.02593  0.41694  0.22611  1.0000
  H   H212      1.0  0.37067  0.26598  0.01962  1.0000
  H   H213      1.0  0.33570  0.34429  0.05228  1.0000
  H   H214      1.0  0.03150  0.38568  0.28357  1.0000
  H   H215      1.0  0.00993  0.29709  0.37059  1.0000
  H   H216      1.0  0.09744  0.47175  0.26643  1.0000
  H   H217      1.0  0.15784  0.42797  0.22140  1.0000
  C   C189      1.0  0.34251  0.30947  0.09326  1.0000
  C   C190      1.0  0.34014  0.33050  0.09477  1.0000
  C   C191      1.0  0.32094  0.34042  0.09410  1.0000
  C   C192      1.0  0.30374  0.32943  0.09193  1.0000
  C   C193      1.0  0.30612  0.30838  0.09053  1.0000
  C   C194      1.0  0.32529  0.29845  0.09131  1.0000
  H   H218      1.0  0.35328  0.33923  0.09640  1.0000
  H   H219      1.0  0.31944  0.35655  0.09539  1.0000
  H   H220      1.0  0.29294  0.29965  0.08912  1.0000
  H   H221      1.0  0.32664  0.28228  0.09069  1.0000
  H   H222      1.0  0.25762  0.43980  0.04954  1.0000
  H   H223      1.0  0.35329  0.31170  0.04905  1.0000
  C   C195      1.0  0.32942  0.33305  0.04332  1.0000
  H   H224      1.0  0.34024  0.25023  0.01557  1.0000
  H   H225      1.0  0.02675  0.34951  0.24221  1.0000
  H   H226      1.0  0.05240  0.37328  0.27106  1.0000
  S   S66       1.0  0.45508  0.24825  0.06848  1.0000
  H   H227      1.0  0.35901  0.24957  0.17299  1.0000
  H   H228      1.0  0.13820  0.24835  0.34405  1.0000
  H   H229      1.0  0.04882  0.34499  0.29326  1.0000
  Fe  Fe33      1.0  0.06331  0.25069  0.39123  1.0000
  C   C196      1.0  0.30407  0.27294  0.14208  1.0000
  C   C197      1.0  0.99278  0.37733  0.27164  1.0000
  C   C198      1.0  0.09444  0.48383  0.23618  1.0000
  H   H230      1.0  0.45528  0.28916  0.09089  1.0000
  N   N11       1.0  0.17772  0.40068  0.04053  1.0000
  H   H231      1.0  0.16947  0.41913  0.19900  1.0000
  H   H232      1.0  0.48295  0.29552  0.11180  1.0000
  H   H233      1.0  0.19073  0.38363  0.06541  1.0000
  C   C199      1.0  0.31478  0.31301  0.14292  1.0000
  C   C200      1.0  0.19067  0.38387  0.04863  1.0000
  S   S67       1.0  0.10995  0.27952  0.44028  1.0000
  C   C201      1.0  0.28975  0.28857  0.13869  1.0000
  C   C202      1.0  0.16559  0.45528  0.17727  1.0000
  C   C203      1.0  0.01306  0.40780  0.22453  1.0000
  H   H234      1.0  0.24960  0.46335  0.05924  1.0000
  H   H235      1.0  0.13956  0.45870  0.22313  1.0000
  C   C204      1.0  0.17416  0.44118  0.16362  1.0000
  C   C205      1.0  0.35729  0.26390  0.13474  1.0000
  H   H236      1.0  0.31640  0.26174  0.02195  1.0000
  H   H237      1.0  0.00042  0.39131  0.26954  1.0000
  H   H238      1.0  0.17482  0.43275  0.04422  1.0000
  H   H239      1.0  0.18060  0.43913  0.21129  1.0000
  H   H240      1.0  0.19193  0.43607  0.13633  1.0000
  H   H241      1.0  0.19736  0.47226  0.12888  1.0000
  H   H242      1.0  0.14632  0.40967  0.04156  1.0000
  H   H243      1.0  0.99140  0.43129  0.23284  1.0000
  H   H244      1.0  0.27744  0.43694  0.01895  1.0000
  H   H245      1.0  0.02402  0.27059  0.34884  1.0000
  C   C206      1.0  0.10972  0.28134  0.48182  1.0000
  H   H246      1.0  0.00273  0.25569  0.32427  1.0000
  H   H247      1.0  0.34876  0.25403  0.04960  1.0000
  H   H248      1.0  0.35426  0.27620  0.17253  1.0000
  C   C207      1.0  0.00662  0.24755  0.38901  1.0000
  H   H249      1.0  0.27447  0.28526  0.13534  1.0000
  H   H250      1.0  0.33131  0.27116  0.00031  1.0000
  C   C208      1.0  0.16846  0.47598  0.17222  1.0000
  C   C209      1.0  0.09201  0.25386  0.46928  1.0000
  H   H251      1.0  0.36549  0.27772  0.13723  1.0000
  C   C210      1.0  0.03281  0.34349  0.25668  1.0000
  C   C211      1.0  0.47765  0.24800  0.08184  1.0000
  H   H252      1.0  0.29891  0.25785  0.14134  1.0000
  H   H253      1.0  0.31897  0.32860  0.14262  1.0000
  N   N12       1.0  0.34006  0.26090  0.14926  1.0000
  C   C212      1.0  0.46970  0.30041  0.06353  1.0000
  H   H254      1.0  0.26045  0.48354  0.99371  1.0000
  C   C213      1.0  0.99655  0.26771  0.33345  1.0000
  H   H255      1.0  0.00108  0.36134  0.21093  1.0000
  H   H256      1.0  0.35206  0.26527  0.11910  1.0000
  H   H257      1.0  0.13883  0.42555  0.18031  1.0000
  C   C214      1.0  0.36277  0.28097  0.02117  1.0000
  C   C215      1.0  0.26132  0.48618  0.02650  1.0000
  H   H258      1.0  0.16812  0.37073  0.01583  1.0000
  H   H259      1.0  0.32654  0.26874  0.05655  1.0000
  H   H260      1.0  0.12579  0.44970  0.18058  1.0000
  H   H261      1.0  0.20032  0.42220  0.04482  1.0000
  S   S68       1.0  0.12176  0.25515  0.38717  1.0000
  C   C216      1.0  0.27233  0.45254  0.01427  1.0000
  C   C217      1.0  0.18549  0.44726  0.14644  1.0000
  C   C218      1.0  0.18847  0.46760  0.14219  1.0000
  H   H262      1.0  0.11855  0.29453  0.47904  1.0000
  C   C219      1.0  0.99901  0.37655  0.21596  1.0000
  C   C220      1.0  0.17985  0.48193  0.15496  1.0000
  C   C221      1.0  0.32920  0.29754  0.14640  1.0000
  C   C222      1.0  0.18629  0.41761  0.00628  1.0000
  C   C223      1.0  0.16604  0.43309  0.20727  1.0000
  C   C224      1.0  0.99136  0.34109  0.27579  1.0000
  C   C225      1.0  0.34203  0.26958  0.04966  1.0000
  H   H263      1.0  0.12624  0.43361  0.20285  1.0000
  C   C226      1.0  0.13544  0.43891  0.18947  1.0000
  N   N13       1.0  0.12092  0.32813  0.39331  1.0000
  C   C227      1.0  0.12819  0.30734  0.38887  1.0000
  C   C228      1.0  0.13302  0.33501  0.40971  1.0000
  C   C229      1.0  0.09961  0.32712  0.40073  1.0000
  C   C230      1.0  0.12240  0.34239  0.37565  1.0000
  C   C231      1.0  0.11534  0.36271  0.37726  1.0000
  C   C232      1.0  0.13045  0.33668  0.35647  1.0000
  C   C233      1.0  0.11574  0.37625  0.36061  1.0000
  C   C234      1.0  0.13096  0.35042  0.33999  1.0000
  C   C235      1.0  0.12340  0.37007  0.34197  1.0000
  H   H264      1.0  0.14439  0.30672  0.38397  1.0000
  H   H265      1.0  0.12675  0.29697  0.40240  1.0000
  H   H266      1.0  0.11931  0.30101  0.37700  1.0000
  H   H267      1.0  0.12750  0.34986  0.41518  1.0000
  H   H268      1.0  0.14908  0.33638  0.40461  1.0000
  H   H269      1.0  0.13253  0.32426  0.42306  1.0000
  H   H270      1.0  0.09773  0.31553  0.41322  1.0000
  H   H271      1.0  0.09359  0.34153  0.40681  1.0000
  H   H272      1.0  0.08981  0.32325  0.38843  1.0000
  H   H273      1.0  0.10915  0.36819  0.39137  1.0000
  H   H274      1.0  0.13592  0.32154  0.35355  1.0000
  H   H275      1.0  0.10986  0.39158  0.36204  1.0000
  H   H276      1.0  0.13657  0.34560  0.32535  1.0000
  H   H277      1.0  0.12318  0.38039  0.32891  1.0000
  H   H278      1.0  0.15115  0.38295  0.04373  1.0000
  N   N14       1.0  0.15392  0.44830  0.19552  1.0000
  H   H279      1.0  0.99830  0.32618  0.27724  1.0000
  C   C236      1.0  0.14764  0.46466  0.20924  1.0000
  C   C237      1.0  0.31099  0.33709  0.03459  1.0000
  C   C238      1.0  0.25275  0.45548  0.04504  1.0000
  H   H280      1.0  0.36869  0.25119  0.13564  1.0000
  C   C239      1.0  0.18429  0.41945  0.04915  1.0000
  C   C240      1.0  0.17906  0.40099  0.01823  1.0000
  N   N15       1.0  0.26830  0.46531  0.03190  1.0000
  C   C241      1.0  0.00327  0.35834  0.27378  1.0000
  H   H281      1.0  0.08704  0.24561  0.45690  1.0000
  C   C242      1.0  0.28716  0.46548  0.04301  1.0000
  H   H282      1.0  0.15513  0.39794  0.06464  1.0000
  H   H283      1.0  0.37201  0.28935  0.03124  1.0000
  C   C243      1.0  0.33187  0.26506  0.01611  1.0000
  H   H284      1.0  0.02663  0.33076  0.29507  1.0000
  C   C244      1.0  0.00859  0.27613  0.34719  1.0000
  H   H285      1.0  0.99810  0.40887  0.17821  1.0000
  H   H286      1.0  0.18329  0.41860  0.06595  1.0000
  H   H287      1.0  0.29375  0.48597  0.09804  1.0000
  H   H288      1.0  0.30528  0.29330  0.01223  1.0000
  C   C245      1.0  0.46855  0.29616  0.08418  1.0000
  H   H289      1.0  0.23832  0.45483  0.03730  1.0000
  H   H290      1.0  0.28411  0.32061  0.13577  1.0000
  N   N16       1.0  0.02553  0.35610  0.27358  1.0000
  H   H291      1.0  0.04955  0.34308  0.25473  1.0000
  N   N17       1.0  0.34171  0.27902  0.02911  1.0000
  H   H292      1.0  0.18570  0.36891  0.04459  1.0000
  Fe  Fe34      1.0  0.10003  0.26365  0.41275  1.0000
  S   S69       1.0  0.02941  0.25661  0.39747  1.0000
  C   C246      1.0  0.15666  0.39768  0.04788  1.0000
  C   C247      1.0  0.32435  0.27699  0.14593  1.0000
  H   H293      1.0  0.02831  0.32766  0.25877  1.0000
  Fe  Fe35      1.0  0.42251  0.24381  0.07989  1.0000
  H   H294      1.0  0.34431  0.30183  0.14902  1.0000
  H   H295      1.0  0.29906  0.47353  0.03406  1.0000
  C   C248      1.0  0.17347  0.38403  0.00780  1.0000
  H   H296      1.0  0.17208  0.42527  0.16606  1.0000
  H   H297      1.0  0.36324  0.28885  0.00609  1.0000
  C   C249      1.0  0.03206  0.34626  0.29276  1.0000
  H   H298      1.0  0.28427  0.45872  0.00386  1.0000
  H   H299      1.0  0.03230  0.38340  0.25650  1.0000
  H   H300      1.0  0.28832  0.32583  0.01660  1.0000
  C   C250      1.0  0.34731  0.26169  0.16994  1.0000
  H   H301      1.0  0.45732  0.29679  0.05442  1.0000
  H   H302      1.0  0.28494  0.47286  0.05765  1.0000
  C   C251      1.0  0.31268  0.30385  0.02098  1.0000
  C   C252      1.0  0.30271  0.32259  0.02332  1.0000
  C   C253      1.0  0.99224  0.40247  0.14764  1.0000
  H   H303      1.0  0.33473  0.25981  0.18135  1.0000
  H   H304      1.0  0.13673  0.47566  0.20214  1.0000
  H   H305      1.0  0.48767  0.31212  0.03855  1.0000
  H   H306      1.0  0.00752  0.24294  0.47716  1.0000
  C   C254      1.0  0.47777  0.24659  0.10287  1.0000
  H   H307      1.0  0.46376  0.24500  0.11154  1.0000
  C   C255      1.0  0.00057  0.29112  0.35948  1.0000
  H   H308      1.0  0.16197  0.48786  0.18126  1.0000
  C   C256      1.0  0.99346  0.41589  0.22834  1.0000
  C   C257      1.0  0.09598  0.48529  0.25695  1.0000
  H   H309      1.0  0.16081  0.47263  0.21413  1.0000
  C   C258      1.0  0.27763  0.48870  0.09763  1.0000
  S   S70       1.0  0.08231  0.24045  0.36436  1.0000
  C   C259      1.0  0.08699  0.24743  0.48925  1.0000
  Fe  Fe36      1.0  0.41497  0.25296  0.87357  1.0000
  S   S71       1.0  0.44340  0.26782  0.86094  1.0000
  Fe  Fe37      1.0  0.36958  0.25949  0.88295  1.0000
  S   S72       1.0  0.34124  0.28056  0.88669  1.0000
  S   S73       1.0  0.39716  0.26551  0.89994  1.0000
  S   S74       1.0  0.38748  0.24907  0.85527  1.0000
  Fe  Fe38      1.0  0.26524  0.38033  0.87683  1.0000
  S   S75       1.0  0.23789  0.36251  0.88430  1.0000
  S   S76       1.0  0.29502  0.36508  0.86504  1.0000
  Fe  Fe39      1.0  0.24051  0.42088  0.88145  1.0000
  S   S77       1.0  0.21203  0.40441  0.88945  1.0000
  S   S78       1.0  0.23176  0.45461  0.87916  1.0000
  Fe  Fe40      1.0  0.23171  0.38433  0.90914  1.0000
  S   S79       1.0  0.22259  0.37173  0.94057  1.0000
  Fe  Fe41      1.0  0.22089  0.38453  0.86372  1.0000
  S   S80       1.0  0.20511  0.37597  0.83505  1.0000
  S   S81       1.0  0.25978  0.40155  0.90253  1.0000
  S   S82       1.0  0.24869  0.40153  0.85515  1.0000
  Fe  Fe42      1.0  0.10572  0.39404  0.76136  1.0000
  S   S83       1.0  0.12066  0.39529  0.73031  1.0000
  S   S84       1.0  0.12044  0.39378  0.79243  1.0000
  Fe  Fe43      1.0  0.06299  0.40199  0.74329  1.0000
  S   S85       1.0  0.07573  0.40404  0.71149  1.0000
  S   S86       1.0  0.03029  0.41165  0.75116  1.0000
  Fe  Fe44      1.0  0.09519  0.37673  0.72035  1.0000
  S   S87       1.0  0.09737  0.34650  0.70404  1.0000
  Fe  Fe45      1.0  0.09967  0.42237  0.72421  1.0000
  S   S88       1.0  0.11127  0.45230  0.71138  1.0000
  S   S89       1.0  0.08120  0.37400  0.75213  1.0000
  S   S90       1.0  0.08593  0.42176  0.75537  1.0000
  Fe  Fe46      1.0  0.09491  0.27917  0.60258  1.0000
  S   S91       1.0  0.10085  0.30986  0.61567  1.0000
  Fe  Fe47      1.0  0.08904  0.25563  0.56365  1.0000
  H   H310      1.0  0.21348  0.43887  0.79849  1.0000
  S   S92       1.0  0.06814  0.27443  0.58368  1.0000
  S   S93       1.0  0.11618  0.26318  0.58045  1.0000
  C   C260      1.0  0.22673  0.37075  0.98168  1.0000
  H   H311      1.0  0.18737  0.29764  0.69068  1.0000
  C   C261      1.0  0.09318  0.25790  0.50568  1.0000
  H   H312      1.0  0.14342  0.33268  0.65781  1.0000
  H   H313      1.0  0.02452  0.29538  0.69187  1.0000
  C   C262      1.0  0.09838  0.33681  0.67923  1.0000
  C   C263      1.0  0.10044  0.34909  0.66170  1.0000
  C   C264      1.0  0.10102  0.34061  0.64250  1.0000
  C   C265      1.0  0.09945  0.31975  0.64041  1.0000
  C   C266      1.0  0.09746  0.30746  0.65792  1.0000
  C   C267      1.0  0.09698  0.31592  0.67711  1.0000
  H   H314      1.0  0.10164  0.36514  0.66293  1.0000
  H   H315      1.0  0.10274  0.35034  0.62916  1.0000
  H   H316      1.0  0.09661  0.29140  0.65673  1.0000
  H   H317      1.0  0.09549  0.30620  0.69048  1.0000
  C   C268      1.0  0.00706  0.40079  0.74660  1.0000
  C   C269      1.0  0.00603  0.38128  0.73980  1.0000
  H   H318      1.0  0.13418  0.25680  0.65905  1.0000
  H   H319      1.0  0.01975  0.37276  0.73596  1.0000
  H   H320      1.0  0.12499  0.27256  0.63863  1.0000
  C   C270      1.0  0.09998  0.47610  0.71762  1.0000
  H   H321      1.0  0.16807  0.46628  0.84485  1.0000
  C   C271      1.0  0.17830  0.44660  0.82075  1.0000
  H   H322      1.0  0.03216  0.37327  0.77295  1.0000
  H   H323      1.0  0.22824  0.43023  0.81929  1.0000
  C   C272      1.0  0.18148  0.38159  0.82346  1.0000
  C   C273      1.0  0.17977  0.37770  0.80294  1.0000
  C   C274      1.0  0.16142  0.38148  0.79313  1.0000
  C   C275      1.0  0.14430  0.38899  0.80376  1.0000
  C   C276      1.0  0.14605  0.39297  0.82426  1.0000
  C   C277      1.0  0.16443  0.38939  0.83401  1.0000
  H   H324      1.0  0.19271  0.37160  0.79453  1.0000
  H   H325      1.0  0.16046  0.37829  0.77741  1.0000
  H   H326      1.0  0.13302  0.39883  0.83271  1.0000
  H   H327      1.0  0.16523  0.39226  0.84982  1.0000
  H   H328      1.0  0.07415  0.46425  0.73386  1.0000
  C   C278      1.0  0.22918  0.38212  0.96347  1.0000
  C   C279      1.0  0.23554  0.40183  0.96409  1.0000
  H   H329      1.0  0.14614  0.43102  0.78597  1.0000
  H   H330      1.0  0.23735  0.41080  0.95025  1.0000
  C   C280      1.0  0.04809  0.32762  0.65812  1.0000
  C   C281      1.0  0.24302  0.47846  0.87741  1.0000
  C   C282      1.0  0.16577  0.31695  0.67549  1.0000
  H   H331      1.0  0.03438  0.34903  0.78534  1.0000
  C   C283      1.0  0.13763  0.45108  0.80955  1.0000
  C   C284      1.0  0.32830  0.30384  0.87983  1.0000
  C   C285      1.0  0.31106  0.31004  0.89136  1.0000
  C   C286      1.0  0.30052  0.32848  0.88692  1.0000
  C   C287      1.0  0.30702  0.34106  0.87076  1.0000
  C   C288      1.0  0.32393  0.33462  0.85888  1.0000
  C   C289      1.0  0.33448  0.31618  0.86333  1.0000
  H   H332      1.0  0.30596  0.30063  0.90406  1.0000
  H   H333      1.0  0.28757  0.33310  0.89624  1.0000
  H   H334      1.0  0.32910  0.34411  0.84628  1.0000
  H   H335      1.0  0.34741  0.31160  0.85404  1.0000
  C   C290      1.0  0.26370  0.48068  0.87379  1.0000
  H   H336      1.0  0.07069  0.36363  0.85054  1.0000
  C   C291      1.0  0.46711  0.26082  0.87116  1.0000
  H   H337      1.0  0.20758  0.41603  0.81303  1.0000
  Fe  Fe48      1.0  0.06469  0.24613  0.60274  1.0000
  C   C292      1.0  0.08178  0.47772  0.72890  1.0000
  C   C293      1.0  0.03376  0.32457  0.69816  1.0000
  N   N18       1.0  0.25816  0.33047  0.82616  1.0000
  C   C294      1.0  0.24957  0.33072  0.84709  1.0000
  C   C295      1.0  0.26418  0.35119  0.82035  1.0000
  C   C296      1.0  0.24184  0.32504  0.81312  1.0000
  C   C297      1.0  0.27575  0.31626  0.82374  1.0000
  C   C298      1.0  0.28414  0.30490  0.84016  1.0000
  C   C299      1.0  0.28521  0.31363  0.80444  1.0000
  C   C300      1.0  0.30065  0.29151  0.83725  1.0000
  C   C301      1.0  0.30177  0.30024  0.80172  1.0000
  C   C302      1.0  0.30944  0.28918  0.81810  1.0000
  H   H338      1.0  0.26065  0.33603  0.85758  1.0000
  H   H339      1.0  0.23603  0.34111  0.84827  1.0000
  H   H340      1.0  0.24462  0.31562  0.85253  1.0000
  H   H341      1.0  0.27702  0.35550  0.82924  1.0000
  H   H342      1.0  0.25161  0.36248  0.82309  1.0000
  H   H343      1.0  0.26893  0.35288  0.80420  1.0000
  H   H344      1.0  0.22812  0.33507  0.81530  1.0000
  H   H345      1.0  0.24623  0.32643  0.79686  1.0000
  H   H346      1.0  0.23739  0.30928  0.81655  1.0000
  H   H347      1.0  0.27846  0.30622  0.85552  1.0000
  H   H348      1.0  0.27992  0.32202  0.79133  1.0000
  C   C303      1.0  0.03898  0.30953  0.66512  1.0000
  H   H349      1.0  0.30875  0.29846  0.78685  1.0000
  C   C304      1.0  0.15014  0.30281  0.64747  1.0000
  H   H350      1.0  0.22174  0.35552  0.98137  1.0000
  H   H351      1.0  0.04140  0.26924  0.67628  1.0000
  C   C305      1.0  0.03160  0.30863  0.68548  1.0000
  H   H352      1.0  0.14698  0.28424  0.61141  1.0000
  H   H353      1.0  0.10956  0.28313  0.51432  1.0000
  C   C306      1.0  0.21260  0.43172  0.81389  1.0000
  H   H354      1.0  0.00879  0.28262  0.66546  1.0000
  H   H355      1.0  0.04553  0.35393  0.70096  1.0000
  H   H356      1.0  0.03838  0.30814  0.62346  1.0000
  C   C307      1.0  0.15240  0.31883  0.65996  1.0000
  H   H357      1.0  0.12032  0.45047  0.75683  1.0000
  C   C308      1.0  0.12314  0.46593  0.75998  1.0000
  N   N19       1.0  0.01982  0.37180  0.80351  1.0000
  C   C309      1.0  0.00679  0.39023  0.80050  1.0000
  H   H358      1.0  0.45484  0.24339  0.89638  1.0000
  C   C310      1.0  0.23882  0.41023  0.98271  1.0000
  C   C311      1.0  0.03898  0.37687  0.81227  1.0000
  C   C312      1.0  0.05141  0.39137  0.80237  1.0000
  C   C313      1.0  0.04636  0.36706  0.83005  1.0000
  C   C314      1.0  0.06999  0.39574  0.80970  1.0000
  C   C315      1.0  0.06511  0.37148  0.83717  1.0000
  C   C316      1.0  0.07694  0.38570  0.82695  1.0000
  H   H359      1.0  0.12201  0.45231  0.80554  1.0000
  C   C317      1.0  0.00797  0.35725  0.81618  1.0000
  C   C318      1.0  0.20835  0.46336  0.82976  1.0000
  H   H360      1.0  0.18463  0.39942  0.95936  1.0000
  H   H361      1.0  0.18081  0.42661  0.79516  1.0000
  C   C319      1.0  0.14397  0.46100  0.82601  1.0000
  C   C320      1.0  0.17704  0.29905  0.67850  1.0000
  H   H362      1.0  0.01377  0.40151  0.78993  1.0000
  H   H363      1.0  0.01619  0.34242  0.81791  1.0000
  H   H364      1.0  0.04712  0.39916  0.78855  1.0000
  H   H365      1.0  0.03813  0.35573  0.83858  1.0000
  C   C321      1.0  0.99716  0.37340  0.68215  1.0000
  C   C322      1.0  0.17480  0.28285  0.66614  1.0000
  C   C323      1.0  0.16398  0.45879  0.83161  1.0000
  C   C324      1.0  0.99396  0.35626  0.67159  1.0000
  C   C325      1.0  0.48500  0.26771  0.86164  1.0000
  H   H366      1.0  0.04449  0.28192  0.62234  1.0000
  C   C326      1.0  0.15129  0.43911  0.79849  1.0000
  H   H367      1.0  0.02851  0.32336  0.71380  1.0000
  H   H368      1.0  0.05761  0.35692  0.66549  1.0000
  C   C327      1.0  0.17132  0.43674  0.80397  1.0000
  C   C328      1.0  0.18252  0.40009  0.97558  1.0000
  H   H369      1.0  0.18374  0.26934  0.66953  1.0000
  H   H370      1.0  0.21393  0.42956  0.85282  1.0000
  H   H371      1.0  0.32232  0.27885  0.81602  1.0000
  H   H372      1.0  0.30686  0.28308  0.85003  1.0000
  C   C329      1.0  0.10466  0.27491  0.50187  1.0000
  H   H373      1.0  0.20787  0.47266  0.81550  1.0000
  N   N20       1.0  0.40247  0.32097  0.86905  1.0000
  C   C330      1.0  0.41297  0.31475  0.88768  1.0000
  C   C331      1.0  0.39279  0.30332  0.86140  1.0000
  C   C332      1.0  0.41814  0.32722  0.85373  1.0000
  C   C333      1.0  0.38683  0.33685  0.87343  1.0000
  C   C334      1.0  0.38590  0.35576  0.86266  1.0000
  C   C335      1.0  0.37139  0.33330  0.88842  1.0000
  C   C336      1.0  0.37030  0.36999  0.86660  1.0000
  C   C337      1.0  0.35599  0.34769  0.89233  1.0000
  C   C338      1.0  0.35534  0.36593  0.88132  1.0000
  H   H374      1.0  0.40266  0.30840  0.89963  1.0000
  H   H375      1.0  0.42492  0.30281  0.88485  1.0000
  H   H376      1.0  0.42021  0.32771  0.89402  1.0000
  H   H377      1.0  0.38138  0.29704  0.87234  1.0000
  H   H378      1.0  0.40403  0.29091  0.85803  1.0000
  H   H379      1.0  0.38487  0.30736  0.84732  1.0000
  H   H380      1.0  0.42621  0.34040  0.85854  1.0000
  H   H381      1.0  0.42979  0.31490  0.85122  1.0000
  H   H382      1.0  0.41163  0.33087  0.83883  1.0000
  H   H383      1.0  0.39684  0.35982  0.85092  1.0000
  H   H384      1.0  0.37059  0.31903  0.89676  1.0000
  H   H385      1.0  0.36958  0.38417  0.85799  1.0000
  H   H386      1.0  0.34396  0.34432  0.90334  1.0000
  H   H387      1.0  0.34290  0.37670  0.88391  1.0000
  H   H388      1.0  0.16723  0.32935  0.68531  1.0000
  S   S94       1.0  0.08621  0.24869  0.53044  1.0000
  H   H389      1.0  0.13303  0.24703  0.63442  1.0000
  H   H390      1.0  0.13323  0.47011  0.83474  1.0000
  S   S95       1.0  0.09076  0.25151  0.62232  1.0000
  H   H391      1.0  0.20092  0.47222  0.84198  1.0000
  C   C339      1.0  0.04317  0.34187  0.69095  1.0000
  H   H392      1.0  0.00668  0.34816  0.66462  1.0000
  C   C340      1.0  0.19852  0.43285  0.84753  1.0000
  H   H393      1.0  0.09170  0.38877  0.83214  1.0000
  H   H394      1.0  0.27358  0.46748  0.87231  1.0000
  N   N21       1.0  0.19911  0.44366  0.82765  1.0000
  H   H395      1.0  0.01227  0.37853  0.68353  1.0000
  C   C341      1.0  0.05001  0.34351  0.67091  1.0000
  C   C342      1.0  0.04607  0.29527  0.63157  1.0000
  H   H396      1.0  0.06426  0.27761  0.66400  1.0000
  H   H397      1.0  0.09482  0.47078  0.77596  1.0000
  H   H398      1.0  0.06246  0.29791  0.63155  1.0000
  H   H399      1.0  0.01438  0.27441  0.64069  1.0000
  H   H400      1.0  0.16932  0.24271  0.65677  1.0000
  H   H401      1.0  0.05448  0.32970  0.64301  1.0000
  H   H402      1.0  0.19111  0.41825  0.84692  1.0000
  C   C343      1.0  0.04834  0.27426  0.66155  1.0000
  C   C344      1.0  0.01601  0.28721  0.65072  1.0000
  H   H403      1.0  0.00717  0.30034  0.64436  1.0000
  N   N22       1.0  0.03743  0.29200  0.65235  1.0000
  H   H404      1.0  0.07933  0.40664  0.80164  1.0000
  C   C345      1.0  0.18788  0.41707  0.98528  1.0000
  H   H405      1.0  0.13929  0.30495  0.63590  1.0000
  C   C346      1.0  0.17112  0.24930  0.64118  1.0000
  C   C347      1.0  0.15889  0.27298  0.61603  1.0000
  H   H406      1.0  0.17167  0.37026  0.97915  1.0000
  H   H407      1.0  0.00339  0.39773  0.81494  1.0000
  C   C348      1.0  0.02434  0.36274  0.78378  1.0000
  H   H408      1.0  0.19048  0.44171  0.85941  1.0000
  H   H409      1.0  0.18707  0.25322  0.63809  1.0000
  H   H410      1.0  0.04850  0.26104  0.65182  1.0000
  C   C349      1.0  0.46841  0.24876  0.88881  1.0000
  H   H411      1.0  0.17375  0.27945  0.61202  1.0000
  C   C350      1.0  0.14069  0.47458  0.75233  1.0000
  H   H412      1.0  0.15134  0.46569  0.74326  1.0000
  C   C351      1.0  0.16114  0.28425  0.65022  1.0000
  H   H413      1.0  0.00413  0.36311  0.83134  1.0000
  H   H414      1.0  0.22437  0.46147  0.83402  1.0000
  N   N23       1.0  0.15718  0.26703  0.63779  1.0000
  H   H415      1.0  0.01039  0.35854  0.77659  1.0000
  C   C352      1.0  0.13644  0.26059  0.64268  1.0000
  C   C353      1.0  0.48726  0.24388  0.89695  1.0000
  H   H416      1.0  0.19409  0.42958  0.97646  1.0000
  C   C354      1.0  0.10881  0.47741  0.77077  1.0000
  H   H417      1.0  0.48419  0.27709  0.84800  1.0000
  H   H418      1.0  0.15720  0.25990  0.60639  1.0000
  H   H419      1.0  0.24316  0.42567  0.98296  1.0000
  C   C355      1.0  0.99274  0.24103  0.61791  1.0000
  H   H420      1.0  0.99300  0.24250  0.63401  1.0000
  S   S96       1.0  0.03412  0.24110  0.61870  1.0000
  H   H421      1.0  0.99226  0.38690  0.79385  1.0000
  H   H422      1.0  0.00559  0.28231  0.49304  1.0000
  H   H423      1.0  0.99345  0.35424  0.80932  1.0000
  C   C356      1.0  0.17530  0.38362  0.98681  1.0000
  H   H424      1.0  0.48624  0.25746  0.96738  1.0000
  H   H425      1.0  0.00965  0.62852  0.18110  1.0000
  S   S97       1.0  0.44794  0.71319  0.09636  1.0000
  Fe  Fe49      1.0  0.37117  0.72608  0.09117  1.0000
  S   S98       1.0  0.34060  0.71020  0.09247  1.0000
  S   S99       1.0  0.39563  0.71976  0.06740  1.0000
  C   C357      1.0  0.34049  0.67879  0.00539  1.0000
  Fe  Fe50      1.0  0.09193  0.62339  0.25845  1.0000
  S   S100      1.0  0.09101  0.63094  0.22500  1.0000
  S   S101      1.0  0.08622  0.65188  0.27733  1.0000
  Fe  Fe51      1.0  0.09252  0.57748  0.24999  1.0000
  S   S102      1.0  0.09063  0.58287  0.21664  1.0000
  S   S103      1.0  0.09451  0.54587  0.26494  1.0000
  Fe  Fe52      1.0  0.11425  0.60584  0.21964  1.0000
  S   S104      1.0  0.14509  0.60406  0.20205  1.0000
  Fe  Fe53      1.0  0.06763  0.60735  0.22494  1.0000
  S   S105      1.0  0.03937  0.61450  0.20742  1.0000
  S   S106      1.0  0.11685  0.59970  0.25323  1.0000
  S   S107      1.0  0.06783  0.60037  0.25811  1.0000
  Fe  Fe54      1.0  0.26754  0.61068  0.09479  1.0000
  S   S108      1.0  0.24143  0.62865  0.08201  1.0000
  S   S109      1.0  0.29818  0.62445  0.10040  1.0000
  Fe  Fe55      1.0  0.24637  0.57021  0.09060  1.0000
  S   S110      1.0  0.21989  0.58662  0.07655  1.0000
  S   S111      1.0  0.23770  0.53715  0.09373  1.0000
  Fe  Fe56      1.0  0.24206  0.60513  0.05855  1.0000
  S   S112      1.0  0.24377  0.61734  0.02587  1.0000
  Fe  Fe57      1.0  0.22123  0.60832  0.10142  1.0000
  S   S113      1.0  0.18995  0.61831  0.11490  1.0000
  S   S114      1.0  0.26861  0.58751  0.07070  1.0000
  S   S115      1.0  0.24731  0.59167  0.11602  1.0000
  C   C358      1.0  0.25128  0.51297  0.00193  1.0000
  H   H426      1.0  0.45481  0.73433  0.15733  1.0000
  Fe  Fe58      1.0  0.09661  0.72497  0.37357  1.0000
  S   S116      1.0  0.10632  0.69487  0.35898  1.0000
  H   H427      1.0  0.19471  0.63243  0.07299  1.0000
  H   H428      1.0  0.04696  0.66990  0.22586  1.0000
  N   N24       1.0  0.15178  0.73644  0.32681  1.0000
  C   C359      1.0  0.28035  0.66003  0.02068  1.0000
  H   H429      1.0  0.02599  0.69243  0.26106  1.0000
  C   C360      1.0  0.26966  0.50870  0.09656  1.0000
  C   C361      1.0  0.24885  0.51246  0.09593  1.0000
  H   H430      1.0  0.28215  0.66457  0.00447  1.0000
  H   H431      1.0  0.27960  0.52118  0.09617  1.0000
  H   H432      1.0  0.24237  0.54174  0.01383  1.0000
  C   C362      1.0  0.22415  0.59113  0.00233  1.0000
  C   C363      1.0  0.23701  0.60718  0.00290  1.0000
  H   H433      1.0  0.20937  0.52272  0.17097  1.0000
  H   H434      1.0  0.21865  0.58389  0.01623  1.0000
  C   C364      1.0  0.00613  0.54094  0.25376  1.0000
  C   C365      1.0  0.15703  0.60791  0.17750  1.0000
  C   C366      1.0  0.17772  0.60276  0.17470  1.0000
  C   C367      1.0  0.18791  0.60539  0.15571  1.0000
  C   C368      1.0  0.17767  0.61362  0.13914  1.0000
  C   C369      1.0  0.15699  0.61880  0.14194  1.0000
  C   C370      1.0  0.14672  0.61585  0.16087  1.0000
  H   H435      1.0  0.18604  0.59684  0.18739  1.0000
  H   H436      1.0  0.20381  0.60147  0.15399  1.0000
  H   H437      1.0  0.14884  0.62526  0.12937  1.0000
  H   H438      1.0  0.13088  0.61999  0.16263  1.0000
  C   C371      1.0  0.09159  0.66316  0.30050  1.0000
  C   C372      1.0  0.08316  0.68247  0.30448  1.0000
  C   C373      1.0  0.08733  0.69233  0.32221  1.0000
  C   C374      1.0  0.10002  0.68304  0.33639  1.0000
  C   C375      1.0  0.10836  0.66370  0.33246  1.0000
  C   C376      1.0  0.10421  0.65384  0.31472  1.0000
  H   H439      1.0  0.07347  0.68999  0.29366  1.0000
  H   H440      1.0  0.08079  0.70717  0.32486  1.0000
  H   H441      1.0  0.11817  0.65627  0.34324  1.0000
  H   H442      1.0  0.11087  0.63906  0.31204  1.0000
  H   H443      1.0  0.28868  0.65252  0.05890  1.0000
  C   C377      1.0  0.01269  0.61568  0.21106  1.0000
  C   C378      1.0  0.14395  0.72225  0.31276  1.0000
  H   H444      1.0  0.09131  0.50074  0.20807  1.0000
  H   H445      1.0  0.01029  0.60320  0.24151  1.0000
  H   H446      1.0  0.25934  0.49605  0.05738  1.0000
  C   C379      1.0  0.09389  0.52221  0.25346  1.0000
  C   C380      1.0  0.09213  0.52071  0.23272  1.0000
  H   H447      1.0  0.03941  0.63907  0.27205  1.0000
  H   H448      1.0  0.09034  0.53421  0.22325  1.0000
  C   C381      1.0  0.32919  0.68615  0.09524  1.0000
  C   C382      1.0  0.30814  0.68526  0.09389  1.0000
  C   C383      1.0  0.29837  0.66671  0.09565  1.0000
  C   C384      1.0  0.30949  0.64858  0.09876  1.0000
  C   C385      1.0  0.33053  0.64949  0.10017  1.0000
  C   C386      1.0  0.34031  0.66804  0.09837  1.0000
  H   H449      1.0  0.29926  0.69907  0.09165  1.0000
  H   H450      1.0  0.28219  0.66646  0.09479  1.0000
  H   H451      1.0  0.33939  0.63569  0.10265  1.0000
  H   H452      1.0  0.35646  0.66830  0.09952  1.0000
  H   H453      1.0  0.02648  0.65533  0.21990  1.0000
  C   C387      1.0  0.32296  0.73171  0.00377  1.0000
  C   C388      1.0  0.47188  0.72438  0.09502  1.0000
  C   C389      1.0  0.03600  0.55341  0.23622  1.0000
  C   C390      1.0  0.03073  0.66753  0.22967  1.0000
  H   H454      1.0  0.27896  0.63058  0.04932  1.0000
  H   H455      1.0  0.10924  0.71815  0.46222  1.0000
  C   C391      1.0  0.25060  0.52002  0.03719  1.0000
  C   C392      1.0  0.00209  0.60938  0.22885  1.0000
  C   C393      1.0  0.25801  0.49312  0.00634  1.0000
  C   C394      1.0  0.14273  0.68781  0.30108  1.0000
  H   H456      1.0  0.03312  0.63031  0.24801  1.0000
  H   H457      1.0  0.15196  0.71541  0.35264  1.0000
  C   C395      1.0  0.00576  0.65880  0.25715  1.0000
  C   C396      1.0  0.32340  0.66716  0.00724  1.0000
  H   H458      1.0  0.01087  0.65277  0.28906  1.0000
  H   H459      1.0  0.30484  0.63037  0.05522  1.0000
  H   H460      1.0  0.11305  0.71939  0.27295  1.0000
  H   H461      1.0  0.30171  0.73442  0.04009  1.0000
  H   H462      1.0  0.22008  0.49874  0.09606  1.0000
  H   H463      1.0  0.36386  0.69229  0.02098  1.0000
  C   C397      1.0  0.14551  0.73039  0.34777  1.0000
  H   H464      1.0  0.38348  0.72601  0.01603  1.0000
  C   C398      1.0  0.24760  0.52638  0.01731  1.0000
  C   C399      1.0  0.34362  0.67632  0.04136  1.0000
  C   C400      1.0  0.99351  0.55000  0.23894  1.0000
  C   C401      1.0  0.30059  0.62963  0.01528  1.0000
  C   C402      1.0  0.31601  0.65955  0.02630  1.0000
  C   C403      1.0  0.14971  0.70149  0.31427  1.0000
  C   C404      1.0  0.32665  0.66456  0.04335  1.0000
  H   H465      1.0  0.99331  0.66246  0.22703  1.0000
  C   C405      1.0  0.00318  0.56078  0.22261  1.0000
  C   C406      1.0  0.38465  0.73546  0.00246  1.0000
  H   H466      1.0  0.15934  0.69558  0.32595  1.0000
  H   H467      1.0  0.99992  0.53245  0.26658  1.0000
  C   C407      1.0  0.19790  0.52659  0.18241  1.0000
  C   C408      1.0  0.13048  0.72838  0.29742  1.0000
  H   H468      1.0  0.20191  0.49877  0.19948  1.0000
  H   H469      1.0  0.05511  0.64448  0.25039  1.0000
  N   N25       1.0  0.15308  0.54337  0.22826  1.0000
  C   C409      1.0  0.14867  0.52736  0.24389  1.0000
  C   C410      1.0  0.16037  0.56082  0.23857  1.0000
  C   C411      1.0  0.13381  0.54940  0.21890  1.0000
  C   C412      1.0  0.16824  0.53712  0.21255  1.0000
  H   H470      1.0  0.31403  0.62027  0.01978  1.0000
  C   C413      1.0  0.17303  0.55041  0.19596  1.0000
  C   C414      1.0  0.03913  0.64315  0.25569  1.0000
  N   N26       1.0  0.29773  0.64749  0.02787  1.0000
  H   H471      1.0  0.16216  0.52285  0.25255  1.0000
  H   H472      1.0  0.13697  0.53260  0.25523  1.0000
  H   H473      1.0  0.14261  0.51392  0.23722  1.0000
  H   H474      1.0  0.17507  0.55712  0.24545  1.0000
  H   H475      1.0  0.14948  0.56586  0.25070  1.0000
  H   H476      1.0  0.16251  0.57410  0.22811  1.0000
  H   H477      1.0  0.12822  0.53705  0.21016  1.0000
  H   H478      1.0  0.12194  0.55345  0.23047  1.0000
  H   H479      1.0  0.13500  0.56290  0.20861  1.0000
  C   C415      1.0  0.17903  0.51822  0.21341  1.0000
  H   H480      1.0  0.16569  0.56515  0.19443  1.0000
  H   H481      1.0  0.03521  0.67416  0.27951  1.0000
  N   N27       1.0  0.17419  0.62391  0.05076  1.0000
  C   C416      1.0  0.17229  0.60371  0.06081  1.0000
  C   C417      1.0  0.19367  0.63178  0.05635  1.0000
  C   C418      1.0  0.15795  0.63755  0.05893  1.0000
  C   C419      1.0  0.17243  0.62240  0.02876  1.0000
  C   C420      1.0  0.15502  0.61437  0.02104  1.0000
  C   C421      1.0  0.18782  0.62828  0.01447  1.0000
  C   C422      1.0  0.02704  0.54267  0.25236  1.0000
  S   S117      1.0  0.39332  0.73264  0.11499  1.0000
  C   C423      1.0  0.19364  0.51313  0.19850  1.0000
  H   H482      1.0  0.18322  0.59260  0.05396  1.0000
  H   H483      1.0  0.05104  0.68110  0.25861  1.0000
  H   H484      1.0  0.15703  0.59780  0.05983  1.0000
  H   H485      1.0  0.20658  0.62198  0.05101  1.0000
  H   H486      1.0  0.14691  0.67194  0.30282  1.0000
  H   H487      1.0  0.19579  0.64733  0.05009  1.0000
  H   H488      1.0  0.15921  0.63923  0.07545  1.0000
  H   H489      1.0  0.31741  0.71958  0.01349  1.0000
  H   H490      1.0  0.14273  0.63191  0.05685  1.0000
  H   H491      1.0  0.14266  0.60970  0.03095  1.0000
  H   H492      1.0  0.20170  0.63443  0.01875  1.0000
  H   H493      1.0  0.26611  0.65183  0.02241  1.0000
  C   C424      1.0  0.48940  0.71219  0.09790  1.0000
  C   C425      1.0  0.18601  0.62573  0.99388  1.0000
  C   C426      1.0  0.34100  0.73700  0.04393  1.0000
  C   C427      1.0  0.29245  0.64000  0.04871  1.0000
  C   C428      1.0  0.02411  0.56240  0.22138  1.0000
  H   H494      1.0  0.32223  0.65953  0.05845  1.0000
  H   H495      1.0  0.28735  0.61983  0.01685  1.0000
  S   S118      1.0  0.06883  0.73075  0.39371  1.0000
  H   H496      1.0  0.27816  0.67391  0.02940  1.0000
  C   C429      1.0  0.35059  0.68333  0.02243  1.0000
  H   H497      1.0  0.19101  0.55576  0.16870  1.0000
  C   C430      1.0  0.03506  0.67815  0.26313  1.0000
  C   C431      1.0  0.12975  0.69432  0.28609  1.0000
  H   H498      1.0  0.02227  0.68167  0.22529  1.0000
  N   N28       1.0  0.02718  0.66195  0.25136  1.0000
  H   H499      1.0  0.17517  0.60389  0.07720  1.0000
  H   H500      1.0  0.15859  0.65280  0.05147  1.0000
  H   H501      1.0  0.30243  0.63370  0.99899  1.0000
  H   H502      1.0  0.05221  0.55484  0.23529  1.0000
  C   C432      1.0  0.25735  0.50026  0.04174  1.0000
  Fe  Fe59      1.0  0.41748  0.72908  0.09026  1.0000
  C   C433      1.0  0.10346  0.72642  0.47501  1.0000
  H   H503      1.0  0.09716  0.50532  0.28157  1.0000
  H   H504      1.0  0.24764  0.53040  0.04924  1.0000
  C   C434      1.0  0.09582  0.50438  0.26550  1.0000
  H   H505      1.0  0.03115  0.57098  0.20895  1.0000
  H   H506      1.0  0.12400  0.68356  0.27620  1.0000
  C   C435      1.0  0.09262  0.50167  0.22414  1.0000
  C   C436      1.0  0.23619  0.49600  0.09653  1.0000
  H   H507      1.0  0.35145  0.67992  0.05467  1.0000
  H   H508      1.0  0.17664  0.50725  0.22558  1.0000
  H   H509      1.0  0.33686  0.72141  0.04121  1.0000
  C   C437      1.0  0.18758  0.54518  0.18113  1.0000
  C   C438      1.0  0.12357  0.71453  0.28433  1.0000
  S   S119      1.0  0.11681  0.73839  0.39575  1.0000
  C   C439      1.0  0.15343  0.61180  0.00041  1.0000
  H   H510      1.0  0.48811  0.69613  0.10042  1.0000
  C   C440      1.0  0.99991  0.65395  0.27749  1.0000
  H   H511      1.0  0.18089  0.72107  0.32950  1.0000
  C   C441      1.0  0.00176  0.62357  0.19487  1.0000
  H   H512      1.0  0.44563  0.73668  0.13256  1.0000
  H   H513      1.0  0.14020  0.60525  0.99487  1.0000
  H   H514      1.0  0.18192  0.49777  0.15134  1.0000
  H   H515      1.0  0.03644  0.53569  0.26385  1.0000
  H   H516      1.0  0.33997  0.73831  0.06051  1.0000
  H   H517      1.0  0.35705  0.73863  0.03892  1.0000
  H   H518      1.0  0.34601  0.68427  0.99067  1.0000
  H   H519      1.0  0.12892  0.72932  0.34931  1.0000
  H   H520      1.0  0.31601  0.66413  0.99361  1.0000
  H   H521      1.0  0.99496  0.56847  0.21073  1.0000
  C   C442      1.0  0.17408  0.73603  0.32505  1.0000
  H   H522      1.0  0.17941  0.73976  0.30930  1.0000
  H   H523      1.0  0.99116  0.73880  0.41420  1.0000
  S   S120      1.0  0.39744  0.71252  0.89345  1.0000
  H   H524      1.0  0.13106  0.64981  0.55739  1.0000
  Fe  Fe60      1.0  0.37391  0.71824  0.87019  1.0000
  S   S121      1.0  0.35667  0.69290  0.85653  1.0000
  H   H525      1.0  0.10085  0.68618  0.56400  1.0000
  C   C443      1.0  0.26420  0.71350  0.82157  1.0000
  Fe  Fe61      1.0  0.25927  0.61539  0.88364  1.0000
  S   S122      1.0  0.22641  0.62204  0.89155  1.0000
  S   S123      1.0  0.28222  0.63966  0.88877  1.0000
  Fe  Fe62      1.0  0.25110  0.57068  0.87765  1.0000
  S   S124      1.0  0.21789  0.57466  0.88507  1.0000
  S   S125      1.0  0.26940  0.54173  0.87102  1.0000
  Fe  Fe63      1.0  0.21940  0.60310  0.86531  1.0000
  S   S126      1.0  0.19616  0.61743  0.84332  1.0000
  Fe  Fe64      1.0  0.22744  0.59326  0.91053  1.0000
  S   S127      1.0  0.21398  0.58770  0.94250  1.0000
  S   S128      1.0  0.25243  0.59813  0.85641  1.0000
  S   S129      1.0  0.26037  0.58757  0.90409  1.0000
  S   S130      1.0  0.08065  0.72118  0.59008  1.0000
  H   H526      1.0  0.10088  0.53712  0.76652  1.0000
  C   C444      1.0  0.24950  0.69899  0.82290  1.0000
  H   H527      1.0  0.16496  0.52790  0.76756  1.0000
  H   H528      1.0  0.25360  0.62904  0.98486  1.0000
  S   S131      1.0  0.11647  0.71149  0.63702  1.0000
  Fe  Fe65      1.0  0.08310  0.57010  0.73259  1.0000
  S   S132      1.0  0.08097  0.58416  0.76284  1.0000
  S   S133      1.0  0.07121  0.53817  0.73355  1.0000
  Fe  Fe66      1.0  0.09585  0.61053  0.71126  1.0000
  S   S134      1.0  0.09534  0.62617  0.74065  1.0000
  S   S135      1.0  0.09707  0.62567  0.67939  1.0000
  Fe  Fe67      1.0  0.11075  0.59785  0.75398  1.0000
  S   S136      1.0  0.13715  0.59031  0.77535  1.0000
  Fe  Fe68      1.0  0.06587  0.61074  0.74691  1.0000
  S   S137      1.0  0.03822  0.62946  0.75748  1.0000
  S   S138      1.0  0.11317  0.58293  0.72378  1.0000
  S   S139      1.0  0.06603  0.59603  0.71750  1.0000
  C   C445      1.0  0.10401  0.67439  0.57599  1.0000
  C   C446      1.0  0.01176  0.62609  0.75906  1.0000
  C   C447      1.0  0.00165  0.61279  0.74743  1.0000
  H   H529      1.0  0.11765  0.55707  0.76208  1.0000
  H   H530      1.0  0.01023  0.60336  0.73707  1.0000
  H   H531      1.0  0.29045  0.72457  0.83464  1.0000
  C   C448      1.0  0.08293  0.51455  0.72727  1.0000
  C   C449      1.0  0.10092  0.73037  0.51159  1.0000
  N   N29       1.0  0.12581  0.67220  0.57986  1.0000
  H   H532      1.0  0.42212  0.72210  0.96336  1.0000
  C   C450      1.0  0.10924  0.68840  0.64948  1.0000
  C   C451      1.0  0.11809  0.68229  0.66773  1.0000
  C   C452      1.0  0.11380  0.66365  0.67761  1.0000
  C   C453      1.0  0.10087  0.65058  0.66917  1.0000
  C   C454      1.0  0.09174  0.65684  0.65110  1.0000
  C   C455      1.0  0.09567  0.67569  0.64146  1.0000
  H   H533      1.0  0.12863  0.69194  0.67411  1.0000
  H   H534      1.0  0.12118  0.65905  0.69132  1.0000
  H   H535      1.0  0.08183  0.64685  0.64430  1.0000
  H   H536      1.0  0.08863  0.68012  0.62755  1.0000
  H   H537      1.0  0.02113  0.67909  0.67458  1.0000
  H   H538      1.0  0.14950  0.69239  0.58506  1.0000
  C   C456      1.0  0.27893  0.71347  0.83583  1.0000
  H   H539      1.0  0.37367  0.64627  0.86147  1.0000
  C   C457      1.0  0.17965  0.60929  0.82475  1.0000
  C   C458      1.0  0.16590  0.62341  0.81594  1.0000
  C   C459      1.0  0.15276  0.61795  0.80103  1.0000
  C   C460      1.0  0.15321  0.59821  0.79444  1.0000
  C   C461      1.0  0.16700  0.58409  0.80320  1.0000
  C   C462      1.0  0.18002  0.58952  0.81824  1.0000
  H   H540      1.0  0.16532  0.63874  0.82073  1.0000
  H   H541      1.0  0.14234  0.62906  0.79459  1.0000
  H   H542      1.0  0.16769  0.56881  0.79832  1.0000
  H   H543      1.0  0.19045  0.57842  0.82470  1.0000
  C   C463      1.0  0.25895  0.51749  0.87378  1.0000
  H   H544      1.0  0.10019  0.50605  0.78194  1.0000
  C   C464      1.0  0.23831  0.51521  0.87751  1.0000
  C   C465      1.0  0.43849  0.72507  0.96245  1.0000
  H   H545      1.0  0.22838  0.52837  0.87901  1.0000
  C   C466      1.0  0.22420  0.59456  0.96541  1.0000
  C   C467      1.0  0.05023  0.68484  0.68669  1.0000
  C   C468      1.0  0.23759  0.61015  0.96600  1.0000
  H   H546      1.0  0.21030  0.68382  0.82502  1.0000
  H   H547      1.0  0.24266  0.61772  0.95211  1.0000
  C   C469      1.0  0.33529  0.67902  0.86554  1.0000
  C   C470      1.0  0.32659  0.66585  0.85261  1.0000
  C   C471      1.0  0.31041  0.65376  0.85933  1.0000
  C   C472      1.0  0.30257  0.65467  0.87916  1.0000
  C   C473      1.0  0.31105  0.66805  0.89198  1.0000
  C   C474      1.0  0.32723  0.68012  0.88527  1.0000
  H   H548      1.0  0.33262  0.66480  0.83732  1.0000
  H   H549      1.0  0.30412  0.64370  0.84916  1.0000
  H   H550      1.0  0.30512  0.66904  0.90731  1.0000
  H   H551      1.0  0.33365  0.69011  0.89545  1.0000
  C   C475      1.0  0.13178  0.53230  0.79139  1.0000
  H   H552      1.0  0.03159  0.64855  0.68782  1.0000
  H   H553      1.0  0.05921  0.49780  0.74226  1.0000
  H   H554      1.0  0.15305  0.66234  0.56407  1.0000
  H   H555      1.0  0.14774  0.65415  0.64465  1.0000
  C   C476      1.0  0.03096  0.67489  0.71696  1.0000
  C   C477      1.0  0.06654  0.66799  0.71613  1.0000
  H   H556      1.0  0.02957  0.66402  0.73013  1.0000
  H   H557      1.0  0.03227  0.69013  0.72295  1.0000
  H   H558      1.0  0.06460  0.65667  0.72882  1.0000
  H   H559      1.0  0.08028  0.66302  0.70724  1.0000
  H   H560      1.0  0.37710  0.71206  0.98294  1.0000
  H   H561      1.0  0.36781  0.62205  0.83541  1.0000
  H   H562      1.0  0.15286  0.53478  0.74414  1.0000
  C   C478      1.0  0.47803  0.71227  0.87110  1.0000
  C   C479      1.0  0.26429  0.68458  0.85311  1.0000
  H   H563      1.0  0.26428  0.72477  0.80932  1.0000
  H   H564      1.0  0.13021  0.70303  0.56967  1.0000
  C   C480      1.0  0.06788  0.71168  0.66757  1.0000
  C   C481      1.0  0.03545  0.70234  0.65719  1.0000
  H   H565      1.0  0.08103  0.72076  0.66515  1.0000
  N   N30       1.0  0.04860  0.66963  0.70355  1.0000
  H   H566      1.0  0.34419  0.59519  0.84203  1.0000
  H   H567      1.0  0.13474  0.67509  0.54837  1.0000
  H   H568      1.0  0.00279  0.52081  0.71766  1.0000
  N   N31       1.0  0.44572  0.73002  0.94145  1.0000
  S   S140      1.0  0.37714  0.72892  0.94273  1.0000
  H   H569      1.0  0.10851  0.52642  0.71057  1.0000
  H   H570      1.0  0.35578  0.64341  0.89458  1.0000
  C   C482      1.0  0.24919  0.68397  0.83875  1.0000
  H   H571      1.0  0.05302  0.72528  0.64202  1.0000
  C   C483      1.0  0.12974  0.50698  0.76640  1.0000
  H   H572      1.0  0.25480  0.64752  0.82430  1.0000
  C   C484      1.0  0.22327  0.66810  0.86001  1.0000
  C   C485      1.0  0.21938  0.66943  0.82438  1.0000
  H   H573      1.0  0.01254  0.52313  0.74196  1.0000
  H   H574      1.0  0.01214  0.54434  0.72409  1.0000
  C   C486      1.0  0.21762  0.58503  0.98369  1.0000
  H   H575      1.0  0.21558  0.68303  0.86233  1.0000
  C   C487      1.0  0.38117  0.72756  0.98365  1.0000
  H   H576      1.0  0.44664  0.71143  0.96869  1.0000
  H   H577      1.0  0.11689  0.52914  0.79876  1.0000
  H   H578      1.0  0.20714  0.57306  0.98342  1.0000
  H   H579      1.0  0.47523  0.71067  0.91629  1.0000
  Fe  Fe69      1.0  0.41597  0.73576  0.87656  1.0000
  C   C488      1.0  0.03441  0.68790  0.67308  1.0000
  H   H580      1.0  0.42190  0.71309  0.93014  1.0000
  H   H581      1.0  0.23320  0.66477  0.87284  1.0000
  H   H582      1.0  0.06932  0.68244  0.72313  1.0000
  H   H583      1.0  0.26508  0.67363  0.86553  1.0000
  H   H584      1.0  0.46575  0.70254  0.86898  1.0000
  C   C489      1.0  0.00354  0.53127  0.73021  1.0000
  N   N32       1.0  0.23448  0.66781  0.84025  1.0000
  C   C490      1.0  0.24540  0.64807  0.83852  1.0000
  H   H585      1.0  0.44534  0.69922  0.93267  1.0000
  H   H586      1.0  0.21157  0.65652  0.86127  1.0000
  H   H587      1.0  0.19819  0.62975  0.98330  1.0000
  C   C491      1.0  0.14086  0.64958  0.63118  1.0000
  C   C492      1.0  0.06711  0.69716  0.68338  1.0000
  H   H588      1.0  0.11783  0.60984  0.61357  1.0000
  C   C493      1.0  0.15182  0.53605  0.76079  1.0000
  C   C494      1.0  0.11604  0.54076  0.76009  1.0000
  C   C495      1.0  0.00037  0.63827  0.77225  1.0000
  H   H589      1.0  0.08013  0.69572  0.69255  1.0000
  S   S141      1.0  0.10766  0.72165  0.53616  1.0000
  H   H590      1.0  0.15340  0.55230  0.76351  1.0000
  C   C496      1.0  0.00141  0.57143  0.77837  1.0000
  H   H591      1.0  0.23480  0.63556  0.83857  1.0000
  H   H592      1.0  0.11812  0.70661  0.49692  1.0000
  C   C497      1.0  0.10113  0.51296  0.71598  1.0000
  H   H593      1.0  0.15778  0.50058  0.74868  1.0000
  H   H594      1.0  0.09783  0.66036  0.57083  1.0000
  H   H595      1.0  0.21442  0.49437  0.88200  1.0000
  H   H596      1.0  0.01657  0.67477  0.70916  1.0000
  C   C498      1.0  0.14407  0.49479  0.75545  1.0000
  C   C499      1.0  0.27895  0.69906  0.85159  1.0000
  C   C500      1.0  0.27158  0.50010  0.87189  1.0000
  H   H597      1.0  0.29055  0.69895  0.86257  1.0000
  C   C501      1.0  0.16899  0.61730  0.98689  1.0000
  C   C502      1.0  0.00172  0.55813  0.76262  1.0000
  H   H598      1.0  0.11598  0.53846  0.74366  1.0000
  H   H599      1.0  0.14444  0.67800  0.61653  1.0000
  H   H600      1.0  0.12510  0.69952  0.59614  1.0000
  N   N33       1.0  0.13247  0.52857  0.76955  1.0000
  C   C503      1.0  0.05216  0.71420  0.65445  1.0000
  H   H601      1.0  0.22661  0.66810  0.80908  1.0000
  H   H602      1.0  0.33205  0.61730  0.90214  1.0000
  H   H603      1.0  0.05837  0.64543  0.68462  1.0000
  H   H604      1.0  0.13443  0.54838  0.79419  1.0000
  H   H605      1.0  0.23867  0.69980  0.81125  1.0000
  H   H606      1.0  0.04578  0.63752  0.70783  1.0000
  C   C504      1.0  0.23042  0.49585  0.87917  1.0000
  H   H607      1.0  0.20847  0.65711  0.82615  1.0000
  Fe  Fe70      1.0  0.38175  0.73827  0.90935  1.0000
  H   H608      1.0  0.25553  0.64467  0.85120  1.0000
  C   C505      1.0  0.04590  0.64948  0.69559  1.0000
  N   N34       1.0  0.32154  0.58678  0.87667  1.0000
  C   C506      1.0  0.33126  0.56680  0.87259  1.0000
  C   C507      1.0  0.31293  0.58567  0.89764  1.0000
  C   C508      1.0  0.30463  0.59044  0.86306  1.0000
  C   C509      1.0  0.33619  0.60284  0.87303  1.0000
  C   C510      1.0  0.33992  0.61711  0.88762  1.0000
  C   C511      1.0  0.34670  0.60504  0.85408  1.0000
  C   C512      1.0  0.35359  0.63230  0.88350  1.0000
  C   C513      1.0  0.36024  0.62037  0.85010  1.0000
  C   C514      1.0  0.36370  0.63395  0.86480  1.0000
  H   H609      1.0  0.34464  0.56382  0.88190  1.0000
  H   H610      1.0  0.32066  0.55441  0.87596  1.0000
  H   H611      1.0  0.33620  0.56541  0.85655  1.0000
  H   H612      1.0  0.32489  0.58318  0.90875  1.0000
  H   H613      1.0  0.30253  0.57299  0.90007  1.0000
  H   H614      1.0  0.30387  0.59961  0.90128  1.0000
  H   H615      1.0  0.29714  0.60547  0.86542  1.0000
  H   H616      1.0  0.30957  0.58999  0.84693  1.0000
  H   H617      1.0  0.29305  0.57887  0.86565  1.0000
  C   C515      1.0  0.13881  0.66322  0.61476  1.0000
  C   C516      1.0  0.46789  0.73163  0.94049  1.0000
  C   C517      1.0  0.13301  0.69262  0.58290  1.0000
  H   H618      1.0  0.00786  0.64868  0.78119  1.0000
  H   H619      1.0  0.44030  0.73752  0.97274  1.0000
  C   C518      1.0  0.12386  0.62470  0.61373  1.0000
  H   H620      1.0  0.28756  0.50166  0.86896  1.0000
  C   C519      1.0  0.13320  0.63047  0.63077  1.0000
  H   H621      1.0  0.09520  0.67868  0.58986  1.0000
  C   C520      1.0  0.12900  0.65795  0.59725  1.0000
  C   C521      1.0  0.12190  0.63813  0.59712  1.0000
  C   C522      1.0  0.43857  0.71431  0.92858  1.0000
  H   H622      1.0  0.13411  0.62030  0.64390  1.0000
  C   C523      1.0  0.13663  0.66447  0.56166  1.0000
  H   H623      1.0  0.11446  0.63299  0.58430  1.0000
  H   H624      1.0  0.14344  0.52288  0.79927  1.0000
  C   C524      1.0  0.07333  0.49680  0.73363  1.0000
  C   C525      1.0  0.11202  0.49762  0.77399  1.0000
  Fe  Fe71      1.0  0.09843  0.73745  0.56518  1.0000
  H   H625      1.0  0.44203  0.71785  0.91232  1.0000
  C   C526      1.0  0.10844  0.71990  0.49473  1.0000
  H   H626      1.0  0.01642  0.55355  0.75650  1.0000
  H   H627      1.0  0.01541  0.57676  0.78355  1.0000
  Fe  Fe72      1.0  0.10377  0.73094  0.61071  1.0000
  H   H628      1.0  0.02331  0.70439  0.64684  1.0000
  H   H629      1.0  0.16803  0.61485  0.97094  1.0000
  C   C527      1.0  0.48082  0.72066  0.92693  1.0000
  C   C528      1.0  0.24376  0.61654  0.98464  1.0000
  C   C529      1.0  0.47399  0.73260  0.87475  1.0000
  H   H630      1.0  0.31948  0.71488  0.97718  1.0000
  C   C530      1.0  0.10957  0.49384  0.71120  1.0000
  C   C531      1.0  0.38274  0.73957  0.96577  1.0000
  H   H631      1.0  0.24882  0.51800  0.98648  1.0000
  C   C532      1.0  0.32407  0.72883  0.98305  1.0000
  H   H632      1.0  0.12358  0.49278  0.70238  1.0000
  S   S142      1.0  0.39423  0.73923  0.85132  1.0000
  S   S143      1.0  0.41605  0.76144  0.08007  1.0000
  H   H633      1.0  0.34187  0.94469  0.26453  1.0000
  H   H634      1.0  0.29621  0.76054  0.03366  1.0000
  C   C533      1.0  0.33401  0.77245  0.03975  1.0000
  Fe  Fe73      1.0  0.39125  0.76521  0.10401  1.0000
  S   S144      1.0  0.39603  0.79351  0.12203  1.0000
  Fe  Fe74      1.0  0.39378  0.91392  0.22413  1.0000
  S   S145      1.0  0.40753  0.90709  0.25408  1.0000
  S   S146      1.0  0.39520  0.94530  0.20887  1.0000
  Fe  Fe75      1.0  0.38587  0.86896  0.21755  1.0000
  S   S147      1.0  0.39907  0.86011  0.24736  1.0000
  S   S148      1.0  0.37265  0.84232  0.20193  1.0000
  Fe  Fe76      1.0  0.38121  0.88662  0.25999  1.0000
  S   S149      1.0  0.36478  0.88332  0.29131  1.0000
  Fe  Fe77      1.0  0.42383  0.88124  0.23865  1.0000
  S   S150      1.0  0.45661  0.86917  0.23706  1.0000
  S   S151      1.0  0.36676  0.89479  0.23061  1.0000
  S   S152      1.0  0.41134  0.88894  0.20832  1.0000
  Fe  Fe78      1.0  0.06634  0.76026  0.37624  1.0000
  S   S153      1.0  0.03647  0.77191  0.36356  1.0000
  Fe  Fe79      1.0  0.11217  0.76798  0.37854  1.0000
  S   S154      1.0  0.14225  0.78400  0.37228  1.0000
  S   S155      1.0  0.09348  0.75407  0.35541  1.0000
  S   S156      1.0  0.08466  0.77697  0.39730  1.0000
  Fe  Fe80      1.0  0.25129  0.88767  0.41028  1.0000
  S   S157      1.0  0.22164  0.90454  0.40786  1.0000
  S   S158      1.0  0.26531  0.88018  0.44057  1.0000
  Fe  Fe81      1.0  0.25843  0.88616  0.36387  1.0000
  S   S159      1.0  0.22831  0.90222  0.35922  1.0000
  S   S160      1.0  0.27583  0.88132  0.33343  1.0000
  Fe  Fe82      1.0  0.23691  0.92309  0.38291  1.0000
  S   S161      1.0  0.24320  0.95635  0.37617  1.0000
  Fe  Fe83      1.0  0.21562  0.88181  0.38442  1.0000
  S   S162      1.0  0.18415  0.86778  0.38681  1.0000
  S   S163      1.0  0.26713  0.90741  0.38693  1.0000
  S   S164      1.0  0.24515  0.86439  0.38766  1.0000
  H   H635      1.0  0.10644  0.78988  0.43560  1.0000
  C   C534      1.0  0.25583  0.88854  0.46428  1.0000
  H   H636      1.0  0.23072  0.95333  0.44972  1.0000
  H   H637      1.0  0.27212  0.97631  0.31583  1.0000
  C   C535      1.0  0.13512  0.80972  0.46954  1.0000
  H   H638      1.0  0.07377  0.76732  0.48664  1.0000
  C   C536      1.0  0.23267  0.98035  0.38256  1.0000
  H   H639      1.0  0.32457  0.83299  0.32733  1.0000
  H   H640      1.0  0.20587  0.96979  0.39811  1.0000
  C   C537      1.0  0.21487  0.85714  0.47394  1.0000
  C   C538      1.0  0.15342  0.80757  0.37634  1.0000
  C   C539      1.0  0.14244  0.82421  0.38393  1.0000
  C   C540      1.0  0.15212  0.84232  0.38705  1.0000
  C   C541      1.0  0.17293  0.84424  0.38271  1.0000
  C   C542      1.0  0.18392  0.82754  0.37530  1.0000
  C   C543      1.0  0.17423  0.80944  0.37212  1.0000
  H   H641      1.0  0.12643  0.82330  0.38707  1.0000
  H   H642      1.0  0.14335  0.85510  0.39265  1.0000
  H   H643      1.0  0.19988  0.82863  0.37185  1.0000
  H   H644      1.0  0.18301  0.79678  0.36631  1.0000
  C   C544      1.0  0.37749  0.97042  0.23761  1.0000
  C   C545      1.0  0.01269  0.76566  0.37482  1.0000
  H   H645      1.0  0.32339  0.92740  0.32455  1.0000
  C   C546      1.0  0.43202  0.98236  0.24813  1.0000
  Fe  Fe84      1.0  0.08873  0.74697  0.41397  1.0000
  C   C547      1.0  0.48416  0.77828  0.18564  1.0000
  H   H646      1.0  0.28478  0.94708  0.46194  1.0000
  C   C548      1.0  0.33979  0.88412  0.30271  1.0000
  C   C549      1.0  0.33737  0.88161  0.32382  1.0000
  C   C550      1.0  0.31803  0.88151  0.33358  1.0000
  C   C551      1.0  0.30072  0.88361  0.32234  1.0000
  C   C552      1.0  0.30313  0.88653  0.30128  1.0000
  C   C553      1.0  0.32245  0.88703  0.29157  1.0000
  H   H647      1.0  0.35058  0.87948  0.33270  1.0000
  H   H648      1.0  0.31656  0.87913  0.34975  1.0000
  H   H649      1.0  0.28992  0.88826  0.29236  1.0000
  H   H650      1.0  0.32381  0.88969  0.27547  1.0000
  N   N35       1.0  0.13836  0.78777  0.43962  1.0000
  C   C554      1.0  0.38769  0.96890  0.21889  1.0000
  C   C555      1.0  0.45452  0.74440  0.14358  1.0000
  C   C556      1.0  0.47381  0.74513  0.09182  1.0000
  C   C557      1.0  0.26600  0.88252  0.48177  1.0000
  C   C558      1.0  0.47907  0.89611  0.25686  1.0000
  C   C559      1.0  0.47911  0.88008  0.24392  1.0000
  C   C560      1.0  0.12053  0.79690  0.42960  1.0000
  H   H651      1.0  0.46489  0.90251  0.26265  1.0000
  H   H652      1.0  0.43753  0.79158  0.13015  1.0000
  C   C561      1.0  0.38922  0.80672  0.14443  1.0000
  C   C562      1.0  0.37434  0.80027  0.15847  1.0000
  C   C563      1.0  0.36961  0.81128  0.17591  1.0000
  C   C564      1.0  0.37982  0.82877  0.17982  1.0000
  C   C565      1.0  0.39499  0.83498  0.16598  1.0000
  C   C566      1.0  0.39954  0.82411  0.14841  1.0000
  H   H653      1.0  0.36624  0.78696  0.15576  1.0000
  H   H654      1.0  0.35783  0.80626  0.18640  1.0000
  H   H655      1.0  0.40294  0.84841  0.16860  1.0000
  H   H656      1.0  0.41105  0.82936  0.13772  1.0000
  C   C567      1.0  0.47440  0.76759  0.17150  1.0000
  H   H657      1.0  0.34588  0.85565  0.23316  1.0000
  H   H658      1.0  0.29415  0.92060  0.34265  1.0000
  C   C568      1.0  0.33424  0.93540  0.29515  1.0000
  H   H659      1.0  0.34743  0.83209  0.29810  1.0000
  H   H660      1.0  0.32125  0.86050  0.24406  1.0000
  C   C569      1.0  0.44941  0.79495  0.16857  1.0000
  H   H661      1.0  0.17005  0.79302  0.44014  1.0000
  H   H662      1.0  0.15356  0.75852  0.44111  1.0000
  C   C570      1.0  0.38936  0.75564  0.00365  1.0000
  H   H663      1.0  0.37388  0.95689  0.24635  1.0000
  H   H664      1.0  0.19424  0.86131  0.45000  1.0000
  C   C571      1.0  0.29782  0.83585  0.31044  1.0000
  C   C572      1.0  0.15662  0.79800  0.43157  1.0000
  S   S165      1.0  0.36766  0.75927  0.08191  1.0000
  C   C573      1.0  0.14052  0.76643  0.43392  1.0000
  H   H665      1.0  0.15495  0.81466  0.43194  1.0000
  C   C574      1.0  0.46123  0.98914  0.26682  1.0000
  H   H666      1.0  0.34262  0.77852  0.00250  1.0000
  H   H667      1.0  0.29609  0.83947  0.25978  1.0000
  H   H668      1.0  0.12664  0.75813  0.43807  1.0000
  C   C575      1.0  0.45811  0.95644  0.25275  1.0000
  H   H669      1.0  0.14299  0.76518  0.41734  1.0000
  H   H670      1.0  0.23034  0.90558  0.45285  1.0000
  H   H671      1.0  0.27934  0.87272  0.48057  1.0000
  C   C576      1.0  0.13355  0.77370  0.47567  1.0000
  H   H672      1.0  0.16008  0.79475  0.41549  1.0000
  C   C577      1.0  0.24155  0.95116  0.43671  1.0000
  H   H673      1.0  0.12787  0.75932  0.32529  1.0000
  C   C578      1.0  0.43977  0.96288  0.24495  1.0000
  C   C579      1.0  0.26941  0.94341  0.45771  1.0000
  N   N36       1.0  0.32782  0.75241  0.03383  1.0000
  N   N37       1.0  0.28477  0.94690  0.32482  1.0000
  C   C580      1.0  0.26672  0.93676  0.31867  1.0000
  C   C581      1.0  0.29106  0.93704  0.34411  1.0000
  C   C582      1.0  0.27906  0.96819  0.32886  1.0000
  C   C583      1.0  0.30061  0.94600  0.30850  1.0000
  C   C584      1.0  0.29724  0.95559  0.28940  1.0000
  H   H674      1.0  0.12162  0.79486  0.41306  1.0000
  C   C585      1.0  0.45922  0.80544  0.18276  1.0000
  H   H675      1.0  0.46058  0.75471  0.08935  1.0000
  H   H676      1.0  0.46388  0.94118  0.25048  1.0000
  C   C586      1.0  0.14452  0.75763  0.32309  1.0000
  H   H677      1.0  0.27722  0.93819  0.41958  1.0000
  H   H678      1.0  0.27901  0.93849  0.35614  1.0000
  C   C587      1.0  0.19580  0.85957  0.46616  1.0000
  C   C588      1.0  0.31202  0.95519  0.27381  1.0000
  H   H679      1.0  0.26769  0.96937  0.34159  1.0000
  H   H680      1.0  0.30918  0.96271  0.25937  1.0000
  C   C589      1.0  0.31957  0.93567  0.31085  1.0000
  H   H681      1.0  0.43591  0.80203  0.16250  1.0000
  H   H682      1.0  0.35014  0.77489  0.03550  1.0000
  C   C590      1.0  0.13581  0.79022  0.46161  1.0000
  N   N38       1.0  0.33738  0.83467  0.25723  1.0000
  C   C591      1.0  0.35873  0.82909  0.26122  1.0000
  C   C592      1.0  0.33058  0.82028  0.24272  1.0000
  C   C593      1.0  0.33677  0.85510  0.24757  1.0000
  C   C594      1.0  0.32405  0.83460  0.27565  1.0000
  C   C595      1.0  0.33155  0.83306  0.29538  1.0000
  C   C596      1.0  0.30286  0.83723  0.27419  1.0000
  C   C597      1.0  0.31853  0.83358  0.31243  1.0000
  C   C598      1.0  0.29000  0.83776  0.29136  1.0000
  H   H683      1.0  0.43655  0.76890  0.11727  1.0000
  H   H684      1.0  0.36021  0.81404  0.26904  1.0000
  H   H685      1.0  0.36821  0.82851  0.24700  1.0000
  H   H686      1.0  0.36558  0.84039  0.27045  1.0000
  H   H687      1.0  0.32937  0.80495  0.24988  1.0000
  H   H688      1.0  0.34124  0.81916  0.22934  1.0000
  H   H689      1.0  0.31583  0.82493  0.23648  1.0000
  H   H690      1.0  0.34297  0.86612  0.25752  1.0000
  H   H691      1.0  0.16404  0.86203  0.47304  1.0000
  H   H692      1.0  0.21871  0.91805  0.48615  1.0000
  H   H693      1.0  0.12481  0.74371  0.29537  1.0000
  N   N39       1.0  0.44554  0.76465  0.14793  1.0000
  C   C599      1.0  0.33049  0.94511  0.27668  1.0000
  H   H694      1.0  0.43128  0.95267  0.23655  1.0000
  H   H695      1.0  0.24164  0.93505  0.43287  1.0000
  H   H696      1.0  0.27392  0.84030  0.28997  1.0000
  S   S166      1.0  0.39217  0.76693  0.02705  1.0000
  C   C600      1.0  0.17884  0.85997  0.47918  1.0000
  C   C601      1.0  0.01113  0.75320  0.39221  1.0000
  H   H697      1.0  0.27046  0.92749  0.45305  1.0000
  C   C602      1.0  0.42457  0.76183  0.15571  1.0000
  H   H698      1.0  0.25977  0.94444  0.30541  1.0000
  H   H699      1.0  0.40011  0.98567  0.19320  1.0000
  H   H700      1.0  0.27057  0.92093  0.31473  1.0000
  C   C603      1.0  0.26112  0.97877  0.44652  1.0000
  H   H701      1.0  0.34853  0.92725  0.29719  1.0000
  H   H702      1.0  0.23547  0.95981  0.42352  1.0000
  H   H703      1.0  0.15083  0.76794  0.33375  1.0000
  H   H704      1.0  0.28786  0.83701  0.32372  1.0000
  H   H705      1.0  0.25481  0.93627  0.33100  1.0000
  H   H706      1.0  0.18039  0.74706  0.33498  1.0000
  N   N40       1.0  0.26195  0.95730  0.44135  1.0000
  H   H707      1.0  0.26979  0.96234  0.40962  1.0000
  C   C604      1.0  0.44510  0.77651  0.12858  1.0000
  H   H708      1.0  0.41576  0.75366  0.14505  1.0000
  C   C605      1.0  0.32918  0.74976  0.01182  1.0000
  C   C606      1.0  0.99490  0.77329  0.36607  1.0000
  C   C607      1.0  0.08347  0.75404  0.48882  1.0000
  C   C608      1.0  0.45657  0.77560  0.16262  1.0000
  H   H709      1.0  0.48392  0.80521  0.20254  1.0000
  Fe  Fe85      1.0  0.39267  0.75272  0.05899  1.0000
  H   H710      1.0  0.11868  0.81334  0.43172  1.0000
  H   H711      1.0  0.33256  0.77406  0.05635  1.0000
  C   C609      1.0  0.46884  0.96954  0.26363  1.0000
  H   H712      1.0  0.28310  0.96344  0.28637  1.0000
  H   H713      1.0  0.41605  0.77631  0.15793  1.0000
  C   C610      1.0  0.23859  0.90118  0.46605  1.0000
  C   C611      1.0  0.33679  0.76463  0.99785  1.0000
  H   H714      1.0  0.30458  0.94392  0.34971  1.0000
  C   C612      1.0  0.27554  0.95434  0.42334  1.0000
  C   C613      1.0  0.21445  0.98280  0.39364  1.0000
  S   S167      1.0  0.08409  0.75285  0.44762  1.0000
  H   H715      1.0  0.29239  0.97657  0.33278  1.0000
  H   H716      1.0  0.27012  0.97498  0.47789  1.0000
  C   C614      1.0  0.23196  0.90812  0.48500  1.0000
  H   H717      1.0  0.25910  0.94358  0.47136  1.0000
  H   H718      1.0  0.22806  0.85698  0.46373  1.0000
  H   H719      1.0  0.13326  0.75835  0.47112  1.0000
  H   H720      1.0  0.14902  0.76338  0.30769  1.0000
  H   H721      1.0  0.32463  0.78485  0.03277  1.0000
  H   H722      1.0  0.29079  0.95981  0.42574  1.0000
  C   C615      1.0  0.39232  0.98669  0.20775  1.0000
  H   H723      1.0  0.48304  0.96437  0.26982  1.0000
  H   H724      1.0  0.41759  0.98649  0.24205  1.0000
  C   C616      1.0  0.09086  0.74353  0.47196  1.0000
  C   C617      1.0  0.30681  0.74992  0.04165  1.0000
  H   H725      1.0  0.99594  0.78310  0.35273  1.0000
  H   H726      1.0  0.02463  0.74729  0.39919  1.0000
  H   H727      1.0  0.13625  0.82299  0.45969  1.0000
  H   H728      1.0  0.46054  0.77874  0.12203  1.0000
  H   H729      1.0  0.45313  0.82001  0.18738  1.0000
  H   H730      1.0  0.42420  0.75323  0.17041  1.0000
  C   C618      1.0  0.99208  0.74846  0.40074  1.0000
  C   C619      1.0  0.26595  0.98535  0.46574  1.0000
  C   C620      1.0  0.47653  0.79711  0.19133  1.0000
  H   H731      1.0  0.30516  0.75275  0.05806  1.0000
  H   H732      1.0  0.48096  0.75300  0.16794  1.0000
  H   H733      1.0  0.47001  0.74525  0.13667  1.0000
  C   C621      1.0  0.37182  0.98949  0.24496  1.0000
  H   H734      1.0  0.15001  0.74135  0.35878  1.0000
  H   H735      1.0  0.25107  0.99008  0.41728  1.0000
  H   H736      1.0  0.17601  0.87349  0.53773  1.0000
  C   C622      1.0  0.13066  0.79593  0.50362  1.0000
  Fe  Fe86      1.0  0.37916  0.76408  0.86884  1.0000
  S   S168      1.0  0.37373  0.79647  0.85560  1.0000
  C   C623      1.0  0.99421  0.80656  0.60410  1.0000
  S   S169      1.0  0.40125  0.76115  0.89366  1.0000
  H   H737      1.0  0.31819  0.95559  0.62047  1.0000
  H   H738      1.0  0.34264  0.93500  0.72237  1.0000
  Fe  Fe87      1.0  0.10497  0.77403  0.59024  1.0000
  S   S170      1.0  0.11568  0.80681  0.58782  1.0000
  S   S171      1.0  0.08095  0.76682  0.56869  1.0000
  H   H739      1.0  0.33414  0.94864  0.76288  1.0000
  Fe  Fe88      1.0  0.25954  0.89666  0.59966  1.0000
  S   S172      1.0  0.23015  0.89777  0.61759  1.0000
  S   S173      1.0  0.29107  0.89269  0.61330  1.0000
  Fe  Fe89      1.0  0.23771  0.90496  0.55917  1.0000
  S   S174      1.0  0.20740  0.90751  0.57549  1.0000
  S   S175      1.0  0.23343  0.91231  0.52566  1.0000
  Fe  Fe90      1.0  0.22304  0.92539  0.59770  1.0000
  S   S176      1.0  0.21202  0.95506  0.61113  1.0000
  Fe  Fe91      1.0  0.21722  0.87961  0.59326  1.0000
  S   S177      1.0  0.20030  0.84966  0.59620  1.0000
  S   S178      1.0  0.25256  0.92468  0.58042  1.0000
  S   S179      1.0  0.24743  0.87667  0.57642  1.0000
  Fe  Fe92      1.0  0.40842  0.89657  0.72167  1.0000
  S   S180      1.0  0.40474  0.89745  0.75523  1.0000
  S   S181      1.0  0.43966  0.89204  0.70642  1.0000
  Fe  Fe93      1.0  0.36215  0.89883  0.71547  1.0000
  S   S182      1.0  0.35630  0.89882  0.74931  1.0000
  S   S183      1.0  0.33262  0.90408  0.69802  1.0000
  Fe  Fe94      1.0  0.38068  0.92147  0.74888  1.0000
  S   S184      1.0  0.37703  0.94889  0.76839  1.0000
  Fe  Fe95      1.0  0.38095  0.87464  0.75271  1.0000
  S   S185      1.0  0.38340  0.84304  0.76886  1.0000
  S   S186      1.0  0.38595  0.92226  0.71536  1.0000
  S   S187      1.0  0.38522  0.87311  0.71883  1.0000
  C   C624      1.0  0.37493  0.97566  0.76689  1.0000
  C   C625      1.0  0.48308  0.90337  0.74565  1.0000
  C   C626      1.0  0.48457  0.95721  0.72281  1.0000
  H   H740      1.0  0.16734  0.85841  0.50952  1.0000
  H   H741      1.0  0.42335  0.81754  0.76337  1.0000
  C   C627      1.0  0.46312  0.89515  0.71754  1.0000
  C   C628      1.0  0.46423  0.90184  0.73709  1.0000
  C   C629      1.0  0.38812  0.75956  0.96687  1.0000
  H   H742      1.0  0.45056  0.90576  0.74566  1.0000
  H   H743      1.0  0.48725  0.76076  0.88017  1.0000
  C   C630      1.0  0.30199  0.89514  0.63735  1.0000
  C   C631      1.0  0.32275  0.89065  0.63925  1.0000
  C   C632      1.0  0.33233  0.89304  0.65758  1.0000
  C   C633      1.0  0.32134  0.90018  0.67442  1.0000
  C   C634      1.0  0.30061  0.90487  0.67248  1.0000
  C   C635      1.0  0.29099  0.90229  0.65420  1.0000
  H   H744      1.0  0.33154  0.88518  0.62641  1.0000
  H   H745      1.0  0.34824  0.88937  0.65863  1.0000
  H   H746      1.0  0.29181  0.91030  0.68531  1.0000
  H   H747      1.0  0.27504  0.90575  0.65320  1.0000
  C   C636      1.0  0.21818  0.97910  0.60052  1.0000
  C   C637      1.0  0.29855  0.98739  0.64064  1.0000
  H   H748      1.0  0.26740  0.94723  0.64457  1.0000
  H   H749      1.0  0.23272  0.96813  0.57342  1.0000
  H   H750      1.0  0.43153  0.77371  0.81800  1.0000
  C   C638      1.0  0.24219  0.90223  0.50247  1.0000
  H   H751      1.0  0.43808  0.81068  0.80997  1.0000
  C   C639      1.0  0.47528  0.80747  0.83876  1.0000
  H   H752      1.0  0.44170  0.81350  0.86509  1.0000
  H   H753      1.0  0.26728  0.88468  0.51410  1.0000
  C   C640      1.0  0.13949  0.81833  0.58998  1.0000
  C   C641      1.0  0.14076  0.83929  0.58630  1.0000
  C   C642      1.0  0.15905  0.84915  0.58810  1.0000
  C   C643      1.0  0.17650  0.83822  0.59378  1.0000
  C   C644      1.0  0.17528  0.81724  0.59722  1.0000
  C   C645      1.0  0.15702  0.80737  0.59533  1.0000
  H   H754      1.0  0.12742  0.84805  0.58218  1.0000
  H   H755      1.0  0.15958  0.86525  0.58538  1.0000
  H   H756      1.0  0.18858  0.80851  0.60157  1.0000
  H   H757      1.0  0.15649  0.79130  0.59827  1.0000
  C   C646      1.0  0.48113  0.89022  0.70665  1.0000
  C   C647      1.0  0.00584  0.76473  0.57831  1.0000
  C   C648      1.0  0.47088  0.77220  0.83342  1.0000
  C   C649      1.0  0.00830  0.75504  0.59716  1.0000
  H   H758      1.0  0.30544  0.93278  0.61904  1.0000
  H   H759      1.0  0.01893  0.76932  0.56935  1.0000
  C   C650      1.0  0.37571  0.80898  0.83117  1.0000
  C   C651      1.0  0.37356  0.83015  0.82961  1.0000
  C   C652      1.0  0.37569  0.84083  0.81082  1.0000
  C   C653      1.0  0.38005  0.83051  0.79315  1.0000
  C   C654      1.0  0.38229  0.80935  0.79470  1.0000
  C   C655      1.0  0.38003  0.79866  0.81347  1.0000
  H   H760      1.0  0.37017  0.83840  0.84308  1.0000
  H   H761      1.0  0.37388  0.85706  0.81002  1.0000
  H   H762      1.0  0.38545  0.80109  0.78120  1.0000
  H   H763      1.0  0.38144  0.78241  0.81418  1.0000
  H   H764      1.0  0.27113  0.96618  0.59190  1.0000
  H   H765      1.0  0.48553  0.80030  0.78938  1.0000
  H   H766      1.0  0.45677  0.85073  0.71765  1.0000
  H   H767      1.0  0.23241  0.85411  0.49965  1.0000
  H   H768      1.0  0.48047  0.88506  0.69150  1.0000
  H   H769      1.0  0.46850  0.97695  0.70217  1.0000
  H   H770      1.0  0.47508  0.94459  0.72088  1.0000
  H   H771      1.0  0.23150  0.86543  0.53237  1.0000
  C   C656      1.0  0.19237  0.87171  0.54017  1.0000
  C   C657      1.0  0.30579  0.95361  0.72176  1.0000
  H   H772      1.0  0.12923  0.76378  0.50676  1.0000
  N   N41       1.0  0.32291  0.95855  0.73399  1.0000
  H   H773      1.0  0.43920  0.82730  0.83052  1.0000
  C   C658      1.0  0.25917  0.88923  0.50081  1.0000
  H   H774      1.0  0.99271  0.74210  0.62334  1.0000
  H   H775      1.0  0.36794  0.97624  0.79871  1.0000
  H   H776      1.0  0.25377  0.95484  0.62271  1.0000
  C   C659      1.0  0.01624  0.83381  0.58002  1.0000
  H   H777      1.0  0.46968  0.82247  0.84208  1.0000
  H   H778      1.0  0.43940  0.76189  0.94465  1.0000
  H   H779      1.0  0.41666  0.81530  0.82665  1.0000
  C   C660      1.0  0.48311  0.81318  0.77911  1.0000
  C   C661      1.0  0.21714  0.85542  0.49475  1.0000
  C   C662      1.0  0.33766  0.76164  0.97716  1.0000
  S   S188      1.0  0.08746  0.76044  0.61701  1.0000
  C   C663      1.0  0.46189  0.83214  0.75496  1.0000
  H   H780      1.0  0.34358  0.95800  0.70792  1.0000
  H   H781      1.0  0.22364  0.85012  0.55375  1.0000
  H   H782      1.0  0.32257  0.98056  0.76945  1.0000
  H   H783      1.0  0.08253  0.75577  0.52124  1.0000
  H   H784      1.0  0.19388  0.87082  0.55680  1.0000
  H   H785      1.0  0.25662  0.98878  0.61270  1.0000
  C   C664      1.0  0.22299  0.85181  0.53704  1.0000
  C   C665      1.0  0.37773  0.98762  0.74909  1.0000
  H   H786      1.0  0.39484  0.78320  0.98650  1.0000
  H   H787      1.0  0.29766  0.97043  0.59117  1.0000
  N   N42       1.0  0.20187  0.85376  0.53060  1.0000
  H   H788      1.0  0.45449  0.80390  0.77138  1.0000
  H   H789      1.0  0.43545  0.80426  0.74246  1.0000
  H   H790      1.0  0.32054  0.93030  0.75104  1.0000
  H   H791      1.0  0.43397  0.83935  0.71315  1.0000
  C   C666      1.0  0.34187  0.95160  0.72354  1.0000
  H   H792      1.0  0.41484  0.82197  0.73870  1.0000
  C   C667      1.0  0.44787  0.83731  0.72190  1.0000
  H   H793      1.0  0.23104  0.83827  0.53094  1.0000
  C   C668      1.0  0.30438  0.94781  0.62582  1.0000
  H   H794      1.0  0.41788  0.80238  0.86282  1.0000
  C   C669      1.0  0.32293  0.98939  0.75547  1.0000
  C   C670      1.0  0.42875  0.81893  0.74731  1.0000
  C   C671      1.0  0.43261  0.85417  0.75035  1.0000
  C   C672      1.0  0.20015  0.85578  0.50848  1.0000
  H   H795      1.0  0.30502  0.93703  0.72014  1.0000
  N   N43       1.0  0.44312  0.83536  0.74389  1.0000
  H   H796      1.0  0.44165  0.86760  0.74687  1.0000
  H   H797      1.0  0.19354  0.83295  0.55501  1.0000
  H   H798      1.0  0.02411  0.84459  0.57035  1.0000
  C   C673      1.0  0.43448  0.79985  0.86030  1.0000
  H   H799      1.0  0.42877  0.85355  0.76681  1.0000
  C   C674      1.0  0.42809  0.77808  0.83375  1.0000
  N   N44       1.0  0.43987  0.79542  0.83906  1.0000
  H   H800      1.0  0.17492  0.83698  0.53678  1.0000
  C   C675      1.0  0.39123  0.76756  0.98574  1.0000
  C   C676      1.0  0.32100  0.94675  0.75340  1.0000
  S   S189      1.0  0.35765  0.74345  0.88648  1.0000
  H   H801      1.0  0.45656  0.82384  0.71647  1.0000
  H   H802      1.0  0.38923  0.76904  0.95330  1.0000
  H   H803      1.0  0.41829  0.85695  0.74252  1.0000
  H   H804      1.0  0.19735  0.82194  0.53093  1.0000
  C   C677      1.0  0.46193  0.79163  0.83674  1.0000
  N   N45       1.0  0.04915  0.81974  0.59289  1.0000
  C   C678      1.0  0.05761  0.81592  0.57234  1.0000
  C   C679      1.0  0.05594  0.83943  0.59903  1.0000
  C   C680      1.0  0.05793  0.80401  0.60676  1.0000
  C   C681      1.0  0.02688  0.81998  0.59291  1.0000
  C   C682      1.0  0.01516  0.80642  0.60513  1.0000
  H   H805      1.0  0.38146  0.98051  0.73504  1.0000
  H   H806      1.0  0.44154  0.75394  0.91915  1.0000
  S   S190      1.0  0.03229  0.75103  0.60788  1.0000
  C   C683      1.0  0.18091  0.85799  0.50001  1.0000
  H   H807      1.0  0.05175  0.80188  0.56668  1.0000
  H   H808      1.0  0.05389  0.82834  0.56130  1.0000
  H   H809      1.0  0.07437  0.81424  0.57199  1.0000
  H   H810      1.0  0.04952  0.84305  0.61423  1.0000
  H   H811      1.0  0.05149  0.85197  0.58840  1.0000
  H   H812      1.0  0.07269  0.83945  0.59961  1.0000
  H   H813      1.0  0.05394  0.78871  0.60259  1.0000
  H   H814      1.0  0.07469  0.80414  0.60635  1.0000
  H   H815      1.0  0.05281  0.80623  0.62267  1.0000
  H   H816      1.0  0.02177  0.79514  0.61525  1.0000
  H   H817      1.0  0.43079  0.76480  0.84408  1.0000
  H   H818      1.0  0.43924  0.78708  0.87062  1.0000
  H   H819      1.0  0.29121  0.95915  0.72874  1.0000
  H   H820      1.0  0.41161  0.78148  0.83532  1.0000
  N   N46       1.0  0.28583  0.95942  0.61999  1.0000
  H   H821      1.0  0.30466  0.94479  0.64239  1.0000
  C   C684      1.0  0.26830  0.94800  0.62783  1.0000
  C   C685      1.0  0.28583  0.96046  0.59765  1.0000
  C   C686      1.0  0.47718  0.74481  0.95317  1.0000
  C   C687      1.0  0.19144  0.83564  0.53857  1.0000
  Fe  Fe96      1.0  0.06488  0.75118  0.59516  1.0000
  H   H822      1.0  0.19952  0.88574  0.53424  1.0000
  C   C688      1.0  0.43333  0.81290  0.82596  1.0000
  C   C689      1.0  0.46531  0.81544  0.76861  1.0000
  C   C690      1.0  0.22862  0.98129  0.58191  1.0000
  H   H823      1.0  0.13201  0.82750  0.49593  1.0000
  H   H824      1.0  0.30704  0.96016  0.70616  1.0000
  H   H825      1.0  0.31116  0.97823  0.64590  1.0000
  H   H826      1.0  0.26913  0.93225  0.62271  1.0000
  H   H827      1.0  0.12854  0.79804  0.51966  1.0000
  H   H828      1.0  0.48370  0.90846  0.76082  1.0000
  H   H829      1.0  0.28865  0.94534  0.59128  1.0000
  H   H830      1.0  0.46210  0.75900  0.83257  1.0000
  C   C691      1.0  0.28432  0.98001  0.62768  1.0000
  H   H831      1.0  0.30695  0.95109  0.76207  1.0000
  C   C692      1.0  0.08842  0.74753  0.50849  1.0000
  H   H832      1.0  0.35517  0.95568  0.73182  1.0000
  S   S191      1.0  0.44920  0.74357  0.87602  1.0000
  C   C693      1.0  0.99528  0.83372  0.57904  1.0000
  S   S192      1.0  0.12307  0.74519  0.58549  1.0000
  C   C694      1.0  0.13111  0.77662  0.49634  1.0000
  C   C695      1.0  0.32322  0.98056  0.73635  1.0000
  H   H833      1.0  0.41945  0.74872  0.93472  1.0000
  C   C696      1.0  0.37015  0.98519  0.78489  1.0000
  H   H834      1.0  0.46831  0.75394  0.96357  1.0000
  H   H835      1.0  0.47573  0.85942  0.74262  1.0000
  C   C697      1.0  0.47729  0.84629  0.75261  1.0000
  C   C698      1.0  0.33138  0.74379  0.96978  1.0000
  H   H836      1.0  0.34389  0.77297  0.96677  1.0000
  C   C699      1.0  0.48090  0.97538  0.71223  1.0000
  C   C700      1.0  0.43615  0.74951  0.93474  1.0000
  C   C701      1.0  0.13264  0.81247  0.49024  1.0000
  C   C702      1.0  0.99102  0.74947  0.60869  1.0000
  C   C703      1.0  0.49018  0.74501  0.87735  1.0000
  H   H837      1.0  0.32521  0.98824  0.70413  1.0000
  H   H838      1.0  0.33273  0.74136  0.95374  1.0000
  Fe  Fe97      1.0  0.61413  0.09353  0.25888  1.0000
  S   S193      1.0  0.62061  0.09078  0.22528  1.0000
  S   S194      1.0  0.63735  0.08712  0.28370  1.0000
  Fe  Fe98      1.0  0.56818  0.09706  0.25330  1.0000
  S   S195      1.0  0.57176  0.09414  0.22009  1.0000
  S   S196      1.0  0.53803  0.10403  0.26986  1.0000
  Fe  Fe99      1.0  0.59499  0.06945  0.22671  1.0000
  S   S197      1.0  0.59456  0.04295  0.20598  1.0000
  Fe  Fe100     1.0  0.59685  0.11576  0.22056  1.0000
  S   S198      1.0  0.59240  0.14209  0.19703  1.0000
  S   S199      1.0  0.58957  0.07078  0.26013  1.0000
  S   S200      1.0  0.59214  0.11998  0.25407  1.0000
  H   H839      1.0  0.57460  0.12558  0.14888  1.0000
  H   H840      1.0  0.61228  0.15284  0.10324  1.0000
  Fe  Fe101     1.0  0.60689  0.22318  0.10249  1.0000
  S   S201      1.0  0.62262  0.19675  0.12005  1.0000
  S   S202      1.0  0.57928  0.22188  0.08401  1.0000
  H   H841      1.0  0.63236  0.09713  0.13121  1.0000
  H   H842      1.0  0.76760  0.99933  0.41159  1.0000
  S   S203      1.0  0.89345  0.21712  0.39777  1.0000
  C   C704      1.0  0.90940  0.19083  0.34461  1.0000
  S   S204      1.0  0.94622  0.22463  0.36947  1.0000
  Fe  Fe102     1.0  0.86905  0.22790  0.37722  1.0000
  S   S205      1.0  0.84712  0.20675  0.36339  1.0000
  Fe  Fe103     1.0  0.72101  0.10499  0.37048  1.0000
  S   S206      1.0  0.75422  0.09636  0.36520  1.0000
  S   S207      1.0  0.70035  0.11836  0.34562  1.0000
  Fe  Fe104     1.0  0.72468  0.10085  0.41696  1.0000
  S   S208      1.0  0.75741  0.09252  0.41393  1.0000
  S   S209      1.0  0.70784  0.10008  0.44761  1.0000
  Fe  Fe105     1.0  0.75995  0.11739  0.39010  1.0000
  S   S210      1.0  0.78389  0.14075  0.39528  1.0000
  Fe  Fe106     1.0  0.74863  0.07222  0.38977  1.0000
  S   S211      1.0  0.76026  0.04005  0.39731  1.0000
  S   S212      1.0  0.72717  0.12687  0.39449  1.0000
  S   S213      1.0  0.71548  0.07982  0.39364  1.0000
  C   C705      1.0  0.75577  0.01677  0.38640  1.0000
  C   C706      1.0  0.74779  0.01572  0.36739  1.0000
  H   H843      1.0  0.90119  0.20329  0.31566  1.0000
  H   H844      1.0  0.74383  0.02943  0.35893  1.0000
  H   H845      1.0  0.77531  0.04196  0.47789  1.0000
  C   C707      1.0  0.93941  0.21782  0.46547  1.0000
  C   C708      1.0  0.71956  0.10183  0.47093  1.0000
  C   C709      1.0  0.74011  0.10515  0.47179  1.0000
  H   H846      1.0  0.94581  0.20223  0.46785  1.0000
  H   H847      1.0  0.74914  0.10714  0.45800  1.0000
  C   C710      1.0  0.82931  0.18878  0.37266  1.0000
  C   C711      1.0  0.82487  0.18518  0.39322  1.0000
  C   C712      1.0  0.81115  0.17035  0.39976  1.0000
  C   C713      1.0  0.80153  0.15889  0.38594  1.0000
  C   C714      1.0  0.80603  0.16243  0.36537  1.0000
  C   C715      1.0  0.81972  0.17731  0.35881  1.0000
  H   H848      1.0  0.83193  0.19388  0.40411  1.0000
  H   H849      1.0  0.80779  0.16787  0.41570  1.0000
  H   H850      1.0  0.79883  0.15385  0.35448  1.0000
  H   H851      1.0  0.82292  0.17994  0.34287  1.0000
  H   H852      1.0  0.59892  0.05876  0.15840  1.0000
  N   N47       1.0  0.57790  0.11244  0.31853  1.0000
  C   C716      1.0  0.73336  0.00693  0.47380  1.0000
  H   H853      1.0  0.50302  0.17504  0.18472  1.0000
  H   H854      1.0  0.85966  0.13101  0.38909  1.0000
  C   C717      1.0  0.61045  0.22464  0.00152  1.0000
  H   H855      1.0  0.59129  0.07087  0.13506  1.0000
  H   H856      1.0  0.61806  0.21806  0.01440  1.0000
  C   C718      1.0  0.60147  0.15742  0.17595  1.0000
  C   C719      1.0  0.58865  0.17278  0.16780  1.0000
  C   C720      1.0  0.59488  0.18506  0.15096  1.0000
  C   C721      1.0  0.61412  0.18219  0.14190  1.0000
  C   C722      1.0  0.62702  0.16694  0.15016  1.0000
  C   C723      1.0  0.62077  0.15463  0.16698  1.0000
  H   H857      1.0  0.57371  0.17518  0.17452  1.0000
  H   H858      1.0  0.58470  0.19664  0.14491  1.0000
  H   H859      1.0  0.64190  0.16444  0.14334  1.0000
  H   H860      1.0  0.63089  0.14296  0.17294  1.0000
  C   C724      1.0  0.65499  0.09622  0.30060  1.0000
  C   C725      1.0  0.66563  0.08233  0.31320  1.0000
  C   C726      1.0  0.67948  0.08870  0.32700  1.0000
  C   C727      1.0  0.68296  0.10918  0.32851  1.0000
  C   C728      1.0  0.67223  0.12309  0.31599  1.0000
  C   C729      1.0  0.65838  0.11672  0.30220  1.0000
  H   H861      1.0  0.66321  0.06644  0.31221  1.0000
  H   H862      1.0  0.68751  0.07772  0.33639  1.0000
  H   H863      1.0  0.67464  0.13897  0.31695  1.0000
  H   H864      1.0  0.65036  0.12768  0.29279  1.0000
  C   C730      1.0  0.51430  0.09679  0.26180  1.0000
  H   H865      1.0  0.86156  0.16010  0.34193  1.0000
  C   C731      1.0  0.51281  0.08228  0.24740  1.0000
  H   H866      1.0  0.51598  0.21095  0.04087  1.0000
  H   H867      1.0  0.52635  0.07546  0.24062  1.0000
  H   H868      1.0  0.92250  0.19992  0.34520  1.0000
  C   C732      1.0  0.59713  0.01613  0.20792  1.0000
  C   C733      1.0  0.59742  0.00605  0.18988  1.0000
  C   C734      1.0  0.94092  0.21700  0.42953  1.0000
  H   H869      1.0  0.59630  0.01459  0.17576  1.0000
  N   N48       1.0  0.73878  0.16845  0.34483  1.0000
  C   C735      1.0  0.72191  0.17018  0.36007  1.0000
  C   C736      1.0  0.72980  0.16797  0.32480  1.0000
  C   C737      1.0  0.74993  0.14898  0.34835  1.0000
  C   C738      1.0  0.75264  0.18507  0.34664  1.0000
  C   C739      1.0  0.75821  0.19828  0.33015  1.0000
  C   C740      1.0  0.76158  0.18799  0.36523  1.0000
  C   C741      1.0  0.77198  0.21331  0.33230  1.0000
  C   C742      1.0  0.77519  0.20315  0.36722  1.0000
  H   H870      1.0  0.71363  0.18497  0.35842  1.0000
  H   H871      1.0  0.71090  0.15816  0.35874  1.0000
  H   H872      1.0  0.72705  0.16859  0.37573  1.0000
  H   H873      1.0  0.72103  0.18215  0.32118  1.0000
  H   H874      1.0  0.71917  0.15546  0.32425  1.0000
  H   H875      1.0  0.74149  0.16529  0.31265  1.0000
  H   H876      1.0  0.75577  0.14739  0.36374  1.0000
  H   H877      1.0  0.74018  0.13602  0.34662  1.0000
  H   H878      1.0  0.76311  0.14733  0.33760  1.0000
  H   H879      1.0  0.75234  0.19719  0.31540  1.0000
  H   H880      1.0  0.75864  0.17816  0.37830  1.0000
  H   H881      1.0  0.78219  0.20473  0.38146  1.0000
  N   N49       1.0  0.72309  0.03686  0.45078  1.0000
  H   H882      1.0  0.64294  0.23493  0.11946  1.0000
  H   H883      1.0  0.86703  0.17726  0.39331  1.0000
  C   C743      1.0  0.73800  0.05236  0.44566  1.0000
  H   H884      1.0  0.56054  0.21844  0.00903  1.0000
  C   C744      1.0  0.96927  0.23409  0.37685  1.0000
  C   C745      1.0  0.89746  0.19271  0.32793  1.0000
  C   C746      1.0  0.50071  0.99908  0.22584  1.0000
  H   H885      1.0  0.87219  0.15556  0.40949  1.0000
  H   H886      1.0  0.56731  0.09168  0.15722  1.0000
  C   C747      1.0  0.70262  0.04664  0.45090  1.0000
  H   H887      1.0  0.75361  0.04569  0.44474  1.0000
  H   H888      1.0  0.73519  0.05985  0.43075  1.0000
  H   H889      1.0  0.73745  0.06450  0.45663  1.0000
  C   C748      1.0  0.88048  0.18127  0.32723  1.0000
  C   C749      1.0  0.49724  0.16145  0.19199  1.0000
  C   C750      1.0  0.61208  0.10511  0.33379  1.0000
  H   H890      1.0  0.57638  0.14096  0.34727  1.0000
  C   C751      1.0  0.60467  0.13589  0.36067  1.0000
  C   C752      1.0  0.59172  0.14000  0.12552  1.0000
  C   C753      1.0  0.50234  0.13178  0.21348  1.0000
  H   H891      1.0  0.64084  0.10100  0.34742  1.0000
  H   H892      1.0  0.54465  0.02336  0.22045  1.0000
  H   H893      1.0  0.56953  0.14389  0.31300  1.0000
  Fe  Fe107     1.0  0.91472  0.23630  0.37915  1.0000
  H   H894      1.0  0.57783  0.07891  0.17877  1.0000
  H   H895      1.0  0.72113  0.05509  0.48717  1.0000
  H   H896      1.0  0.57108  0.09228  0.29538  1.0000
  H   H897      1.0  0.59701  0.09762  0.29625  1.0000
  N   N50       1.0  0.52890  0.22596  0.01416  1.0000
  N   N51       1.0  0.59975  0.09120  0.15723  1.0000
  C   C754      1.0  0.58831  0.12425  0.13967  1.0000
  H   H898      1.0  0.49742  0.11673  0.28156  1.0000
  C   C755      1.0  0.66521  0.23556  0.15222  1.0000
  C   C756      1.0  0.54202  0.99123  0.22025  1.0000
  H   H899      1.0  0.57754  0.10572  0.17689  1.0000
  H   H900      1.0  0.79151  0.22704  0.35228  1.0000
  C   C757      1.0  0.49376  0.07624  0.24207  1.0000
  H   H901      1.0  0.88668  0.21937  0.48925  1.0000
  H   H902      1.0  0.63428  0.12815  0.37121  1.0000
  C   C758      1.0  0.62055  0.10867  0.12980  1.0000
  H   H903      1.0  0.65399  0.22352  0.15386  1.0000
  H   H904      1.0  0.61617  0.09320  0.32367  1.0000
  H   H905      1.0  0.72102  0.02996  0.41946  1.0000
  H   H906      1.0  0.89207  0.17141  0.40095  1.0000
  H   H907      1.0  0.97797  0.21319  0.41871  1.0000
  C   C759      1.0  0.59333  0.11614  0.33319  1.0000
  H   H908      1.0  0.63072  0.09011  0.16603  1.0000
  H   H909      1.0  0.55200  0.12152  0.33739  1.0000
  C   C760      1.0  0.50972  0.14915  0.20397  1.0000
  C   C761      1.0  0.57968  0.09199  0.16790  1.0000
  H   H910      1.0  0.69215  0.09684  0.48857  1.0000
  C   C762      1.0  0.62385  0.12456  0.11578  1.0000
  C   C763      1.0  0.60945  0.14019  0.11365  1.0000
  H   H911      1.0  0.61340  0.07941  0.18425  1.0000
  C   C764      1.0  0.70807  0.09936  0.48906  1.0000
  H   H912      1.0  0.58987  0.13434  0.29710  1.0000
  C   C765      1.0  0.72431  0.02240  0.43432  1.0000
  C   C766      1.0  0.72711  0.02750  0.47086  1.0000
  H   H913      1.0  0.92417  0.21697  0.42985  1.0000
  C   C767      1.0  0.86324  0.14104  0.37571  1.0000
  C   C768      1.0  0.51183  0.21634  0.02545  1.0000
  C   C769      1.0  0.59518  0.23946  0.00432  1.0000
  H   H914      1.0  0.94647  0.20101  0.42962  1.0000
  C   C770      1.0  0.59858  0.00461  0.22611  1.0000
  C   C771      1.0  0.59011  0.13172  0.34705  1.0000
  C   C772      1.0  0.62288  0.12480  0.36082  1.0000
  C   C773      1.0  0.49647  0.10548  0.27042  1.0000
  C   C774      1.0  0.76104  0.99875  0.39706  1.0000
  H   H915      1.0  0.84980  0.15132  0.37393  1.0000
  H   H916      1.0  0.77627  0.22309  0.31952  1.0000
  C   C775      1.0  0.88701  0.16584  0.36062  1.0000
  H   H917      1.0  0.52514  0.15312  0.20600  1.0000
  H   H918      1.0  0.90197  0.12860  0.36825  1.0000
  C   C776      1.0  0.60262  0.10796  0.14215  1.0000
  C   C777      1.0  0.60195  0.07155  0.14743  1.0000
  H   H919      1.0  0.60193  0.14791  0.37106  1.0000
  H   H920      1.0  0.69089  0.03568  0.45523  1.0000
  H   H921      1.0  0.54988  0.20703  0.03117  1.0000
  C   C778      1.0  0.54656  0.21161  0.01532  1.0000
  C   C779      1.0  0.51380  0.01494  0.22447  1.0000
  C   C780      1.0  0.97049  0.22726  0.44759  1.0000
  H   H922      1.0  0.87092  0.18316  0.31445  1.0000
  C   C781      1.0  0.55832  0.10840  0.32914  1.0000
  C   C782      1.0  0.62654  0.10945  0.34744  1.0000
  H   H923      1.0  0.56437  0.12802  0.29307  1.0000
  C   C783      1.0  0.57530  0.13047  0.30489  1.0000
  C   C784      1.0  0.58319  0.09503  0.30584  1.0000
  H   H924      1.0  0.61400  0.10634  0.18034  1.0000
  C   C785      1.0  0.61515  0.09180  0.17258  1.0000
  H   H925      1.0  0.50796  0.03032  0.22551  1.0000
  H   H926      1.0  0.91383  0.17714  0.37352  1.0000
  N   N52       1.0  0.88166  0.15243  0.37821  1.0000
  H   H927      1.0  0.92275  0.21692  0.46485  1.0000
  H   H928      1.0  0.94552  0.22447  0.41489  1.0000
  H   H929      1.0  0.91246  0.14468  0.38566  1.0000
  H   H930      1.0  0.61740  0.06851  0.14105  1.0000
  H   H931      1.0  0.86488  0.13132  0.36250  1.0000
  H   H932      1.0  0.58555  0.08089  0.31509  1.0000
  C   C786      1.0  0.87814  0.16462  0.39628  1.0000
  C   C787      1.0  0.78051  0.21568  0.35076  1.0000
  H   H933      1.0  0.54669  0.10479  0.31837  1.0000
  H   H934      1.0  0.58089  0.15257  0.12428  1.0000
  H   H935      1.0  0.63780  0.12501  0.10678  1.0000
  C   C788      1.0  0.89842  0.13750  0.38184  1.0000
  H   H936      1.0  0.59837  0.01216  0.24019  1.0000
  C   C789      1.0  0.87527  0.16795  0.34325  1.0000
  H   H937      1.0  0.71341  0.01028  0.43697  1.0000
  H   H938      1.0  0.55985  0.09541  0.34013  1.0000
  H   H939      1.0  0.98740  0.21207  0.36060  1.0000
  C   C790      1.0  0.90430  0.17765  0.36075  1.0000
  H   H940      1.0  0.69911  0.05360  0.43585  1.0000
  S   S214      1.0  0.88599  0.23528  0.44874  1.0000
  H   H941      1.0  0.51202  0.12235  0.22301  1.0000
  H   H942      1.0  0.67898  0.22831  0.14527  1.0000
  H   H943      1.0  0.89466  0.12676  0.39461  1.0000
  N   N53       1.0  0.94827  0.22758  0.44684  1.0000
  H   H944      1.0  0.94191  0.22619  0.47916  1.0000
  C   C791      1.0  0.53442  0.01102  0.22164  1.0000
  H   H945      1.0  0.70089  0.05921  0.46138  1.0000
  H   H946      1.0  0.49281  0.06488  0.23106  1.0000
  H   H947      1.0  0.73976  0.01554  0.43226  1.0000
  H   H948      1.0  0.49857  0.22677  0.02782  1.0000
  H   H949      1.0  0.74029  0.99624  0.34391  1.0000
  C   C792      1.0  0.74577  0.99684  0.35892  1.0000
  H   H950      1.0  0.73558  0.99691  0.46147  1.0000
  H   H951      1.0  0.50677  0.20322  0.01744  1.0000
  C   C793      1.0  0.72521  0.03918  0.48828  1.0000
  H   H952      1.0  0.68177  0.99881  0.47619  1.0000
  C   C794      1.0  0.52350  0.23165  0.99325  1.0000
  H   H953      1.0  0.66877  0.23996  0.16758  1.0000
  H   H954      1.0  0.79385  0.01096  0.48950  1.0000
  C   C795      1.0  0.98350  0.21951  0.43199  1.0000
  C   C796      1.0  0.98758  0.22470  0.37029  1.0000
  H   H955      1.0  0.54412  0.19770  0.00720  1.0000
  C   C797      1.0  0.97976  0.23576  0.46391  1.0000
  H   H956      1.0  0.66825  0.24040  0.11200  1.0000
  H   H957      1.0  0.78830  0.00972  0.58082  1.0000
  S   S215      1.0  0.57779  0.21577  0.89262  1.0000
  C   C798      1.0  0.76264  0.17518  0.55621  1.0000
  S   S216      1.0  0.61321  0.21788  0.94068  1.0000
  C   C799      1.0  0.60576  0.22624  0.96506  1.0000
  S   S217      1.0  0.59830  0.21010  0.83496  1.0000
  C   C800      1.0  0.97358  0.23678  0.58812  1.0000
  S   S218      1.0  0.89576  0.22873  0.56537  1.0000
  Fe  Fe108     1.0  0.87439  0.22342  0.59212  1.0000
  S   S219      1.0  0.85853  0.19307  0.59586  1.0000
  H   H958      1.0  0.84194  0.22658  0.62136  1.0000
  H   H959      1.0  0.82262  0.04452  0.55043  1.0000
  Fe  Fe109     1.0  0.74777  0.07782  0.60306  1.0000
  S   S220      1.0  0.72093  0.08190  0.58410  1.0000
  S   S221      1.0  0.75675  0.04622  0.61496  1.0000
  Fe  Fe110     1.0  0.75583  0.12369  0.60140  1.0000
  S   S222      1.0  0.72844  0.13002  0.58289  1.0000
  S   S223      1.0  0.77210  0.15284  0.60737  1.0000
  Fe  Fe111     1.0  0.71250  0.10782  0.60421  1.0000
  S   S224      1.0  0.67970  0.10920  0.61674  1.0000
  Fe  Fe112     1.0  0.73944  0.10354  0.56492  1.0000
  S   S225      1.0  0.74997  0.10449  0.53170  1.0000
  S   S226      1.0  0.73899  0.10305  0.62382  1.0000
  S   S227      1.0  0.76718  0.09777  0.58292  1.0000
  Fe  Fe113     1.0  0.58839  0.11070  0.76436  1.0000
  S   S228      1.0  0.58618  0.13037  0.73630  1.0000
  S   S229      1.0  0.59136  0.12366  0.79590  1.0000
  Fe  Fe114     1.0  0.58505  0.07154  0.74030  1.0000
  S   S230      1.0  0.58258  0.08980  0.71104  1.0000
  S   S231      1.0  0.58238  0.03820  0.73330  1.0000
  Fe  Fe115     1.0  0.60777  0.10781  0.72129  1.0000
  S   S232      1.0  0.63807  0.11633  0.70546  1.0000
  Fe  Fe116     1.0  0.56124  0.11026  0.72866  1.0000
  S   S233      1.0  0.53147  0.12368  0.71724  1.0000
  S   S234      1.0  0.61124  0.08879  0.74995  1.0000
  S   S235      1.0  0.56241  0.09145  0.75734  1.0000
  C   C801      1.0  0.59526  0.00946  0.76236  1.0000
  C   C802      1.0  0.58956  0.01357  0.74257  1.0000
  C   C803      1.0  0.52099  0.19762  0.79017  1.0000
  H   H960      1.0  0.59626  0.02169  0.77242  1.0000
  H   H961      1.0  0.51292  0.22049  0.81076  1.0000
  H   H962      1.0  0.65162  0.00588  0.69177  1.0000
  C   C804      1.0  0.50784  0.11264  0.72264  1.0000
  H   H963      1.0  0.82101  0.02840  0.57279  1.0000
  C   C805      1.0  0.76039  0.15837  0.52529  1.0000
  C   C806      1.0  0.86453  0.21374  0.65216  1.0000
  C   C807      1.0  0.66842  0.11164  0.64150  1.0000
  C   C808      1.0  0.67946  0.11626  0.65803  1.0000
  C   C809      1.0  0.66988  0.11766  0.67735  1.0000
  C   C810      1.0  0.64920  0.11426  0.68059  1.0000
  C   C811      1.0  0.63818  0.10952  0.66410  1.0000
  C   C812      1.0  0.64770  0.10837  0.64472  1.0000
  H   H964      1.0  0.69534  0.11892  0.65591  1.0000
  H   H965      1.0  0.67862  0.12138  0.68991  1.0000
  H   H966      1.0  0.62227  0.10692  0.66620  1.0000
  H   H967      1.0  0.63892  0.10483  0.63212  1.0000
  C   C813      1.0  0.73753  0.10369  0.50867  1.0000
  H   H968      1.0  0.76998  0.01073  0.56181  1.0000
  H   H969      1.0  0.63340  0.03528  0.70640  1.0000
  H   H970      1.0  0.70797  0.09837  0.52167  1.0000
  C   C814      1.0  0.74899  0.10613  0.49054  1.0000
  C   C815      1.0  0.73707  0.02411  0.58782  1.0000
  C   C816      1.0  0.74920  0.02374  0.60449  1.0000
  C   C817      1.0  0.54130  0.16938  0.80262  1.0000
  H   H971      1.0  0.73164  0.03832  0.58128  1.0000
  C   C818      1.0  0.79492  0.18074  0.51284  1.0000
  C   C819      1.0  0.83415  0.18244  0.59813  1.0000
  C   C820      1.0  0.83276  0.16139  0.59752  1.0000
  C   C821      1.0  0.81401  0.15208  0.59991  1.0000
  C   C822      1.0  0.79625  0.16368  0.60329  1.0000
  C   C823      1.0  0.79760  0.18474  0.60377  1.0000
  C   C824      1.0  0.81631  0.19408  0.60101  1.0000
  H   H972      1.0  0.84638  0.15216  0.59532  1.0000
  H   H973      1.0  0.81339  0.13590  0.59957  1.0000
  H   H974      1.0  0.78405  0.19395  0.60641  1.0000
  H   H975      1.0  0.81692  0.21024  0.60145  1.0000
  H   H976      1.0  0.76489  0.06797  0.50209  1.0000
  H   H977      1.0  0.49185  0.13353  0.70286  1.0000
  C   C825      1.0  0.50585  0.09635  0.73645  1.0000
  H   H978      1.0  0.83869  0.20534  0.51472  1.0000
  H   H979      1.0  0.73749  0.00392  0.52470  1.0000
  C   C826      1.0  0.59504  0.18597  0.82469  1.0000
  C   C827      1.0  0.59463  0.16809  0.83656  1.0000
  C   C828      1.0  0.59335  0.14932  0.82750  1.0000
  C   C829      1.0  0.59221  0.14801  0.80647  1.0000
  C   C830      1.0  0.59205  0.16594  0.79468  1.0000
  C   C831      1.0  0.59360  0.18468  0.80370  1.0000
  H   H980      1.0  0.59585  0.16864  0.85268  1.0000
  H   H981      1.0  0.59345  0.13564  0.83687  1.0000
  H   H982      1.0  0.59081  0.16541  0.77860  1.0000
  H   H983      1.0  0.59384  0.19832  0.79429  1.0000
  H   H984      1.0  0.55014  0.16959  0.83268  1.0000
  C   C832      1.0  0.73224  0.00600  0.57927  1.0000
  H   H985      1.0  0.76489  0.10879  0.49096  1.0000
  C   C833      1.0  0.80684  0.17965  0.54674  1.0000
  C   C834      1.0  0.54155  0.17790  0.82146  1.0000
  C   C835      1.0  0.78591  0.04715  0.56915  1.0000
  H   H986      1.0  0.76917  0.04841  0.56929  1.0000
  H   H987      1.0  0.79198  0.06204  0.56451  1.0000
  H   H988      1.0  0.78998  0.04419  0.58511  1.0000
  H   H989      1.0  0.50081  0.01930  0.78049  1.0000
  H   H990      1.0  0.77743  0.19913  0.65816  1.0000
  N   N54       1.0  0.64528  0.15103  0.75654  1.0000
  C   C836      1.0  0.66491  0.15169  0.74513  1.0000
  C   C837      1.0  0.64126  0.12955  0.76133  1.0000
  C   C838      1.0  0.62928  0.15922  0.74329  1.0000
  C   C839      1.0  0.64569  0.16326  0.77459  1.0000
  C   C840      1.0  0.64894  0.18421  0.77249  1.0000
  C   C841      1.0  0.64253  0.15508  0.79452  1.0000
  C   C842      1.0  0.64856  0.19626  0.78923  1.0000
  C   C843      1.0  0.64244  0.16725  0.81115  1.0000
  C   C844      1.0  0.64523  0.18780  0.80851  1.0000
  H   H991      1.0  0.67741  0.14609  0.75471  1.0000
  H   H992      1.0  0.66512  0.14218  0.73168  1.0000
  H   H993      1.0  0.66833  0.16712  0.73938  1.0000
  H   H994      1.0  0.65295  0.12218  0.77089  1.0000
  H   H995      1.0  0.64122  0.12073  0.74750  1.0000
  H   H996      1.0  0.62623  0.12783  0.76908  1.0000
  H   H997      1.0  0.63214  0.17465  0.73721  1.0000
  H   H998      1.0  0.62790  0.14986  0.72996  1.0000
  H   H999      1.0  0.61441  0.15970  0.75155  1.0000
  H   H1000     1.0  0.65139  0.19149  0.75784  1.0000
  H   H1001     1.0  0.63938  0.13945  0.79773  1.0000
  H   H1002     1.0  0.65046  0.21232  0.78727  1.0000
  H   H1003     1.0  0.63934  0.16083  0.82615  1.0000
  H   H1004     1.0  0.64425  0.19727  0.82142  1.0000
  C   C845      1.0  0.78839  0.03421  0.53470  1.0000
  C   C846      1.0  0.49146  0.02325  0.76787  1.0000
  H   H1005     1.0  0.83455  0.19443  0.55065  1.0000
  H   H1006     1.0  0.86788  0.20299  0.66494  1.0000
  H   H1007     1.0  0.50121  0.22032  0.84376  1.0000
  Fe  Fe117     1.0  0.59595  0.22629  0.86522  1.0000
  H   H1008     1.0  0.53057  0.99733  0.76237  1.0000
  H   H1009     1.0  0.64104  0.06968  0.69365  1.0000
  H   H1010     1.0  0.74738  0.14979  0.53168  1.0000
  C   C847      1.0  0.77886  0.03976  0.49359  1.0000
  H   H1011     1.0  0.77152  0.17807  0.56947  1.0000
  C   C848      1.0  0.97411  0.23960  0.60880  1.0000
  C   C849      1.0  0.52097  0.20620  0.80900  1.0000
  H   H1012     1.0  0.82348  0.01769  0.54861  1.0000
  C   C850      1.0  0.81623  0.03036  0.55696  1.0000
  H   H1013     1.0  0.55602  0.22455  0.83595  1.0000
  N   N55       1.0  0.79400  0.03104  0.55593  1.0000
  S   S236      1.0  0.95076  0.23338  0.57595  1.0000
  H   H1014     1.0  0.55867  0.19236  0.85596  1.0000
  C   C851      1.0  0.71699  0.10026  0.50786  1.0000
  H   H1015     1.0  0.72313  0.00651  0.56618  1.0000
  C   C852      1.0  0.79406  0.01956  0.52039  1.0000
  C   C853      1.0  0.73695  0.99860  0.49304  1.0000
  C   C854      1.0  0.73460  0.01043  0.50983  1.0000
  S   S237      1.0  0.62037  0.23809  0.88403  1.0000
  C   C855      1.0  0.83420  0.18484  0.65026  1.0000
  N   N56       1.0  0.53111  0.20614  0.84498  1.0000
  C   C856      1.0  0.53119  0.17927  0.78698  1.0000
  C   C857      1.0  0.65512  0.02091  0.68612  1.0000
  C   C858      1.0  0.81980  0.17013  0.65008  1.0000
  H   H1016     1.0  0.76799  0.14866  0.51380  1.0000
  H   H1017     1.0  0.51896  0.08999  0.74378  1.0000
  H   H1018     1.0  0.80240  0.00589  0.52472  1.0000
  H   H1019     1.0  0.76817  0.13477  0.55639  1.0000
  C   C859      1.0  0.75597  0.00502  0.61280  1.0000
  H   H1020     1.0  0.78832  0.16389  0.65223  1.0000
  H   H1021     1.0  0.78452  0.17745  0.50153  1.0000
  C   C860      1.0  0.79199  0.17441  0.53341  1.0000
  H   H1022     1.0  0.75389  0.17222  0.51774  1.0000
  H   H1023     1.0  0.54934  0.15512  0.80005  1.0000
  H   H1024     1.0  0.76529  0.00454  0.62575  1.0000
  H   H1025     1.0  0.51522  0.03796  0.75064  1.0000
  C   C861      1.0  0.78631  0.01166  0.56429  1.0000
  C   C862      1.0  0.82852  0.20528  0.65372  1.0000
  C   C863      1.0  0.84058  0.23334  0.67167  1.0000
  C   C864      1.0  0.53132  0.19664  0.82524  1.0000
  H   H1026     1.0  0.84176  0.22348  0.68552  1.0000
  N   N57       1.0  0.68903  0.04679  0.64570  1.0000
  C   C865      1.0  0.67807  0.05502  0.62806  1.0000
  C   C866      1.0  0.70386  0.06158  0.65102  1.0000
  C   C867      1.0  0.70060  0.02834  0.63952  1.0000
  C   C868      1.0  0.67438  0.04322  0.66278  1.0000
  C   C869      1.0  0.66362  0.05966  0.67166  1.0000
  C   C870      1.0  0.66968  0.02363  0.67050  1.0000
  C   C871      1.0  0.82583  0.19671  0.51984  1.0000
  C   C872      1.0  0.49530  0.12378  0.77855  1.0000
  N   N58       1.0  0.77433  0.16315  0.54114  1.0000
  H   H1027     1.0  0.66945  0.06925  0.63136  1.0000
  H   H1028     1.0  0.68852  0.05862  0.61500  1.0000
  H   H1029     1.0  0.66703  0.04427  0.62326  1.0000
  H   H1030     1.0  0.69700  0.07696  0.65255  1.0000
  H   H1031     1.0  0.71614  0.06320  0.63919  1.0000
  H   H1032     1.0  0.71099  0.05700  0.66541  1.0000
  H   H1033     1.0  0.69070  0.01705  0.63370  1.0000
  H   H1034     1.0  0.71190  0.03170  0.62711  1.0000
  H   H1035     1.0  0.70912  0.02133  0.65222  1.0000
  H   H1036     1.0  0.66613  0.07491  0.66642  1.0000
  H   H1037     1.0  0.67690  0.01015  0.66469  1.0000
  H   H1038     1.0  0.58407  0.00038  0.71439  1.0000
  C   C873      1.0  0.50633  0.13628  0.76535  1.0000
  H   H1039     1.0  0.80566  0.17539  0.56253  1.0000
  H   H1040     1.0  0.53143  0.17275  0.77232  1.0000
  H   H1041     1.0  0.51317  0.20531  0.77794  1.0000
  H   H1042     1.0  0.53609  0.17899  0.86328  1.0000
  H   H1043     1.0  0.96022  0.24002  0.61787  1.0000
  H   H1044     1.0  0.74911  0.16729  0.56231  1.0000
  C   C874      1.0  0.58834  0.99740  0.72976  1.0000
  H   H1045     1.0  0.77261  0.06385  0.53710  1.0000
  H   H1046     1.0  0.75754  0.19004  0.54957  1.0000
  C   C875      1.0  0.51005  0.20905  0.85291  1.0000
  H   H1047     1.0  0.51947  0.00179  0.72700  1.0000
  H   H1048     1.0  0.80206  0.22529  0.65854  1.0000
  H   H1049     1.0  0.52251  0.13385  0.76342  1.0000
  C   C876      1.0  0.64913  0.05679  0.68724  1.0000
  H   H1050     1.0  0.79001  0.14590  0.56443  1.0000
  C   C877      1.0  0.79335  0.19515  0.65634  1.0000
  C   C878      1.0  0.78115  0.14381  0.55097  1.0000
  C   C879      1.0  0.79944  0.17526  0.65312  1.0000
  H   H1051     1.0  0.54153  0.20154  0.87517  1.0000
  H   H1052     1.0  0.82440  0.15475  0.64681  1.0000
  H   H1053     1.0  0.79052  0.13453  0.54034  1.0000
  C   C880      1.0  0.61571  0.21811  0.98199  1.0000
  H   H1054     1.0  0.72725  0.04001  0.52046  1.0000
  H   H1055     1.0  0.87521  0.22618  0.65266  1.0000
  C   C881      1.0  0.54236  0.19412  0.86043  1.0000
  C   C882      1.0  0.64483  0.03744  0.69444  1.0000
  C   C883      1.0  0.81162  0.19175  0.50627  1.0000
  C   C884      1.0  0.54037  0.22603  0.84257  1.0000
  C   C885      1.0  0.80760  0.20999  0.65660  1.0000
  C   C886      1.0  0.77762  0.05178  0.52748  1.0000
  Fe  Fe118     1.0  0.60015  0.23040  0.91125  1.0000
  H   H1056     1.0  0.79405  0.99836  0.55745  1.0000
  H   H1057     1.0  0.84959  0.17988  0.64696  1.0000
  H   H1058     1.0  0.62750  0.20660  0.97999  1.0000
  C   C887      1.0  0.49962  0.03371  0.75109  1.0000
  C   C888      1.0  0.82347  0.19060  0.54004  1.0000
  C   C889      1.0  0.72877  0.03069  0.50744  1.0000
  H   H1059     1.0  0.50940  0.21470  0.86846  1.0000
  N   N59       1.0  0.84324  0.22141  0.65331  1.0000
  C   C890      1.0  0.49645  0.15122  0.75382  1.0000
  H   H1060     1.0  0.53177  0.23681  0.83272  1.0000
  H   H1061     1.0  0.50307  0.11184  0.78708  1.0000
  H   H1062     1.0  0.54118  0.23019  0.94390  1.0000
  H   H1063     1.0  0.55076  0.21928  0.97748  1.0000
  C   C891      1.0  0.78929  0.02233  0.50017  1.0000
  C   C892      1.0  0.77303  0.05441  0.50722  1.0000
  H   H1064     1.0  0.54115  0.23328  0.85728  1.0000
  H   H1065     1.0  0.86825  0.20619  0.63776  1.0000
  H   H1066     1.0  0.50205  0.19468  0.85346  1.0000
  H   H1067     1.0  0.54816  0.99404  0.74119  1.0000
  S   S238      1.0  0.89813  0.23129  0.61350  1.0000
  C   C893      1.0  0.84000  0.23500  0.63547  1.0000
  H   H1068     1.0  0.49383  0.04778  0.72216  1.0000
  C   C894      1.0  0.53115  0.23355  0.95674  1.0000
  H   H1069     1.0  0.50509  0.16031  0.74293  1.0000
  C   C895      1.0  0.53640  0.22730  0.97622  1.0000
  H   H1070     1.0  0.88432  0.23482  0.52254  1.0000
  C   C896      1.0  0.49357  0.99127  0.71415  1.0000
  Fe  Fe119     1.0  0.91806  0.23964  0.58654  1.0000
  C   C897      1.0  0.88533  0.23557  0.49001  1.0000
  H   H1071     1.0  0.49097  0.00524  0.70551  1.0000
  H   H1072     1.0  0.81355  0.19656  0.49056  1.0000
  Fe  Fe120     1.0  0.75086  0.40096  0.06770  1.0000
  S   S239      1.0  0.71859  0.40149  0.07908  1.0000
  S   S240      1.0  0.75271  0.41342  0.03502  1.0000
  Fe  Fe121     1.0  0.76639  0.38960  0.11056  1.0000
  S   S241      1.0  0.73446  0.38887  0.12336  1.0000
  S   S242      1.0  0.78905  0.38135  0.13542  1.0000
  Fe  Fe122     1.0  0.72630  0.37239  0.09603  1.0000
  S   S243      1.0  0.71049  0.34221  0.09264  1.0000
  Fe  Fe123     1.0  0.72990  0.41788  0.10503  1.0000
  S   S244      1.0  0.71364  0.44498  0.11906  1.0000
  S   S245      1.0  0.75871  0.37137  0.08396  1.0000
  S   S246      1.0  0.76166  0.41908  0.09296  1.0000
  S   S247      1.0  0.58243  0.27111  0.07729  1.0000
  H   H1073     1.0  0.82801  0.43393  0.20692  1.0000
  H   H1074     1.0  0.49597  0.24672  0.12898  1.0000
  H   H1075     1.0  0.71557  0.45014  0.06979  1.0000
  Fe  Fe124     1.0  0.61061  0.26905  0.09501  1.0000
  S   S248      1.0  0.62577  0.29823  0.10311  1.0000
  Fe  Fe125     1.0  0.87865  0.39957  0.21675  1.0000
  S   S249      1.0  0.86310  0.39853  0.24757  1.0000
  S   S250      1.0  0.86493  0.40571  0.18546  1.0000
  Fe  Fe126     1.0  0.92052  0.40479  0.23553  1.0000
  S   S251      1.0  0.90729  0.40430  0.26720  1.0000
  S   S252      1.0  0.95226  0.41609  0.22974  1.0000
  Fe  Fe127     1.0  0.88949  0.37832  0.25789  1.0000
  S   S253      1.0  0.88914  0.34673  0.27400  1.0000
  Fe  Fe128     1.0  0.88242  0.42442  0.25447  1.0000
  S   S254      1.0  0.86945  0.45375  0.26730  1.0000
  S   S255      1.0  0.90411  0.37797  0.22635  1.0000
  S   S256      1.0  0.89658  0.42625  0.22359  1.0000
  Fe  Fe129     1.0  0.88418  0.27129  0.37566  1.0000
  S   S257      1.0  0.88245  0.30403  0.36281  1.0000
  C   C898      1.0  0.53869  0.30245  0.09056  1.0000
  H   H1076     1.0  0.51556  0.28846  0.12192  1.0000
  S   S258      1.0  0.90878  0.26338  0.39757  1.0000
  S   S259      1.0  0.86041  0.25516  0.39521  1.0000
  C   C899      1.0  0.95862  0.29029  0.47567  1.0000
  H   H1077     1.0  0.79064  0.46700  0.16552  1.0000
  H   H1078     1.0  0.96764  0.26713  0.32117  1.0000
  H   H1079     1.0  0.89923  0.41236  0.15521  1.0000
  C   C900      1.0  0.96974  0.25039  0.38937  1.0000
  C   C901      1.0  0.88706  0.33531  0.29891  1.0000
  C   C902      1.0  0.88583  0.34648  0.31632  1.0000
  C   C903      1.0  0.88429  0.33666  0.33560  1.0000
  C   C904      1.0  0.88395  0.31552  0.33790  1.0000
  C   C905      1.0  0.88534  0.30432  0.32051  1.0000
  C   C906      1.0  0.88690  0.31414  0.30124  1.0000
  H   H1080     1.0  0.88589  0.36272  0.31494  1.0000
  H   H1081     1.0  0.88319  0.34558  0.34884  1.0000
  H   H1082     1.0  0.88498  0.28810  0.32186  1.0000
  H   H1083     1.0  0.88775  0.30527  0.28796  1.0000
  C   C907      1.0  0.88067  0.47738  0.26231  1.0000
  C   C908      1.0  0.89871  0.47904  0.25089  1.0000
  C   C909      1.0  0.74961  0.45626  0.16585  1.0000
  H   H1084     1.0  0.90632  0.46567  0.24516  1.0000
  C   C910      1.0  0.95711  0.40361  0.13920  1.0000
  H   H1085     1.0  0.95584  0.25788  0.39440  1.0000
  C   C911      1.0  0.97652  0.40435  0.22621  1.0000
  C   C912      1.0  0.97938  0.38453  0.22018  1.0000
  C   C913      1.0  0.80215  0.41874  0.19806  1.0000
  H   H1086     1.0  0.96649  0.37551  0.21835  1.0000
  H   H1087     1.0  0.82011  0.46482  0.18635  1.0000
  C   C914      1.0  0.78533  0.41954  0.18612  1.0000
  H   H1088     1.0  0.73732  0.37217  0.03896  1.0000
  H   H1089     1.0  0.70621  0.35184  0.99964  1.0000
  C   C915      1.0  0.78552  0.43948  0.00056  1.0000
  C   C916      1.0  0.68200  0.39601  0.04232  1.0000
  H   H1090     1.0  0.77685  0.40605  0.18625  1.0000
  C   C917      1.0  0.68650  0.33068  0.09502  1.0000
  C   C918      1.0  0.68489  0.31101  0.08831  1.0000
  C   C919      1.0  0.66647  0.30100  0.09020  1.0000
  C   C920      1.0  0.64930  0.31044  0.09907  1.0000
  C   C921      1.0  0.65088  0.33017  0.10562  1.0000
  C   C922      1.0  0.66924  0.34026  0.10353  1.0000
  H   H1091     1.0  0.69808  0.30329  0.08183  1.0000
  H   H1092     1.0  0.66569  0.28588  0.08509  1.0000
  H   H1093     1.0  0.63781  0.33771  0.11253  1.0000
  H   H1094     1.0  0.67009  0.35534  0.10877  1.0000
  C   C923      1.0  0.80995  0.38879  0.14932  1.0000
  C   C924      1.0  0.82109  0.40570  0.14376  1.0000
  C   C925      1.0  0.83770  0.41059  0.15501  1.0000
  C   C926      1.0  0.84335  0.39892  0.17221  1.0000
  C   C927      1.0  0.83206  0.38216  0.17790  1.0000
  C   C928      1.0  0.81562  0.37712  0.16650  1.0000
  H   H1095     1.0  0.81718  0.41481  0.13058  1.0000
  H   H1096     1.0  0.84624  0.42356  0.15034  1.0000
  H   H1097     1.0  0.83615  0.37289  0.19095  1.0000
  H   H1098     1.0  0.80726  0.36397  0.17101  1.0000
  C   C929      1.0  0.73824  0.46784  0.05438  1.0000
  C   C930      1.0  0.71631  0.47157  0.11791  1.0000
  C   C931      1.0  0.92478  0.39523  0.18125  1.0000
  H   H1099     1.0  0.93067  0.44359  0.16471  1.0000
  C   C932      1.0  0.63758  0.25948  0.14914  1.0000
  C   C933      1.0  0.75343  0.40107  0.01177  1.0000
  C   C934      1.0  0.76643  0.38445  0.00817  1.0000
  C   C935      1.0  0.88272  0.26844  0.47338  1.0000
  H   H1100     1.0  0.77570  0.37823  0.02005  1.0000
  H   H1101     1.0  0.74823  0.34769  0.03478  1.0000
  C   C936      1.0  0.75006  0.42051  0.16306  1.0000
  H   H1102     1.0  0.83203  0.47659  0.23944  1.0000
  H   H1103     1.0  0.74486  0.45593  0.18209  1.0000
  H   H1104     1.0  0.95268  0.31745  0.31868  1.0000
  C   C937      1.0  0.95092  0.40882  0.15910  1.0000
  H   H1105     1.0  0.53167  0.30728  0.12926  1.0000
  H   H1106     1.0  0.75856  0.40663  0.15824  1.0000
  H   H1107     1.0  0.68097  0.33827  0.05133  1.0000
  Fe  Fe130     1.0  0.88587  0.24496  0.41523  1.0000
  C   C938      1.0  0.97174  0.37879  0.27156  1.0000
  H   H1108     1.0  0.73266  0.34553  0.00171  1.0000
  S   S260      1.0  0.58674  0.24756  0.02851  1.0000
  H   H1109     1.0  0.77879  0.45403  0.13649  1.0000
  H   H1110     1.0  0.93360  0.39627  0.19498  1.0000
  H   H1111     1.0  0.93594  0.26673  0.33446  1.0000
  H   H1112     1.0  0.73260  0.35220  0.05693  1.0000
  H   H1113     1.0  0.65351  0.39640  0.05888  1.0000
  H   H1114     1.0  0.96405  0.39341  0.26951  1.0000
  C   C939      1.0  0.74190  0.40921  0.99593  1.0000
  H   H1115     1.0  0.67672  0.31990  0.14555  1.0000
  N   N60       1.0  0.71631  0.35062  0.02998  1.0000
  C   C940      1.0  0.67223  0.26935  0.13896  1.0000
  C   C941      1.0  0.69821  0.38411  0.03487  1.0000
  S   S261      1.0  0.53692  0.25216  0.11462  1.0000
  H   H1116     1.0  0.68221  0.41225  0.04040  1.0000
  C   C942      1.0  0.70081  0.29999  0.13534  1.0000
  S   S262      1.0  0.59533  0.24990  0.11955  1.0000
  C   C943      1.0  0.52278  0.33428  0.09933  1.0000
  C   C944      1.0  0.68187  0.35423  0.04812  1.0000
  H   H1117     1.0  0.94301  0.25692  0.45903  1.0000
  H   H1118     1.0  0.52058  0.25505  0.02588  1.0000
  C   C945      1.0  0.84171  0.48561  0.22947  1.0000
  H   H1119     1.0  0.51605  0.31940  0.05882  1.0000
  H   H1120     1.0  0.88199  0.27787  0.45976  1.0000
  H   H1121     1.0  0.93657  0.27017  0.36090  1.0000
  H   H1122     1.0  0.50899  0.34226  0.10554  1.0000
  H   H1123     1.0  0.71064  0.39180  0.02744  1.0000
  C   C946      1.0  0.65428  0.24678  0.11942  1.0000
  C   C947      1.0  0.79328  0.45338  0.17457  1.0000
  C   C948      1.0  0.78029  0.43702  0.17406  1.0000
  H   H1124     1.0  0.70076  0.32347  0.02558  1.0000
  C   C949      1.0  0.94283  0.30455  0.32220  1.0000
  C   C950      1.0  0.91517  0.41008  0.14953  1.0000
  C   C951      1.0  0.93347  0.27802  0.34621  1.0000
  C   C952      1.0  0.76993  0.44042  0.13967  1.0000
  H   H1125     1.0  0.54350  0.30941  0.07577  1.0000
  H   H1126     1.0  0.65185  0.29434  0.14856  1.0000
  H   H1127     1.0  0.92809  0.38003  0.17527  1.0000
  H   H1128     1.0  0.74657  0.47247  0.10498  1.0000
  C   C953      1.0  0.96636  0.41080  0.17284  1.0000
  C   C954      1.0  0.69239  0.26532  0.13191  1.0000
  H   H1129     1.0  0.73182  0.42209  0.99849  1.0000
  H   H1130     1.0  0.98849  0.26944  0.40537  1.0000
  C   C955      1.0  0.71987  0.46511  0.06473  1.0000
  H   H1131     1.0  0.75898  0.45550  0.01154  1.0000
  S   S263      1.0  0.89126  0.24471  0.35655  1.0000
  C   C956      1.0  0.69869  0.36282  0.03756  1.0000
  H   H1132     1.0  0.73678  0.42224  0.15338  1.0000
  Fe  Fe131     1.0  0.59467  0.24344  0.06171  1.0000
  H   H1133     1.0  0.90945  0.43387  0.17921  1.0000
  C   C957      1.0  0.96054  0.36156  0.27340  1.0000
  C   C958      1.0  0.97956  0.28868  0.47549  1.0000
  H   H1134     1.0  0.68647  0.47610  0.13106  1.0000
  H   H1135     1.0  0.91602  0.39498  0.14292  1.0000
  H   H1136     1.0  0.72363  0.37067  0.00448  1.0000
  H   H1137     1.0  0.77965  0.42711  0.13537  1.0000
  H   H1138     1.0  0.97514  0.30907  0.36846  1.0000
  N   N61       1.0  0.65751  0.25320  0.14003  1.0000
  C   C959      1.0  0.87116  0.48783  0.20728  1.0000
  H   H1139     1.0  0.73569  0.45700  0.15701  1.0000
  H   H1140     1.0  0.96282  0.41457  0.18821  1.0000
  C   C960      1.0  0.70641  0.28044  0.13019  1.0000
  H   H1141     1.0  0.75708  0.44164  0.12945  1.0000
  C   C961      1.0  0.66586  0.38712  0.05275  1.0000
  H   H1142     1.0  0.71153  0.31184  0.13342  1.0000
  C   C962      1.0  0.94057  0.24876  0.44523  1.0000
  C   C963      1.0  0.92573  0.43110  0.17515  1.0000
  N   N62       1.0  0.92951  0.41130  0.16592  1.0000
  H   H1143     1.0  0.91786  0.42183  0.13744  1.0000
  C   C964      1.0  0.68116  0.30450  0.14221  1.0000
  H   H1144     1.0  0.92293  0.31544  0.35566  1.0000
  H   H1145     1.0  0.74411  0.41802  0.17880  1.0000
  H   H1146     1.0  0.92409  0.24987  0.44302  1.0000
  H   H1147     1.0  0.75872  0.48819  0.04071  1.0000
  C   C965      1.0  0.93910  0.31098  0.35734  1.0000
  C   C966      1.0  0.71408  0.32859  0.03318  1.0000
  H   H1148     1.0  0.94038  0.30503  0.37314  1.0000
  H   H1149     1.0  0.90857  0.39606  0.18619  1.0000
  H   H1150     1.0  0.75706  0.47065  0.16219  1.0000
  N   N63       1.0  0.94618  0.29573  0.34268  1.0000
  H   H1151     1.0  0.94574  0.29342  0.31035  1.0000
  N   N64       1.0  0.76275  0.43839  0.16101  1.0000
  C   C967      1.0  0.66579  0.36629  0.05561  1.0000
  C   C968      1.0  0.96766  0.28938  0.34435  1.0000
  C   C969      1.0  0.71979  0.35483  0.00805  1.0000
  H   H1152     1.0  0.94802  0.25700  0.43224  1.0000
  C   C970      1.0  0.81462  0.43500  0.19813  1.0000
  H   H1153     1.0  0.93365  0.43220  0.18944  1.0000
  H   H1154     1.0  0.50518  0.31278  0.12894  1.0000
  H   H1155     1.0  0.92697  0.31030  0.32066  1.0000
  H   H1156     1.0  0.62998  0.27156  0.13977  1.0000
  C   C971      1.0  0.85789  0.47629  0.21913  1.0000
  C   C972      1.0  0.73440  0.35590  0.04053  1.0000
  H   H1157     1.0  0.63896  0.26487  0.16459  1.0000
  H   H1158     1.0  0.94741  0.32511  0.35511  1.0000
  C   C973      1.0  0.81019  0.45231  0.18643  1.0000
  C   C974      1.0  0.73372  0.48130  0.11061  1.0000
  H   H1159     1.0  0.52587  0.34076  0.08389  1.0000
  H   H1160     1.0  0.74803  0.45481  0.05123  1.0000
  C   C975      1.0  0.66697  0.28953  0.14392  1.0000
  H   H1161     1.0  0.91714  0.28240  0.34630  1.0000
  Fe  Fe132     1.0  0.56852  0.24951  0.10003  1.0000
  C   C976      1.0  0.69991  0.48331  0.12523  1.0000
  H   H1162     1.0  0.55174  0.30313  0.10041  1.0000
  H   H1163     1.0  0.65341  0.35939  0.06409  1.0000
  H   H1164     1.0  0.88411  0.48050  0.19986  1.0000
  N   N65       1.0  0.52013  0.31229  0.09944  1.0000
  H   H1165     1.0  0.95109  0.29429  0.46185  1.0000
  H   H1166     1.0  0.94650  0.40164  0.12770  1.0000
  H   H1167     1.0  0.69332  0.47953  0.07782  1.0000
  H   H1168     1.0  0.94424  0.36283  0.27292  1.0000
  S   S264      1.0  0.62365  0.24235  0.07845  1.0000
  C   C977      1.0  0.88451  0.24752  0.47209  1.0000
  C   C978      1.0  0.51795  0.30492  0.12080  1.0000
  C   C979      1.0  0.97033  0.34274  0.27552  1.0000
  C   C980      1.0  0.98042  0.29772  0.35819  1.0000
  H   H1169     1.0  0.52824  0.25284  0.07202  1.0000
  H   H1170     1.0  0.96150  0.32939  0.27662  1.0000
  H   H1171     1.0  0.53563  0.33801  0.10850  1.0000
  H   H1172     1.0  0.79002  0.43449  0.01549  1.0000
  C   C981      1.0  0.51441  0.24966  0.10165  1.0000
  H   H1173     1.0  0.53643  0.28629  0.08821  1.0000
  C   C982      1.0  0.51429  0.25090  0.08064  1.0000
  C   C983      1.0  0.76804  0.45143  0.99829  1.0000
  C   C984      1.0  0.97751  0.40056  0.13364  1.0000
  H   H1174     1.0  0.80597  0.40511  0.20683  1.0000
  C   C985      1.0  0.50263  0.30817  0.08742  1.0000
  C   C986      1.0  0.97642  0.27428  0.33192  1.0000
  H   H1175     1.0  0.86061  0.46016  0.22102  1.0000
  H   H1176     1.0  0.72749  0.31990  0.02712  1.0000
  H   H1177     1.0  0.71262  0.32425  0.04954  1.0000
  H   H1178     1.0  0.72164  0.27713  0.12447  1.0000
  H   H1179     1.0  0.62711  0.24680  0.15039  1.0000
  H   H1180     1.0  0.54591  0.25251  0.01583  1.0000
  C   C987      1.0  0.49606  0.24759  0.11271  1.0000
  C   C988      1.0  0.49599  0.25024  0.07084  1.0000
  C   C989      1.0  0.70730  0.48171  0.06916  1.0000
  H   H1181     1.0  0.69735  0.25052  0.12725  1.0000
  H   H1182     1.0  0.97088  0.24223  0.47616  1.0000
  H   H1183     1.0  0.98195  0.39650  0.11844  1.0000
  C   C990      1.0  0.98666  0.40759  0.16721  1.0000
  C   C991      1.0  0.74419  0.48721  0.04844  1.0000
  C   C992      1.0  0.50308  0.31281  0.06638  1.0000
  H   H1184     1.0  0.64884  0.25973  0.10970  1.0000
  H   H1185     1.0  0.49593  0.25182  0.05464  1.0000
  C   C993      1.0  0.98829  0.25694  0.39553  1.0000
  C   C994      1.0  0.53378  0.24437  0.02438  1.0000
  H   H1186     1.0  0.49516  0.24755  0.00165  1.0000
  H   H1187     1.0  0.98833  0.29128  0.46156  1.0000
  H   H1188     1.0  0.53929  0.24080  0.03974  1.0000
  Fe  Fe133     1.0  0.71784  0.36996  0.88730  1.0000
  S   S265      1.0  0.75126  0.36448  0.89153  1.0000
  S   S266      1.0  0.70263  0.34154  0.87707  1.0000
  Fe  Fe134     1.0  0.72143  0.41518  0.89581  1.0000
  S   S267      1.0  0.75461  0.41191  0.90010  1.0000
  S   S268      1.0  0.70513  0.44548  0.90136  1.0000
  Fe  Fe135     1.0  0.75601  0.39299  0.87268  1.0000
  S   S269      1.0  0.77714  0.40155  0.84542  1.0000
  Fe  Fe136     1.0  0.74682  0.38397  0.91855  1.0000
  S   S270      1.0  0.76067  0.37455  0.94865  1.0000
  S   S271      1.0  0.72280  0.39788  0.86736  1.0000
  S   S272      1.0  0.71342  0.38778  0.91546  1.0000
  Fe  Fe137     1.0  0.60293  0.26776  0.88355  1.0000
  S   S273      1.0  0.61704  0.29886  0.88535  1.0000
  C   C995      1.0  0.95671  0.28238  0.51211  1.0000
  C   C996      1.0  0.62363  0.27735  0.94058  1.0000
  S   S274      1.0  0.58323  0.26000  0.91107  1.0000
  S   S275      1.0  0.57962  0.25685  0.86287  1.0000
  Fe  Fe138     1.0  0.87907  0.37704  0.71488  1.0000
  S   S276      1.0  0.89033  0.36101  0.74274  1.0000
  S   S277      1.0  0.87322  0.36262  0.68461  1.0000
  Fe  Fe139     1.0  0.88238  0.41874  0.73431  1.0000
  S   S278      1.0  0.89457  0.40467  0.76303  1.0000
  S   S279      1.0  0.87313  0.45215  0.72926  1.0000
  Fe  Fe140     1.0  0.91367  0.38469  0.74240  1.0000
  S   S280      1.0  0.94598  0.37124  0.74274  1.0000
  Fe  Fe141     1.0  0.87004  0.38239  0.76091  1.0000
  S   S281      1.0  0.85134  0.36949  0.78829  1.0000
  S   S282      1.0  0.90297  0.40025  0.71391  1.0000
  S   S283      1.0  0.85720  0.39700  0.73287  1.0000
  Fe  Fe142     1.0  0.88492  0.26321  0.61102  1.0000
  S   S284      1.0  0.88072  0.27676  0.64255  1.0000
  Fe  Fe143     1.0  0.88344  0.26040  0.56462  1.0000
  S   S285      1.0  0.87990  0.27687  0.53400  1.0000
  S   S286      1.0  0.86050  0.25491  0.59032  1.0000
  S   S287      1.0  0.90631  0.27171  0.58513  1.0000
  H   H1189     1.0  0.51755  0.26821  0.86234  1.0000
  H   H1190     1.0  0.57348  0.25909  0.98927  1.0000
  C   C997      1.0  0.88180  0.26519  0.51033  1.0000
  H   H1191     1.0  0.94683  0.27707  0.56336  1.0000
  H   H1192     1.0  0.87959  0.29337  0.49323  1.0000
  C   C998      1.0  0.87587  0.33854  0.67330  1.0000
  C   C999      1.0  0.87895  0.32046  0.68450  1.0000
  C   C1000     1.0  0.88056  0.30188  0.67480  1.0000
  C   C1001     1.0  0.87945  0.30095  0.65373  1.0000
  C   C1002     1.0  0.87682  0.31906  0.64249  1.0000
  C   C1003     1.0  0.87490  0.33762  0.65222  1.0000
  H   H1193     1.0  0.87963  0.32074  0.70069  1.0000
  H   H1194     1.0  0.88253  0.28807  0.68377  1.0000
  H   H1195     1.0  0.87578  0.31877  0.62634  1.0000
  H   H1196     1.0  0.87246  0.35141  0.64331  1.0000
  C   C1004     1.0  0.88561  0.47512  0.73127  1.0000
  H   H1197     1.0  0.98664  0.27659  0.52447  1.0000
  C   C1005     1.0  0.90554  0.47574  0.73707  1.0000
  C   C1006     1.0  0.77268  0.45109  0.96147  1.0000
  H   H1198     1.0  0.91398  0.46182  0.74023  1.0000
  C   C1007     1.0  0.50395  0.26267  0.86972  1.0000
  C   C1008     1.0  0.96917  0.38336  0.74361  1.0000
  C   C1009     1.0  0.97018  0.40310  0.74972  1.0000
  C   C1010     1.0  0.70760  0.48641  0.90514  1.0000
  H   H1199     1.0  0.95646  0.41160  0.75359  1.0000
  C   C1011     1.0  0.65114  0.26209  0.92174  1.0000
  C   C1012     1.0  0.66215  0.32189  0.96076  1.0000
  H   H1200     1.0  0.92248  0.38357  0.67590  1.0000
  C   C1013     1.0  0.59053  0.24107  0.96791  1.0000
  H   H1201     1.0  0.98655  0.35724  0.73386  1.0000
  C   C1014     1.0  0.79814  0.39238  0.83011  1.0000
  C   C1015     1.0  0.80535  0.40458  0.81374  1.0000
  C   C1016     1.0  0.82171  0.39804  0.80100  1.0000
  C   C1017     1.0  0.83118  0.37910  0.80440  1.0000
  C   C1018     1.0  0.82400  0.36693  0.82083  1.0000
  C   C1019     1.0  0.80764  0.37346  0.83357  1.0000
  H   H1202     1.0  0.79820  0.41923  0.81084  1.0000
  H   H1203     1.0  0.82689  0.40759  0.78845  1.0000
  H   H1204     1.0  0.83111  0.35224  0.82364  1.0000
  H   H1205     1.0  0.80245  0.36385  0.84605  1.0000
  C   C1020     1.0  0.67863  0.33001  0.87969  1.0000
  C   C1021     1.0  0.66145  0.33959  0.88839  1.0000
  C   C1022     1.0  0.64291  0.32980  0.88999  1.0000
  C   C1023     1.0  0.64114  0.31021  0.88315  1.0000
  C   C1024     1.0  0.65838  0.30052  0.87467  1.0000
  C   C1025     1.0  0.67688  0.31039  0.87289  1.0000
  H   H1206     1.0  0.66238  0.35462  0.89374  1.0000
  H   H1207     1.0  0.62977  0.33754  0.89655  1.0000
  H   H1208     1.0  0.65739  0.28556  0.86917  1.0000
  H   H1209     1.0  0.68996  0.30273  0.86613  1.0000
  H   H1210     1.0  0.89750  0.47928  0.78001  1.0000
  C   C1026     1.0  0.75700  0.38481  0.97289  1.0000
  C   C1027     1.0  0.65020  0.25891  0.95777  1.0000
  C   C1028     1.0  0.92910  0.29615  0.53328  1.0000
  H   H1211     1.0  0.73419  0.40714  0.96482  1.0000
  C   C1029     1.0  0.71681  0.46890  0.89718  1.0000
  H   H1212     1.0  0.92055  0.29498  0.54802  1.0000
  C   C1030     1.0  0.73488  0.47045  0.88581  1.0000
  C   C1031     1.0  0.95752  0.35996  0.67893  1.0000
  H   H1213     1.0  0.74210  0.45714  0.87949  1.0000
  N   N66       1.0  0.74810  0.34425  0.82408  1.0000
  C   C1032     1.0  0.74776  0.32458  0.83548  1.0000
  C   C1033     1.0  0.74851  0.36007  0.83902  1.0000
  C   C1034     1.0  0.72905  0.34684  0.81332  1.0000
  C   C1035     1.0  0.76551  0.34615  0.80957  1.0000
  C   C1036     1.0  0.76813  0.36433  0.79798  1.0000
  C   C1037     1.0  0.78037  0.33044  0.80667  1.0000
  C   C1038     1.0  0.78460  0.36666  0.78444  1.0000
  C   C1039     1.0  0.79681  0.33299  0.79309  1.0000
  C   C1040     1.0  0.79891  0.35104  0.78202  1.0000
  H   H1214     1.0  0.76135  0.32207  0.84461  1.0000
  H   H1215     1.0  0.73453  0.32382  0.84636  1.0000
  H   H1216     1.0  0.74668  0.31189  0.82529  1.0000
  H   H1217     1.0  0.76310  0.35944  0.84666  1.0000
  H   H1218     1.0  0.73618  0.35850  0.85075  1.0000
  H   H1219     1.0  0.74656  0.37549  0.83215  1.0000
  H   H1220     1.0  0.72837  0.33559  0.80151  1.0000
  H   H1221     1.0  0.71566  0.34509  0.82385  1.0000
  H   H1222     1.0  0.72727  0.36204  0.80589  1.0000
  H   H1223     1.0  0.75777  0.37713  0.79970  1.0000
  H   H1224     1.0  0.77989  0.31618  0.81494  1.0000
  H   H1225     1.0  0.78671  0.38092  0.77630  1.0000
  H   H1226     1.0  0.80834  0.32111  0.79145  1.0000
  H   H1227     1.0  0.81206  0.35319  0.77204  1.0000
  N   N67       1.0  0.93661  0.35366  0.67717  1.0000
  C   C1041     1.0  0.93501  0.33514  0.66573  1.0000
  C   C1042     1.0  0.92731  0.34970  0.69755  1.0000
  C   C1043     1.0  0.92483  0.37005  0.66671  1.0000
  H   H1228     1.0  0.79379  0.45894  0.92574  1.0000
  H   H1229     1.0  0.65638  0.48771  0.87674  1.0000
  H   H1230     1.0  0.93241  0.37481  0.65217  1.0000
  C   C1044     1.0  0.95650  0.27858  0.54934  1.0000
  C   C1045     1.0  0.79042  0.43881  0.96434  1.0000
  C   C1046     1.0  0.98903  0.41165  0.75141  1.0000
  H   H1231     1.0  0.94307  0.32204  0.67309  1.0000
  H   H1232     1.0  0.91904  0.33086  0.66492  1.0000
  H   H1233     1.0  0.94079  0.33728  0.64989  1.0000
  H   H1234     1.0  0.93636  0.33831  0.70637  1.0000
  H   H1235     1.0  0.91177  0.34430  0.69692  1.0000
  H   H1236     1.0  0.92592  0.36336  0.70652  1.0000
  H   H1237     1.0  0.80993  0.42338  0.98550  1.0000
  H   H1238     1.0  0.90955  0.36538  0.66330  1.0000
  C   C1047     1.0  0.88135  0.27720  0.49240  1.0000
  H   H1239     1.0  0.74745  0.46552  0.97814  1.0000
  C   C1048     1.0  0.67674  0.32786  0.94635  1.0000
  C   C1049     1.0  0.98087  0.38395  0.69104  1.0000
  H   H1240     1.0  0.82469  0.24230  0.63568  1.0000
  H   H1241     1.0  0.68431  0.34183  0.94768  1.0000
  H   H1242     1.0  0.61758  0.28341  0.95498  1.0000
  H   H1243     1.0  0.92403  0.26004  0.51748  1.0000
  C   C1050     1.0  0.67150  0.29816  0.92776  1.0000
  N   N68       1.0  0.64565  0.27284  0.94043  1.0000
  H   H1244     1.0  0.64413  0.26474  0.97231  1.0000
  H   H1245     1.0  0.87091  0.45444  0.78111  1.0000
  C   C1051     1.0  0.76160  0.45708  0.97908  1.0000
  C   C1052     1.0  0.74343  0.40096  0.97670  1.0000
  C   C1053     1.0  0.88400  0.24431  0.50897  1.0000
  H   H1246     1.0  0.58261  0.24741  0.95514  1.0000
  C   C1054     1.0  0.97811  0.28046  0.51131  1.0000
  C   C1055     1.0  0.68152  0.31594  0.93001  1.0000
  H   H1247     1.0  0.77335  0.45592  0.90956  1.0000
  H   H1248     1.0  0.64743  0.27153  0.90807  1.0000
  H   H1249     1.0  0.85218  0.24496  0.67204  1.0000
  H   H1250     1.0  0.97307  0.33620  0.66155  1.0000
  C   C1056     1.0  0.65644  0.29167  0.94212  1.0000
  C   C1057     1.0  0.68431  0.48029  0.86104  1.0000
  H   H1251     1.0  0.68301  0.46419  0.86374  1.0000
  H   H1252     1.0  0.61523  0.26356  0.93844  1.0000
  N   N69       1.0  0.94442  0.27942  0.53102  1.0000
  C   C1058     1.0  0.58535  0.24766  0.98736  1.0000
  H   H1253     1.0  0.78266  0.43474  0.92383  1.0000
  H   H1254     1.0  0.61968  0.28847  0.92823  1.0000
  H   H1255     1.0  0.74034  0.44762  0.92394  1.0000
  H   H1256     1.0  0.94487  0.24715  0.52960  1.0000
  C   C1059     1.0  0.50514  0.25084  0.88756  1.0000
  H   H1257     1.0  0.66672  0.25611  0.95892  1.0000
  H   H1258     1.0  0.73435  0.44860  0.95024  1.0000
  C   C1060     1.0  0.77940  0.45124  0.92449  1.0000
  H   H1259     1.0  0.96701  0.26515  0.54988  1.0000
  N   N70       1.0  0.76486  0.45621  0.94132  1.0000
  C   C1061     1.0  0.97447  0.34954  0.66995  1.0000
  H   H1260     1.0  0.69362  0.48535  0.91397  1.0000
  C   C1062     1.0  0.98720  0.37250  0.73869  1.0000
  C   C1063     1.0  0.84675  0.47674  0.78405  1.0000
  C   C1064     1.0  0.88186  0.48435  0.78174  1.0000
  H   H1261     1.0  0.93615  0.31102  0.53214  1.0000
  S   S288      1.0  0.52833  0.24383  0.89878  1.0000
  H   H1262     1.0  0.69282  0.32072  0.91876  1.0000
  H   H1263     1.0  0.94925  0.38594  0.69697  1.0000
  H   H1264     1.0  0.79951  0.43292  0.95195  1.0000
  H   H1265     1.0  0.67564  0.28999  0.91445  1.0000
  H   H1266     1.0  0.66736  0.25739  0.92087  1.0000
  H   H1267     1.0  0.91731  0.29613  0.52196  1.0000
  H   H1268     1.0  0.92421  0.25766  0.54424  1.0000
  C   C1065     1.0  0.74659  0.44473  0.93901  1.0000
  H   H1269     1.0  0.64109  0.29993  0.97040  1.0000
  H   H1270     1.0  0.75001  0.42826  0.94075  1.0000
  H   H1271     1.0  0.96520  0.29237  0.55040  1.0000
  Fe  Fe144     1.0  0.56195  0.24628  0.89065  1.0000
  C   C1066     1.0  0.86690  0.47032  0.78240  1.0000
  C   C1067     1.0  0.65223  0.30400  0.95881  1.0000
  C   C1068     1.0  0.96135  0.37736  0.68954  1.0000
  C   C1069     1.0  0.93397  0.26026  0.53045  1.0000
  H   H1272     1.0  0.64266  0.24806  0.92097  1.0000
  H   H1273     1.0  0.83521  0.46569  0.78427  1.0000
  H   H1274     1.0  0.71325  0.47723  0.84580  1.0000
  H   H1275     1.0  0.74642  0.48271  0.94898  1.0000
  H   H1276     1.0  0.75499  0.48246  0.92354  1.0000
  C   C1070     1.0  0.75950  0.47806  0.93911  1.0000
  H   H1277     1.0  0.85086  0.24734  0.63450  1.0000
  H   H1278     1.0  0.65840  0.33125  0.97342  1.0000
  H   H1279     1.0  0.93107  0.28769  0.49285  1.0000
  C   C1071     1.0  0.94730  0.28681  0.49359  1.0000
  H   H1280     1.0  0.77878  0.36395  0.98611  1.0000
  H   H1281     1.0  0.64342  0.24405  0.95635  1.0000
  C   C1072     1.0  0.70136  0.48768  0.85091  1.0000
  H   H1282     1.0  0.77245  0.48727  0.94244  1.0000
  C   C1073     1.0  0.74327  0.48937  0.88194  1.0000
  H   H1283     1.0  0.98337  0.39717  0.69948  1.0000
  H   H1284     1.0  0.50914  0.24912  0.93846  1.0000
  C   C1074     1.0  0.76825  0.37645  0.98885  1.0000
  C   C1075     1.0  0.79665  0.43317  0.98364  1.0000
  H   H1285     1.0  0.82589  0.24183  0.67253  1.0000
  C   C1076     1.0  0.50023  0.24899  0.96993  1.0000
  H   H1286     1.0  0.98965  0.42676  0.75667  1.0000
  C   C1077     1.0  0.51308  0.24428  0.95361  1.0000
  C   C1078     1.0  0.98926  0.28363  0.49324  1.0000
  C   C1079     1.0  0.50540  0.24299  0.98949  1.0000
  S   S289      1.0  0.58744  0.72175  0.07539  1.0000
  H   H1287     1.0  0.92760  0.70527  0.35864  1.0000
  Fe  Fe145     1.0  0.60863  0.72132  0.10118  1.0000
  S   S290      1.0  0.62452  0.69112  0.11079  1.0000
  C   C1080     1.0  0.73172  0.50451  0.05281  1.0000
  H   H1288     1.0  0.97051  0.72222  0.27605  1.0000
  Fe  Fe146     1.0  0.73302  0.56947  0.10830  1.0000
  S   S291      1.0  0.76487  0.56863  0.09619  1.0000
  S   S292      1.0  0.71611  0.54115  0.11781  1.0000
  Fe  Fe147     1.0  0.72830  0.61580  0.10277  1.0000
  S   S293      1.0  0.76034  0.61705  0.08987  1.0000
  S   S294      1.0  0.71311  0.64775  0.10487  1.0000
  Fe  Fe148     1.0  0.75336  0.59046  0.07200  1.0000
  S   S295      1.0  0.76396  0.58285  0.03986  1.0000
  Fe  Fe149     1.0  0.76913  0.59525  0.11528  1.0000
  S   S296      1.0  0.79951  0.59849  0.13050  1.0000
  S   S297      1.0  0.72108  0.59018  0.08332  1.0000
  S   S298      1.0  0.73752  0.59503  0.12900  1.0000
  Fe  Fe150     1.0  0.89121  0.61357  0.27102  1.0000
  S   S299      1.0  0.88910  0.63002  0.24082  1.0000
  S   S300      1.0  0.89081  0.62766  0.30238  1.0000
  Fe  Fe151     1.0  0.89878  0.57213  0.25085  1.0000
  S   S301      1.0  0.89768  0.58667  0.21981  1.0000
  S   S302      1.0  0.90919  0.53898  0.24926  1.0000
  Fe  Fe152     1.0  0.91641  0.61042  0.23196  1.0000
  S   S303      1.0  0.94329  0.62229  0.21349  1.0000
  Fe  Fe153     1.0  0.87049  0.60441  0.23131  1.0000
  S   S304      1.0  0.83945  0.60581  0.21646  1.0000
  S   S305      1.0  0.91925  0.59502  0.26215  1.0000
  S   S306      1.0  0.87085  0.58896  0.26236  1.0000
  H   H1289     1.0  0.82855  0.65093  0.19743  1.0000
  C   C1081     1.0  0.96379  0.72078  0.30805  1.0000
  H   H1290     1.0  0.95079  0.69017  0.36104  1.0000
  S   S307      1.0  0.88490  0.71499  0.34133  1.0000
  S   S308      1.0  0.90490  0.72084  0.39686  1.0000
  H   H1291     1.0  0.76985  0.51998  0.04493  1.0000
  C   C1082     1.0  0.95329  0.71108  0.32450  1.0000
  C   C1083     1.0  0.92490  0.72101  0.47028  1.0000
  C   C1084     1.0  0.98070  0.61087  0.23007  1.0000
  C   C1085     1.0  0.89034  0.65230  0.31249  1.0000
  C   C1086     1.0  0.88585  0.66989  0.30098  1.0000
  C   C1087     1.0  0.88455  0.68883  0.31001  1.0000
  C   C1088     1.0  0.88781  0.69063  0.33065  1.0000
  C   C1089     1.0  0.89288  0.67311  0.34204  1.0000
  C   C1090     1.0  0.89399  0.65416  0.33305  1.0000
  H   H1292     1.0  0.88295  0.66888  0.28520  1.0000
  H   H1293     1.0  0.88072  0.70219  0.30094  1.0000
  H   H1294     1.0  0.89564  0.67406  0.35782  1.0000
  H   H1295     1.0  0.89747  0.64074  0.34218  1.0000
  C   C1091     1.0  0.96995  0.61884  0.21358  1.0000
  H   H1296     1.0  0.65849  0.73171  0.17359  1.0000
  C   C1092     1.0  0.68492  0.66607  0.01346  1.0000
  H   H1297     1.0  0.97272  0.63154  0.18340  1.0000
  H   H1298     1.0  0.97258  0.60630  0.24380  1.0000
  C   C1093     1.0  0.78787  0.65471  0.15629  1.0000
  C   C1094     1.0  0.89747  0.51561  0.25436  1.0000
  C   C1095     1.0  0.87942  0.51398  0.26582  1.0000
  H   H1299     1.0  0.69101  0.66590  0.99808  1.0000
  H   H1300     1.0  0.87209  0.52725  0.27204  1.0000
  C   C1096     1.0  0.81022  0.59949  0.15477  1.0000
  C   C1097     1.0  0.79849  0.60068  0.17271  1.0000
  C   C1098     1.0  0.80773  0.60247  0.19130  1.0000
  C   C1099     1.0  0.82883  0.60294  0.19242  1.0000
  C   C1100     1.0  0.84058  0.60130  0.17455  1.0000
  C   C1101     1.0  0.83134  0.59971  0.15593  1.0000
  H   H1301     1.0  0.78229  0.60049  0.17227  1.0000
  H   H1302     1.0  0.79840  0.60371  0.20494  1.0000
  H   H1303     1.0  0.85679  0.60171  0.17498  1.0000
  H   H1304     1.0  0.84065  0.59885  0.14224  1.0000
  C   C1102     1.0  0.73907  0.60454  0.01321  1.0000
  C   C1103     1.0  0.75465  0.59002  0.01578  1.0000
  C   C1104     1.0  0.90704  0.49801  0.24699  1.0000
  H   H1305     1.0  0.73222  0.61174  0.02620  1.0000
  H   H1306     1.0  0.91709  0.70761  0.46707  1.0000
  C   C1105     1.0  0.71753  0.51430  0.11760  1.0000
  C   C1106     1.0  0.70046  0.50433  0.12495  1.0000
  C   C1107     1.0  0.76343  0.58088  0.99864  1.0000
  H   H1307     1.0  0.68743  0.51297  0.13056  1.0000
  H   H1308     1.0  0.76701  0.65872  0.18218  1.0000
  C   C1108     1.0  0.64937  0.67948  0.10914  1.0000
  C   C1109     1.0  0.66679  0.69051  0.10584  1.0000
  C   C1110     1.0  0.68600  0.68053  0.10462  1.0000
  C   C1111     1.0  0.68825  0.65937  0.10652  1.0000
  C   C1112     1.0  0.67084  0.64836  0.10977  1.0000
  C   C1113     1.0  0.65164  0.65835  0.11122  1.0000
  H   H1309     1.0  0.66549  0.70673  0.10432  1.0000
  H   H1310     1.0  0.69927  0.68930  0.10209  1.0000
  H   H1311     1.0  0.67216  0.63213  0.11140  1.0000
  H   H1312     1.0  0.63841  0.64956  0.11393  1.0000
  H   H1313     1.0  0.76112  0.54204  0.03156  1.0000
  C   C1114     1.0  0.96034  0.55824  0.22415  1.0000
  C   C1115     1.0  0.69559  0.65609  0.02872  1.0000
  C   C1116     1.0  0.95064  0.69841  0.28451  1.0000
  H   H1314     1.0  0.75070  0.52992  0.07548  1.0000
  H   H1315     1.0  0.98315  0.73266  0.34188  1.0000
  H   H1316     1.0  0.94378  0.55639  0.22609  1.0000
  C   C1117     1.0  0.96527  0.65057  0.26889  1.0000
  H   H1317     1.0  0.72671  0.55094  0.02923  1.0000
  C   C1118     1.0  0.94010  0.68859  0.30029  1.0000
  H   H1318     1.0  0.72468  0.53780  0.07460  1.0000
  C   C1119     1.0  0.75834  0.63895  0.14531  1.0000
  H   H1319     1.0  0.76803  0.65549  0.10913  1.0000
  H   H1320     1.0  0.76680  0.62419  0.14503  1.0000
  H   H1321     1.0  0.74654  0.63888  0.13392  1.0000
  N   N71       1.0  0.63938  0.68808  0.04351  1.0000
  C   C1120     1.0  0.62588  0.67500  0.05613  1.0000
  C   C1121     1.0  0.64402  0.70564  0.05517  1.0000
  C   C1122     1.0  0.62796  0.69570  0.02587  1.0000
  C   C1123     1.0  0.65843  0.67692  0.03804  1.0000
  C   C1124     1.0  0.66661  0.67641  0.01795  1.0000
  C   C1125     1.0  0.66990  0.66686  0.05319  1.0000
  H   H1322     1.0  0.86479  0.68481  0.47552  1.0000
  C   C1126     1.0  0.68812  0.65656  0.04856  1.0000
  H   H1323     1.0  0.93053  0.67635  0.29722  1.0000
  H   H1324     1.0  0.62321  0.66081  0.04860  1.0000
  H   H1325     1.0  0.63193  0.67088  0.07112  1.0000
  H   H1326     1.0  0.61099  0.68266  0.05954  1.0000
  H   H1327     1.0  0.93062  0.72918  0.43899  1.0000
  H   H1328     1.0  0.65389  0.71610  0.04621  1.0000
  H   H1329     1.0  0.65167  0.70114  0.06922  1.0000
  H   H1330     1.0  0.62428  0.68328  0.01619  1.0000
  C   C1127     1.0  0.94408  0.70575  0.36079  1.0000
  H   H1331     1.0  0.63629  0.70730  0.01673  1.0000
  H   H1332     1.0  0.93249  0.68667  0.33139  1.0000
  H   H1333     1.0  0.66502  0.66709  0.06885  1.0000
  H   H1334     1.0  0.94562  0.71158  0.37611  1.0000
  H   H1335     1.0  0.74786  0.51003  0.10531  1.0000
  C   C1128     1.0  0.66435  0.73865  0.15915  1.0000
  H   H1336     1.0  0.70743  0.53755  0.04264  1.0000
  N   N72       1.0  0.77210  0.65571  0.14118  1.0000
  H   H1337     1.0  0.75183  0.67650  0.15701  1.0000
  C   C1129     1.0  0.80867  0.65135  0.15113  1.0000
  H   H1338     1.0  0.92104  0.49899  0.23823  1.0000
  H   H1339     1.0  0.71988  0.52689  0.02081  1.0000
  C   C1130     1.0  0.73909  0.53682  0.06555  1.0000
  Fe  Fe154     1.0  0.88666  0.73196  0.37087  1.0000
  C   C1131     1.0  0.96253  0.71443  0.28839  1.0000
  H   H1340     1.0  0.70981  0.64817  0.02520  1.0000
  N   N73       1.0  0.84628  0.67948  0.39375  1.0000
  C   C1132     1.0  0.86670  0.68755  0.39265  1.0000
  C   C1133     1.0  0.83124  0.69660  0.39403  1.0000
  C   C1134     1.0  0.84385  0.66801  0.41330  1.0000
  C   C1135     1.0  0.84395  0.66728  0.37595  1.0000
  C   C1136     1.0  0.84311  0.64594  0.37728  1.0000
  C   C1137     1.0  0.84391  0.67658  0.35635  1.0000
  C   C1138     1.0  0.84248  0.63477  0.35997  1.0000
  C   C1139     1.0  0.84306  0.66527  0.33921  1.0000
  C   C1140     1.0  0.84257  0.64441  0.34099  1.0000
  H   H1341     1.0  0.86921  0.69752  0.37903  1.0000
  H   H1342     1.0  0.86931  0.69656  0.40592  1.0000
  H   H1343     1.0  0.87850  0.67524  0.39214  1.0000
  H   H1344     1.0  0.83357  0.70759  0.38119  1.0000
  H   H1345     1.0  0.83215  0.70547  0.40781  1.0000
  H   H1346     1.0  0.81566  0.69124  0.39355  1.0000
  H   H1347     1.0  0.85589  0.65605  0.41511  1.0000
  H   H1348     1.0  0.84509  0.67790  0.42631  1.0000
  H   H1349     1.0  0.82888  0.66115  0.41493  1.0000
  H   H1350     1.0  0.84334  0.63747  0.39144  1.0000
  H   H1351     1.0  0.84548  0.69262  0.35396  1.0000
  H   H1352     1.0  0.84234  0.61849  0.36120  1.0000
  H   H1353     1.0  0.84372  0.67269  0.32437  1.0000
  H   H1354     1.0  0.84279  0.63568  0.32756  1.0000
  N   N74       1.0  0.84830  0.54091  0.21465  1.0000
  C   C1141     1.0  0.85004  0.54913  0.23482  1.0000
  C   C1142     1.0  0.86279  0.55146  0.20070  1.0000
  C   C1143     1.0  0.82779  0.54602  0.20758  1.0000
  C   C1144     1.0  0.85182  0.51878  0.21588  1.0000
  C   C1145     1.0  0.83866  0.50652  0.22792  1.0000
  H   H1355     1.0  0.95900  0.65562  0.23766  1.0000
  Fe  Fe155     1.0  0.88017  0.73369  0.41720  1.0000
  H   H1356     1.0  0.87943  0.51677  0.19658  1.0000
  H   H1357     1.0  0.86552  0.54638  0.24027  1.0000
  H   H1358     1.0  0.94988  0.64699  0.27323  1.0000
  H   H1359     1.0  0.97644  0.72417  0.36664  1.0000
  H   H1360     1.0  0.77559  0.56974  0.00040  1.0000
  H   H1361     1.0  0.87851  0.54917  0.20571  1.0000
  H   H1362     1.0  0.85964  0.56805  0.20013  1.0000
  H   H1363     1.0  0.86201  0.54643  0.18504  1.0000
  H   H1364     1.0  0.63127  0.73374  0.13773  1.0000
  H   H1365     1.0  0.82499  0.56259  0.20579  1.0000
  H   H1366     1.0  0.82559  0.53951  0.19274  1.0000
  H   H1367     1.0  0.82620  0.51304  0.23668  1.0000
  C   C1146     1.0  0.97042  0.65555  0.24886  1.0000
  C   C1147     1.0  0.99034  0.65951  0.24294  1.0000
  N   N75       1.0  0.73761  0.52529  0.04714  1.0000
  H   H1368     1.0  0.96954  0.54862  0.27341  1.0000
  H   H1369     1.0  0.63011  0.71440  0.05970  1.0000
  H   H1370     1.0  0.94675  0.55576  0.26158  1.0000
  C   C1148     1.0  0.81734  0.65244  0.18603  1.0000
  H   H1371     1.0  0.52189  0.71094  0.09965  1.0000
  H   H1372     1.0  0.84679  0.56568  0.23457  1.0000
  H   H1373     1.0  0.61343  0.70344  0.03059  1.0000
  H   H1374     1.0  0.70309  0.51352  0.06780  1.0000
  N   N76       1.0  0.95411  0.71874  0.34500  1.0000
  H   H1375     1.0  0.96245  0.57475  0.22345  1.0000
  C   C1149     1.0  0.75729  0.52624  0.03577  1.0000
  C   C1150     1.0  0.94136  0.69473  0.32001  1.0000
  H   H1376     1.0  0.81579  0.54060  0.21832  1.0000
  C   C1151     1.0  0.87109  0.49497  0.26974  1.0000
  H   H1377     1.0  0.83882  0.64727  0.16168  1.0000
  C   C1152     1.0  0.72221  0.53553  0.03441  1.0000
  C   C1153     1.0  0.78254  0.65668  0.17703  1.0000
  H   H1378     1.0  0.96506  0.55207  0.20934  1.0000
  C   C1154     1.0  0.98073  0.62525  0.19617  1.0000
  C   C1155     1.0  0.73437  0.50266  0.11058  1.0000
  N   N77       1.0  0.97141  0.54795  0.24085  1.0000
  C   C1156     1.0  0.96669  0.52634  0.24118  1.0000
  C   C1157     1.0  0.50861  0.72055  0.09746  1.0000
  C   C1158     1.0  0.86829  0.50877  0.20563  1.0000
  C   C1159     1.0  0.79710  0.65555  0.19162  1.0000
  C   C1160     1.0  0.78023  0.65424  0.12013  1.0000
  H   H1379     1.0  0.96710  0.57275  0.26047  1.0000
  C   C1161     1.0  0.76021  0.67501  0.14233  1.0000
  H   H1380     1.0  0.66683  0.72608  0.14865  1.0000
  H   H1381     1.0  0.79076  0.66642  0.11596  1.0000
  H   H1382     1.0  0.77015  0.68803  0.14009  1.0000
  H   H1383     1.0  0.81419  0.64878  0.13593  1.0000
  H   H1384     1.0  0.75032  0.63974  0.16024  1.0000
  H   H1385     1.0  0.74325  0.55257  0.06185  1.0000
  H   H1386     1.0  0.74864  0.67639  0.13065  1.0000
  H   H1387     1.0  0.78823  0.63944  0.11774  1.0000
  H   H1388     1.0  0.95015  0.52424  0.24184  1.0000
  C   C1162     1.0  0.97535  0.72044  0.35057  1.0000
  C   C1163     1.0  0.94384  0.73889  0.34536  1.0000
  C   C1164     1.0  0.96343  0.55663  0.25990  1.0000
  H   H1389     1.0  0.83946  0.54239  0.24631  1.0000
  C   C1165     1.0  0.82311  0.65039  0.16585  1.0000
  C   C1166     1.0  0.97995  0.64993  0.28321  1.0000
  C   C1167     1.0  0.71310  0.50112  0.06338  1.0000
  H   H1390     1.0  0.79269  0.65663  0.20743  1.0000
  H   H1391     1.0  0.85720  0.49384  0.27869  1.0000
  C   C1168     1.0  0.87659  0.73353  0.47990  1.0000
  H   H1392     1.0  0.94937  0.69376  0.26922  1.0000
  H   H1393     1.0  0.69661  0.64909  0.06052  1.0000
  H   H1394     1.0  0.65417  0.63375  0.99597  1.0000
  H   H1395     1.0  0.65931  0.68404  0.00547  1.0000
  H   H1396     1.0  0.75716  0.51824  0.02145  1.0000
  H   H1397     1.0  0.97315  0.51904  0.22748  1.0000
  C   C1169     1.0  0.86859  0.69847  0.48247  1.0000
  H   H1398     1.0  0.72099  0.62167  0.99186  1.0000
  C   C1170     1.0  0.87180  0.71590  0.47046  1.0000
  S   S309      1.0  0.86888  0.71419  0.44404  1.0000
  C   C1171     1.0  0.93237  0.73321  0.45442  1.0000
  H   H1399     1.0  0.97271  0.73365  0.31025  1.0000
  H   H1400     1.0  0.98419  0.70610  0.34835  1.0000
  H   H1401     1.0  0.97261  0.51780  0.25450  1.0000
  C   C1172     1.0  0.73272  0.61012  0.99370  1.0000
  H   H1402     1.0  0.92806  0.73832  0.34045  1.0000
  H   H1403     1.0  0.97589  0.64598  0.29879  1.0000
  H   H1404     1.0  0.62414  0.73939  0.16307  1.0000
  S   S310      1.0  0.58683  0.70986  0.90342  1.0000
  H   H1405     1.0  0.71760  0.51300  0.84086  1.0000
  H   H1406     1.0  0.97896  0.56212  0.71652  1.0000
  S   S311      1.0  0.53941  0.70664  0.87098  1.0000
  Fe  Fe156     1.0  0.61309  0.72041  0.88374  1.0000
  S   S312      1.0  0.64465  0.70443  0.88431  1.0000
  Fe  Fe157     1.0  0.71836  0.60469  0.88192  1.0000
  S   S313      1.0  0.74281  0.62136  0.89520  1.0000
  S   S314      1.0  0.69000  0.61900  0.86787  1.0000
  Fe  Fe158     1.0  0.74019  0.56339  0.89104  1.0000
  S   S315      1.0  0.76542  0.57803  0.90580  1.0000
  S   S316      1.0  0.74490  0.53034  0.88317  1.0000
  Fe  Fe159     1.0  0.74100  0.59772  0.92062  1.0000
  S   S317      1.0  0.73332  0.60919  0.95228  1.0000
  Fe  Fe160     1.0  0.76488  0.60004  0.87895  1.0000
  S   S318      1.0  0.79415  0.61018  0.86203  1.0000
  S   S319      1.0  0.71582  0.58152  0.90747  1.0000
  S   S320      1.0  0.74035  0.58496  0.86401  1.0000
  H   H1407     1.0  0.87438  0.69535  0.57904  1.0000
  S   S321      1.0  0.90908  0.72600  0.58504  1.0000
  H   H1408     1.0  0.88891  0.51519  0.78048  1.0000
  S   S322      1.0  0.87708  0.71351  0.53970  1.0000
  H   H1409     1.0  0.95602  0.55096  0.72558  1.0000
  S   S323      1.0  0.88267  0.71305  0.64120  1.0000
  Fe  Fe161     1.0  0.90224  0.56825  0.73889  1.0000
  S   S324      1.0  0.89978  0.58173  0.76942  1.0000
  S   S325      1.0  0.91544  0.53586  0.73848  1.0000
  Fe  Fe162     1.0  0.89222  0.60988  0.71707  1.0000
  S   S326      1.0  0.88837  0.62519  0.74659  1.0000
  S   S327      1.0  0.89439  0.62544  0.68530  1.0000
  Fe  Fe163     1.0  0.91681  0.60734  0.75456  1.0000
  S   S328      1.0  0.94257  0.62335  0.76761  1.0000
  Fe  Fe164     1.0  0.87155  0.59805  0.75882  1.0000
  S   S329      1.0  0.84035  0.59672  0.77596  1.0000
  S   S330      1.0  0.92110  0.59299  0.72503  1.0000
  S   S331      1.0  0.87351  0.58356  0.72834  1.0000
  C   C1173     1.0  0.96919  0.62367  0.76323  1.0000
  C   C1174     1.0  0.87493  0.49342  0.72712  1.0000
  C   C1175     1.0  0.67555  0.63361  0.97092  1.0000
  H   H1410     1.0  0.97115  0.64631  0.78510  1.0000
  H   H1411     1.0  0.93765  0.72110  0.53046  1.0000
  C   C1176     1.0  0.88390  0.51207  0.72888  1.0000
  C   C1177     1.0  0.90364  0.51271  0.73515  1.0000
  H   H1412     1.0  0.73727  0.62823  0.82545  1.0000
  H   H1413     1.0  0.87561  0.52591  0.72515  1.0000
  H   H1414     1.0  0.75182  0.64312  0.79655  1.0000
  C   C1178     1.0  0.88665  0.68862  0.65323  1.0000
  C   C1179     1.0  0.87960  0.68538  0.67335  1.0000
  C   C1180     1.0  0.88210  0.66639  0.68353  1.0000
  C   C1181     1.0  0.89176  0.65023  0.67375  1.0000
  C   C1182     1.0  0.89901  0.65352  0.65371  1.0000
  C   C1183     1.0  0.89650  0.67250  0.64352  1.0000
  H   H1415     1.0  0.87197  0.69765  0.68109  1.0000
  H   H1416     1.0  0.87616  0.66420  0.69881  1.0000
  H   H1417     1.0  0.90648  0.64121  0.64590  1.0000
  H   H1418     1.0  0.90234  0.67461  0.62823  1.0000
  H   H1419     1.0  0.77947  0.63842  0.77163  1.0000
  C   C1184     1.0  0.87499  0.71575  0.51302  1.0000
  C   C1185     1.0  0.86856  0.62530  0.62270  1.0000
  C   C1186     1.0  0.96523  0.55893  0.76430  1.0000
  C   C1187     1.0  0.80712  0.60470  0.83847  1.0000
  C   C1188     1.0  0.79753  0.59676  0.82240  1.0000
  C   C1189     1.0  0.80800  0.59429  0.80360  1.0000
  C   C1190     1.0  0.82830  0.59944  0.80049  1.0000
  C   C1191     1.0  0.83801  0.60695  0.81669  1.0000
  C   C1192     1.0  0.82746  0.60969  0.83541  1.0000
  H   H1420     1.0  0.78192  0.59296  0.82429  1.0000
  H   H1421     1.0  0.80018  0.58859  0.79126  1.0000
  H   H1422     1.0  0.85355  0.61106  0.81472  1.0000
  H   H1423     1.0  0.83511  0.61591  0.84760  1.0000
  C   C1193     1.0  0.74163  0.60109  0.97653  1.0000
  H   H1424     1.0  0.70938  0.56711  0.83864  1.0000
  H   H1425     1.0  0.85002  0.53497  0.75110  1.0000
  N   N78       1.0  0.85133  0.53392  0.78332  1.0000
  H   H1426     1.0  0.76403  0.57930  0.96615  1.0000
  H   H1427     1.0  0.62238  0.69175  0.96829  1.0000
  C   C1194     1.0  0.73392  0.50694  0.88960  1.0000
  H   H1428     1.0  0.84032  0.67539  0.63554  1.0000
  H   H1429     1.0  0.70881  0.51868  0.90756  1.0000
  H   H1430     1.0  0.87708  0.61143  0.61976  1.0000
  C   C1195     1.0  0.65685  0.68056  0.87927  1.0000
  C   C1196     1.0  0.67667  0.67667  0.88553  1.0000
  C   C1197     1.0  0.68680  0.65784  0.88265  1.0000
  C   C1198     1.0  0.67743  0.64267  0.87303  1.0000
  C   C1199     1.0  0.65767  0.64660  0.86665  1.0000
  C   C1200     1.0  0.64737  0.66529  0.86992  1.0000
  H   H1431     1.0  0.68425  0.68831  0.89273  1.0000
  H   H1432     1.0  0.70198  0.65520  0.88762  1.0000
  H   H1433     1.0  0.65023  0.63510  0.85909  1.0000
  H   H1434     1.0  0.63218  0.66794  0.86499  1.0000
  C   C1201     1.0  0.51434  0.71701  0.87248  1.0000
  C   C1202     1.0  0.97264  0.51920  0.74511  1.0000
  H   H1435     1.0  0.64037  0.66328  0.91349  1.0000
  H   H1436     1.0  0.92039  0.71629  0.50168  1.0000
  H   H1437     1.0  0.85959  0.49313  0.72241  1.0000
  N   N79       1.0  0.94042  0.66122  0.71332  1.0000
  C   C1203     1.0  0.94671  0.64002  0.70944  1.0000
  C   C1204     1.0  0.95541  0.66932  0.72638  1.0000
  C   C1205     1.0  0.92071  0.66085  0.72458  1.0000
  N   N80       1.0  0.69032  0.54452  0.85262  1.0000
  C   C1206     1.0  0.93514  0.69979  0.65977  1.0000
  C   C1207     1.0  0.69091  0.55351  0.87257  1.0000
  H   H1438     1.0  0.60816  0.69582  0.94624  1.0000
  C   C1208     1.0  0.86679  0.64044  0.60758  1.0000
  S   S332      1.0  0.86129  0.73776  0.59108  1.0000
  H   H1439     1.0  0.96198  0.63883  0.70203  1.0000
  H   H1440     1.0  0.94739  0.63064  0.72367  1.0000
  C   C1209     1.0  0.67269  0.55347  0.84205  1.0000
  H   H1441     1.0  0.97040  0.67015  0.71841  1.0000
  H   H1442     1.0  0.95731  0.65968  0.74034  1.0000
  H   H1443     1.0  0.95089  0.68461  0.73141  1.0000
  H   H1444     1.0  0.90906  0.65466  0.71534  1.0000
  H   H1445     1.0  0.92166  0.65134  0.73871  1.0000
  H   H1446     1.0  0.91512  0.67593  0.72924  1.0000
  C   C1210     1.0  0.51022  0.73731  0.87623  1.0000
  H   H1447     1.0  0.65834  0.55162  0.85095  1.0000
  C   C1211     1.0  0.83982  0.69142  0.60006  1.0000
  H   H1448     1.0  0.87943  0.69079  0.60508  1.0000
  H   H1449     1.0  0.88641  0.67211  0.58715  1.0000
  H   H1450     1.0  0.77063  0.64736  0.86301  1.0000
  C   C1212     1.0  0.64673  0.69583  0.93551  1.0000
  H   H1451     1.0  0.83419  0.65839  0.57829  1.0000
  H   H1452     1.0  0.94565  0.67419  0.64327  1.0000
  H   H1453     1.0  0.86790  0.68458  0.51220  1.0000
  H   H1454     1.0  0.86186  0.61669  0.65373  1.0000
  C   C1213     1.0  0.78259  0.64288  0.78663  1.0000
  C   C1214     1.0  0.80242  0.64535  0.79159  1.0000
  N   N81       1.0  0.75376  0.65275  0.83616  1.0000
  H   H1455     1.0  0.76752  0.67355  0.85491  1.0000
  Fe  Fe165     1.0  0.88731  0.73176  0.61126  1.0000
  H   H1456     1.0  0.73135  0.66363  0.81521  1.0000
  N   N82       1.0  0.85459  0.67485  0.59500  1.0000
  H   H1457     1.0  0.82395  0.53257  0.80181  1.0000
  H   H1458     1.0  0.84481  0.70029  0.61266  1.0000
  C   C1215     1.0  0.74413  0.63313  0.83925  1.0000
  H   H1459     1.0  0.85798  0.56027  0.79936  1.0000
  H   H1460     1.0  0.70922  0.54426  0.82544  1.0000
  C   C1216     1.0  0.73852  0.66802  0.82905  1.0000
  C   C1217     1.0  0.93007  0.70713  0.67866  1.0000
  H   H1461     1.0  0.83790  0.70244  0.58715  1.0000
  C   C1218     1.0  0.85636  0.51202  0.78387  1.0000
  H   H1462     1.0  0.75545  0.62119  0.84380  1.0000
  C   C1219     1.0  0.86232  0.54392  0.79882  1.0000
  C   C1220     1.0  0.70363  0.50842  0.84816  1.0000
  H   H1463     1.0  0.74540  0.68281  0.82573  1.0000
  H   H1464     1.0  0.87888  0.54322  0.79584  1.0000
  C   C1221     1.0  0.76010  0.65886  0.85609  1.0000
  H   H1465     1.0  0.74708  0.66048  0.86706  1.0000
  H   H1466     1.0  0.72597  0.67027  0.84050  1.0000
  H   H1467     1.0  0.73182  0.63362  0.85115  1.0000
  N   N83       1.0  0.63559  0.67763  0.94195  1.0000
  C   C1222     1.0  0.65783  0.64007  0.98104  1.0000
  C   C1223     1.0  0.61781  0.68443  0.95456  1.0000
  C   C1224     1.0  0.98354  0.55147  0.75508  1.0000
  C   C1225     1.0  0.64921  0.66279  0.95233  1.0000
  C   C1226     1.0  0.85990  0.62817  0.64184  1.0000
  C   C1227     1.0  0.64478  0.65446  0.97198  1.0000
  C   C1228     1.0  0.66738  0.65578  0.94246  1.0000
  H   H1468     1.0  0.97250  0.50816  0.73301  1.0000
  H   H1469     1.0  0.65895  0.69264  0.92407  1.0000
  H   H1470     1.0  0.61885  0.65527  0.92813  1.0000
  C   C1229     1.0  0.68032  0.64147  0.95169  1.0000
  H   H1471     1.0  0.92793  0.70112  0.71023  1.0000
  H   H1472     1.0  0.67162  0.66107  0.92734  1.0000
  H   H1473     1.0  0.84371  0.64872  0.66116  1.0000
  H   H1474     1.0  0.61856  0.67949  0.91498  1.0000
  H   H1475     1.0  0.95658  0.52243  0.74964  1.0000
  C   C1230     1.0  0.77062  0.65080  0.82098  1.0000
  C   C1231     1.0  0.71614  0.50535  0.90148  1.0000
  C   C1232     1.0  0.70869  0.55046  0.84072  1.0000
  C   C1233     1.0  0.87032  0.69836  0.50339  1.0000
  H   H1476     1.0  0.92978  0.49465  0.74373  1.0000
  H   H1477     1.0  0.94871  0.65180  0.67269  1.0000
  H   H1478     1.0  0.70382  0.54695  0.88108  1.0000
  C   C1234     1.0  0.82953  0.53891  0.78696  1.0000
  C   C1235     1.0  0.85738  0.54260  0.76323  1.0000
  H   H1479     1.0  0.82640  0.55548  0.78705  1.0000
  H   H1480     1.0  0.82038  0.53342  0.77486  1.0000
  Fe  Fe166     1.0  0.88341  0.73444  0.56483  1.0000
  H   H1481     1.0  0.85313  0.55890  0.76174  1.0000
  H   H1482     1.0  0.69254  0.57012  0.87115  1.0000
  C   C1236     1.0  0.84843  0.66653  0.57593  1.0000
  C   C1237     1.0  0.93874  0.67419  0.69477  1.0000
  C   C1238     1.0  0.79105  0.65321  0.82553  1.0000
  H   H1483     1.0  0.93577  0.63289  0.69999  1.0000
  H   H1484     1.0  0.82470  0.68559  0.60417  1.0000
  H   H1485     1.0  0.79557  0.65634  0.84043  1.0000
  H   H1486     1.0  0.97263  0.60133  0.74064  1.0000
  H   H1487     1.0  0.72263  0.54531  0.84845  1.0000
  H   H1488     1.0  0.87438  0.63773  0.59324  1.0000
  H   H1489     1.0  0.50114  0.68884  0.86697  1.0000
  Fe  Fe167     1.0  0.56717  0.72322  0.87904  1.0000
  H   H1490     1.0  0.93308  0.70940  0.64637  1.0000
  C   C1239     1.0  0.80661  0.65062  0.81094  1.0000
  H   H1491     1.0  0.81464  0.64259  0.78061  1.0000
  C   C1240     1.0  0.87458  0.68360  0.59141  1.0000
  C   C1241     1.0  0.85598  0.65888  0.61114  1.0000
  H   H1492     1.0  0.82213  0.65190  0.81490  1.0000
  H   H1493     1.0  0.85914  0.53696  0.81406  1.0000
  S   S333      1.0  0.59358  0.73159  0.85804  1.0000
  H   H1494     1.0  0.68561  0.62236  0.97785  1.0000
  C   C1242     1.0  0.76689  0.64559  0.80103  1.0000
  H   H1495     1.0  0.69409  0.63623  0.94382  1.0000
  C   C1243     1.0  0.62800  0.66853  0.92393  1.0000
  H   H1496     1.0  0.96879  0.73827  0.51691  1.0000
  C   C1244     1.0  0.97945  0.63695  0.77444  1.0000
  C   C1245     1.0  0.68855  0.52245  0.85532  1.0000
  H   H1497     1.0  0.51129  0.71406  0.91600  1.0000
  H   H1498     1.0  0.95080  0.55473  0.75926  1.0000
  H   H1499     1.0  0.67705  0.55097  0.88206  1.0000
  C   C1246     1.0  0.67140  0.51436  0.86566  1.0000
  H   H1500     1.0  0.86008  0.65612  0.56924  1.0000
  C   C1247     1.0  0.49812  0.70456  0.86992  1.0000
  H   H1501     1.0  0.82554  0.50111  0.78585  1.0000
  C   C1248     1.0  0.94217  0.67992  0.65807  1.0000
  H   H1502     1.0  0.63675  0.70762  0.92824  1.0000
  C   C1249     1.0  0.93202  0.69465  0.69594  1.0000
  H   H1503     1.0  0.67118  0.54644  0.82733  1.0000
  C   C1250     1.0  0.96513  0.57225  0.77999  1.0000
  C   C1251     1.0  0.87803  0.73350  0.50120  1.0000
  H   H1504     1.0  0.95096  0.57826  0.78638  1.0000
  H   H1505     1.0  0.87392  0.54116  0.76013  1.0000
  H   H1506     1.0  0.84605  0.67862  0.56402  1.0000
  H   H1507     1.0  0.65955  0.52404  0.87195  1.0000
  C   C1252     1.0  0.84775  0.66149  0.63100  1.0000
  H   H1508     1.0  0.67398  0.57000  0.83912  1.0000
  C   C1253     1.0  0.84961  0.64624  0.64598  1.0000
  H   H1509     1.0  0.63123  0.65862  0.98054  1.0000
  C   C1254     1.0  0.94384  0.66718  0.67523  1.0000
  H   H1510     1.0  0.65357  0.70256  0.94848  1.0000
  C   C1255     1.0  0.75693  0.58629  0.97916  1.0000
  H   H1511     1.0  0.60788  0.67181  0.95898  1.0000
  C   C1256     1.0  0.97215  0.54763  0.72142  1.0000
  C   C1257     1.0  0.98032  0.61171  0.74939  1.0000
  H   H1512     1.0  0.92421  0.72251  0.67980  1.0000
  C   C1258     1.0  0.87675  0.50490  0.78221  1.0000
  C   C1259     1.0  0.91445  0.49442  0.73904  1.0000
  C   C1260     1.0  0.93004  0.73625  0.53122  1.0000
  C   C1261     1.0  0.84144  0.49726  0.78485  1.0000
  H   H1513     1.0  0.97998  0.51163  0.75828  1.0000
  C   C1262     1.0  0.66939  0.49359  0.86845  1.0000
  H   H1514     1.0  0.98301  0.58926  0.79879  1.0000
  N   N84       1.0  0.98317  0.53763  0.73825  1.0000
  C   C1263     1.0  0.98317  0.57847  0.78702  1.0000
  C   C1264     1.0  0.92689  0.72628  0.49020  1.0000
  C   C1265     1.0  0.50171  0.72253  0.92652  1.0000
  H   H1515     1.0  0.97221  0.53799  0.70814  1.0000
  H   H1516     1.0  0.91358  0.73477  0.52977  1.0000
  C   C1266     1.0  0.51033  0.73542  0.93933  1.0000
  H   H1517     1.0  0.52655  0.73685  0.93885  1.0000
  H   H1518     1.0  0.75700  0.49043  0.87270  1.0000
  C   C1267     1.0  0.52293  0.80781  0.11546  1.0000
  H   H1519     1.0  0.49351  0.84183  0.17694  1.0000
  Fe  Fe168     1.0  0.60336  0.76720  0.10601  1.0000
  S   S334      1.0  0.61119  0.79606  0.12161  1.0000
  H   H1520     1.0  0.64597  0.97506  0.28722  1.0000
  S   S335      1.0  0.58384  0.77064  0.07921  1.0000
  Fe  Fe169     1.0  0.59660  0.87103  0.22095  1.0000
  S   S336      1.0  0.59009  0.86799  0.25463  1.0000
  S   S337      1.0  0.59460  0.84070  0.20519  1.0000
  Fe  Fe170     1.0  0.60029  0.91738  0.22416  1.0000
  S   S338      1.0  0.59450  0.91657  0.25756  1.0000
  S   S339      1.0  0.60280  0.94669  0.20524  1.0000
  Fe  Fe171     1.0  0.61540  0.88906  0.25825  1.0000
  S   S340      1.0  0.64192  0.88090  0.27892  1.0000
  Fe  Fe172     1.0  0.56986  0.89574  0.25088  1.0000
  S   S341      1.0  0.53870  0.90372  0.26460  1.0000
  S   S342      1.0  0.62285  0.89091  0.22471  1.0000
  S   S343      1.0  0.57477  0.89768  0.21741  1.0000
  S   S344      1.0  0.89386  0.76364  0.41818  1.0000
  S   S345      1.0  0.90039  0.76261  0.36904  1.0000
  H   H1521     1.0  0.52312  0.85654  0.19099  1.0000
  H   H1522     1.0  0.59975  0.97773  0.17546  1.0000
  Fe  Fe173     1.0  0.87522  0.77233  0.39115  1.0000
  S   S346      1.0  0.85906  0.80372  0.39236  1.0000
  Fe  Fe174     1.0  0.74635  0.92502  0.37432  1.0000
  S   S347      1.0  0.71845  0.92305  0.39403  1.0000
  S   S348      1.0  0.74984  0.95549  0.35769  1.0000
  Fe  Fe175     1.0  0.75606  0.87884  0.37966  1.0000
  S   S349      1.0  0.72762  0.87475  0.39907  1.0000
  S   S350      1.0  0.77440  0.84950  0.37263  1.0000
  Fe  Fe176     1.0  0.71209  0.89595  0.37630  1.0000
  S   S351      1.0  0.68033  0.89767  0.36336  1.0000
  Fe  Fe177     1.0  0.73667  0.90233  0.41445  1.0000
  S   S352      1.0  0.74299  0.90738  0.44744  1.0000
  S   S353      1.0  0.73979  0.89827  0.35619  1.0000
  S   S354      1.0  0.76542  0.90597  0.39552  1.0000
  C   C1268     1.0  0.59938  0.98503  0.18971  1.0000
  C   C1269     1.0  0.75113  0.97882  0.36957  1.0000
  C   C1270     1.0  0.69560  0.97166  0.46472  1.0000
  H   H1523     1.0  0.72973  0.93149  0.32854  1.0000
  H   H1524     1.0  0.76290  0.96619  0.39711  1.0000
  C   C1271     1.0  0.71567  0.88974  0.47523  1.0000
  C   C1272     1.0  0.73407  0.89898  0.47175  1.0000
  H   H1525     1.0  0.79895  0.86882  0.42732  1.0000
  H   H1526     1.0  0.70651  0.88692  0.46269  1.0000
  C   C1273     1.0  0.75844  0.97989  0.38886  1.0000
  C   C1274     1.0  0.83556  0.81622  0.38621  1.0000
  C   C1275     1.0  0.83168  0.83621  0.39194  1.0000
  C   C1276     1.0  0.81332  0.84673  0.38769  1.0000
  C   C1277     1.0  0.79838  0.83738  0.37769  1.0000
  C   C1278     1.0  0.80236  0.81748  0.37172  1.0000
  C   C1279     1.0  0.82075  0.80697  0.37593  1.0000
  H   H1527     1.0  0.84303  0.84365  0.39970  1.0000
  H   H1528     1.0  0.81086  0.86213  0.39197  1.0000
  H   H1529     1.0  0.79107  0.81007  0.36384  1.0000
  H   H1530     1.0  0.82345  0.79171  0.37123  1.0000
  H   H1531     1.0  0.70945  0.91594  0.32354  1.0000
  H   H1532     1.0  0.77536  0.82488  0.41612  1.0000
  C   C1280     1.0  0.97579  0.76858  0.37464  1.0000
  H   H1533     1.0  0.69417  0.91657  0.29287  1.0000
  C   C1281     1.0  0.55438  0.79560  0.12831  1.0000
  H   H1534     1.0  0.79813  0.86682  0.46476  1.0000
  C   C1282     1.0  0.65248  0.79166  0.15883  1.0000
  C   C1283     1.0  0.65318  0.88734  0.30166  1.0000
  C   C1284     1.0  0.64431  0.90136  0.31478  1.0000
  C   C1285     1.0  0.65302  0.90458  0.33335  1.0000
  C   C1286     1.0  0.67109  0.89441  0.33885  1.0000
  C   C1287     1.0  0.68042  0.88106  0.32532  1.0000
  C   C1288     1.0  0.67141  0.87741  0.30702  1.0000
  H   H1535     1.0  0.63049  0.90942  0.31085  1.0000
  H   H1536     1.0  0.64563  0.91498  0.34361  1.0000
  H   H1537     1.0  0.69422  0.87298  0.32928  1.0000
  H   H1538     1.0  0.67856  0.86663  0.29702  1.0000
  C   C1289     1.0  0.51599  0.89468  0.25600  1.0000
  C   C1290     1.0  0.61795  0.74410  0.99059  1.0000
  C   C1291     1.0  0.51603  0.87905  0.24262  1.0000
  H   H1539     1.0  0.61558  0.79021  0.00045  1.0000
  H   H1540     1.0  0.53017  0.87228  0.23716  1.0000
  C   C1292     1.0  0.60084  0.97334  0.20760  1.0000
  H   H1541     1.0  0.64317  0.94557  0.26622  1.0000
  H   H1542     1.0  0.70634  0.97999  0.31469  1.0000
  H   H1543     1.0  0.60160  0.97443  0.23992  1.0000
  H   H1544     1.0  0.52483  0.79641  0.10362  1.0000
  C   C1293     1.0  0.60572  0.80824  0.14488  1.0000
  C   C1294     1.0  0.61024  0.82864  0.14618  1.0000
  C   C1295     1.0  0.60679  0.83888  0.16431  1.0000
  C   C1296     1.0  0.59884  0.82884  0.18158  1.0000
  C   C1297     1.0  0.59419  0.80846  0.18024  1.0000
  C   C1298     1.0  0.59762  0.79821  0.16211  1.0000
  H   H1545     1.0  0.61658  0.83662  0.13306  1.0000
  H   H1546     1.0  0.61047  0.85450  0.16495  1.0000
  H   H1547     1.0  0.58809  0.80046  0.19346  1.0000
  H   H1548     1.0  0.59426  0.78252  0.16162  1.0000
  C   C1299     1.0  0.74571  0.90256  0.48827  1.0000
  H   H1549     1.0  0.62820  0.86578  0.33303  1.0000
  H   H1550     1.0  0.70666  0.94935  0.35029  1.0000
  H   H1551     1.0  0.83147  0.80529  0.46032  1.0000
  H   H1552     1.0  0.50647  0.81053  0.11802  1.0000
  H   H1553     1.0  0.94780  0.76010  0.44589  1.0000
  C   C1300     1.0  0.64825  0.77146  0.16487  1.0000
  H   H1554     1.0  0.63295  0.84194  0.30466  1.0000
  H   H1555     1.0  0.52960  0.92272  0.22201  1.0000
  H   H1556     1.0  0.55812  0.98901  0.21791  1.0000
  H   H1557     1.0  0.56574  0.95936  0.23447  1.0000
  H   H1558     1.0  0.81082  0.83504  0.46796  1.0000
  H   H1559     1.0  0.55560  0.78378  0.11690  1.0000
  H   H1560     1.0  0.77451  0.88087  0.43116  1.0000
  S   S355      1.0  0.95088  0.74868  0.40327  1.0000
  H   H1561     1.0  0.51135  0.93962  0.21092  1.0000
  C   C1301     1.0  0.51117  0.82296  0.15663  1.0000
  C   C1302     1.0  0.97431  0.75607  0.39204  1.0000
  C   C1303     1.0  0.94401  0.75616  0.47821  1.0000
  H   H1562     1.0  0.49779  0.81682  0.15106  1.0000
  H   H1563     1.0  0.54534  0.95228  0.25165  1.0000
  H   H1564     1.0  0.56237  0.80874  0.12143  1.0000
  C   C1304     1.0  0.49294  0.75353  0.09175  1.0000
  Fe  Fe178     1.0  0.91759  0.75164  0.39608  1.0000
  H   H1565     1.0  0.64807  0.77192  0.12290  1.0000
  N   N85       1.0  0.60580  0.84610  0.32329  1.0000
  C   C1305     1.0  0.61301  0.83067  0.33837  1.0000
  C   C1306     1.0  0.61627  0.84181  0.30373  1.0000
  C   C1307     1.0  0.61190  0.86594  0.32976  1.0000
  C   C1308     1.0  0.58375  0.84653  0.32089  1.0000
  C   C1309     1.0  0.57453  0.86126  0.30784  1.0000
  C   C1310     1.0  0.57091  0.83243  0.33096  1.0000
  C   C1311     1.0  0.55383  0.86182  0.30501  1.0000
  C   C1312     1.0  0.55017  0.83318  0.32803  1.0000
  C   C1313     1.0  0.54167  0.84782  0.31507  1.0000
  H   H1566     1.0  0.62961  0.83106  0.33993  1.0000
  H   H1567     1.0  0.61000  0.81519  0.33391  1.0000
  H   H1568     1.0  0.61227  0.82696  0.29832  1.0000
  H   H1569     1.0  0.61233  0.85323  0.29175  1.0000
  H   H1570     1.0  0.60321  0.87053  0.34359  1.0000
  H   H1571     1.0  0.60970  0.87803  0.31796  1.0000
  H   H1572     1.0  0.58327  0.87243  0.29956  1.0000
  H   H1573     1.0  0.57646  0.82066  0.34116  1.0000
  H   H1574     1.0  0.54715  0.87316  0.29487  1.0000
  H   H1575     1.0  0.54060  0.82231  0.33582  1.0000
  H   H1576     1.0  0.52562  0.84834  0.31274  1.0000
  N   N86       1.0  0.77822  0.85171  0.44610  1.0000
  C   C1314     1.0  0.52919  0.97467  0.22179  1.0000
  C   C1315     1.0  0.78256  0.86609  0.42905  1.0000
  C   C1316     1.0  0.75641  0.84767  0.44681  1.0000
  C   C1317     1.0  0.79041  0.83288  0.44305  1.0000
  C   C1318     1.0  0.66896  0.92972  0.27841  1.0000
  H   H1577     1.0  0.68553  0.96373  0.34113  1.0000
  H   H1578     1.0  0.66746  0.91673  0.26934  1.0000
  Fe  Fe179     1.0  0.60460  0.74833  0.06349  1.0000
  C   C1319     1.0  0.80674  0.82669  0.45531  1.0000
  C   C1320     1.0  0.78686  0.82070  0.42668  1.0000
  H   H1579     1.0  0.63294  0.78072  0.21376  1.0000
  C   C1321     1.0  0.78243  0.86166  0.46496  1.0000
  H   H1580     1.0  0.79600  0.79457  0.41006  1.0000
  H   H1581     1.0  0.67284  0.97604  0.31103  1.0000
  H   H1582     1.0  0.75127  0.84266  0.43224  1.0000
  H   H1583     1.0  0.72106  0.96525  0.29696  1.0000
  H   H1584     1.0  0.74697  0.86146  0.45012  1.0000
  H   H1585     1.0  0.63420  0.74339  0.99087  1.0000
  H   H1586     1.0  0.55508  0.93604  0.19900  1.0000
  C   C1322     1.0  0.63049  0.74600  0.14869  1.0000
  H   H1587     1.0  0.75272  0.83593  0.45863  1.0000
  H   H1588     1.0  0.77969  0.85151  0.47843  1.0000
  C   C1323     1.0  0.67222  0.96288  0.30214  1.0000
  N   N87       1.0  0.53306  0.80093  0.13409  1.0000
  C   C1324     1.0  0.52370  0.78230  0.14232  1.0000
  C   C1325     1.0  0.53067  0.81667  0.14921  1.0000
  H   H1589     1.0  0.61946  0.75782  0.14330  1.0000
  C   C1326     1.0  0.54729  0.82585  0.15731  1.0000
  C   C1327     1.0  0.64127  0.76794  0.18514  1.0000
  C   C1328     1.0  0.65676  0.96247  0.28858  1.0000
  H   H1590     1.0  0.49755  0.77180  0.19252  1.0000
  N   N88       1.0  0.65041  0.75463  0.15094  1.0000
  H   H1591     1.0  0.63738  0.75309  0.19074  1.0000
  C   C1329     1.0  0.58550  0.74749  0.00808  1.0000
  H   H1592     1.0  0.55850  0.93406  0.23651  1.0000
  H   H1593     1.0  0.56267  0.82238  0.15244  1.0000
  C   C1330     1.0  0.81877  0.80951  0.45115  1.0000
  H   H1594     1.0  0.51450  0.93856  0.23793  1.0000
  C   C1331     1.0  0.68821  0.98399  0.48001  1.0000
  C   C1332     1.0  0.52252  0.93816  0.22290  1.0000
  C   C1333     1.0  0.63871  0.78362  0.19848  1.0000
  C   C1334     1.0  0.65517  0.94593  0.27671  1.0000
  N   N89       1.0  0.70313  0.94774  0.31829  1.0000
  H   H1595     1.0  0.52927  0.82205  0.10909  1.0000
  H   H1596     1.0  0.77785  0.86055  0.41450  1.0000
  H   H1597     1.0  0.53788  0.95463  0.18809  1.0000
  H   H1598     1.0  0.56101  0.96177  0.19807  1.0000
  H   H1599     1.0  0.50713  0.78424  0.14458  1.0000
  H   H1600     1.0  0.70952  0.94287  0.45767  1.0000
  H   H1601     1.0  0.60592  0.83321  0.35355  1.0000
  H   H1602     1.0  0.55742  0.84656  0.17846  1.0000
  H   H1603     1.0  0.87901  0.74717  0.47086  1.0000
  H   H1604     1.0  0.53007  0.77736  0.15699  1.0000
  H   H1605     1.0  0.95145  0.76996  0.48043  1.0000
  C   C1335     1.0  0.71719  0.92984  0.31824  1.0000
  H   H1606     1.0  0.72439  0.92758  0.30307  1.0000
  C   C1336     1.0  0.68662  0.94666  0.30419  1.0000
  H   H1607     1.0  0.64043  0.81545  0.20226  1.0000
  H   H1608     1.0  0.57942  0.79423  0.99387  1.0000
  C   C1337     1.0  0.54831  0.95150  0.20056  1.0000
  C   C1338     1.0  0.50853  0.83722  0.17147  1.0000
  H   H1609     1.0  0.52629  0.76965  0.13199  1.0000
  H   H1610     1.0  0.75999  0.90965  0.48576  1.0000
  C   C1339     1.0  0.65841  0.76071  0.13049  1.0000
  H   H1611     1.0  0.56279  0.78950  0.14144  1.0000
  N   N90       1.0  0.53777  0.95387  0.22046  1.0000
  C   C1340     1.0  0.51048  0.74132  0.09441  1.0000
  H   H1612     1.0  0.72831  0.96636  0.32255  1.0000
  C   C1341     1.0  0.68438  0.92989  0.29203  1.0000
  C   C1342     1.0  0.71514  0.96561  0.31284  1.0000
  H   H1613     1.0  0.96229  0.77486  0.36794  1.0000
  C   C1343     1.0  0.69461  0.94955  0.33914  1.0000
  C   C1344     1.0  0.64304  0.80320  0.19209  1.0000
  C   C1345     1.0  0.55244  0.94985  0.23645  1.0000
  H   H1614     1.0  0.65268  0.82258  0.16730  1.0000
  H   H1615     1.0  0.67349  0.76725  0.13102  1.0000
  H   H1616     1.0  0.68475  0.93683  0.34346  1.0000
  C   C1346     1.0  0.64996  0.80718  0.17235  1.0000
  H   H1617     1.0  0.77259  0.87542  0.46702  1.0000
  C   C1347     1.0  0.60648  0.74635  0.00871  1.0000
  C   C1348     1.0  0.81486  0.79795  0.43493  1.0000
  S   S356      1.0  0.62614  0.74744  0.08891  1.0000
  S   S357      1.0  0.53403  0.75311  0.09471  1.0000
  H   H1618     1.0  0.95162  0.75015  0.33534  1.0000
  H   H1619     1.0  0.82462  0.78502  0.43135  1.0000
  Fe  Fe180     1.0  0.56767  0.74391  0.09293  1.0000
  C   C1349     1.0  0.70377  0.95258  0.46954  1.0000
  C   C1350     1.0  0.54448  0.83998  0.17226  1.0000
  S   S358      1.0  0.61903  0.74844  0.03155  1.0000
  C   C1351     1.0  0.79876  0.80338  0.42291  1.0000
  H   H1620     1.0  0.57646  0.74922  0.02185  1.0000
  C   C1352     1.0  0.49769  0.87168  0.23680  1.0000
  H   H1621     1.0  0.65712  0.79606  0.14359  1.0000
  S   S359      1.0  0.86038  0.74249  0.39119  1.0000
  C   C1353     1.0  0.52517  0.84561  0.17936  1.0000
  H   H1622     1.0  0.94319  0.74489  0.36074  1.0000
  C   C1354     1.0  0.49743  0.90326  0.26298  1.0000
  C   C1355     1.0  0.94199  0.75069  0.45837  1.0000
  H   H1623     1.0  0.49787  0.85921  0.22689  1.0000
  H   H1624     1.0  0.49416  0.76960  0.08926  1.0000
  H   H1625     1.0  0.69486  0.97676  0.44907  1.0000
  H   H1626     1.0  0.66010  0.74771  0.12047  1.0000
  C   C1356     1.0  0.50819  0.97919  0.22455  1.0000
  H   H1627     1.0  0.49723  0.91528  0.27343  1.0000
  C   C1357     1.0  0.60037  0.98321  0.22595  1.0000
  H   H1628     1.0  0.49721  0.96766  0.22567  1.0000
  H   H1629     1.0  0.67926  0.74478  0.16189  1.0000
  S   S360      1.0  0.58698  0.74097  0.12013  1.0000
  C   C1358     1.0  0.70435  0.94568  0.48961  1.0000
  C   C1359     1.0  0.73937  0.98729  0.58731  1.0000
  C   C1360     1.0  0.50085  0.95493  0.73539  1.0000
  Fe  Fe181     1.0  0.59125  0.76150  0.87306  1.0000
  S   S361      1.0  0.58986  0.79449  0.86069  1.0000
  S   S362      1.0  0.56398  0.75331  0.89254  1.0000
  S   S363      1.0  0.61237  0.75107  0.89753  1.0000
  Fe  Fe182     1.0  0.86829  0.77066  0.59000  1.0000
  S   S364      1.0  0.83841  0.78987  0.59221  1.0000
  Fe  Fe183     1.0  0.91389  0.75929  0.58421  1.0000
  S   S365      1.0  0.94480  0.77126  0.57427  1.0000
  S   S366      1.0  0.88916  0.76732  0.56247  1.0000
  S   S367      1.0  0.89347  0.76503  0.61174  1.0000
  Fe  Fe184     1.0  0.76123  0.89064  0.59074  1.0000
  S   S368      1.0  0.73288  0.87324  0.59144  1.0000
  S   S369      1.0  0.79357  0.87754  0.59471  1.0000
  Fe  Fe185     1.0  0.73738  0.93180  0.58455  1.0000
  S   S370      1.0  0.70785  0.91638  0.58506  1.0000
  S   S371      1.0  0.73444  0.96524  0.57455  1.0000
  Fe  Fe186     1.0  0.71893  0.89739  0.61141  1.0000
  S   S372      1.0  0.70425  0.89264  0.64340  1.0000
  Fe  Fe187     1.0  0.72436  0.89399  0.56508  1.0000
  S   S373      1.0  0.71010  0.88433  0.53656  1.0000
  S   S374      1.0  0.74795  0.91399  0.61190  1.0000
  S   S375      1.0  0.75325  0.91014  0.56341  1.0000
  Fe  Fe188     1.0  0.59374  0.87220  0.75862  1.0000
  S   S376      1.0  0.57750  0.86977  0.72976  1.0000
  S   S377      1.0  0.60191  0.84145  0.77448  1.0000
  Fe  Fe189     1.0  0.59484  0.91882  0.75163  1.0000
  S   S378      1.0  0.57887  0.91853  0.72267  1.0000
  S   S379      1.0  0.60178  0.94811  0.76638  1.0000
  Fe  Fe190     1.0  0.55824  0.89666  0.73919  1.0000
  S   S380      1.0  0.52431  0.90133  0.74647  1.0000
  Fe  Fe191     1.0  0.59986  0.89182  0.71580  1.0000
  S   S381      1.0  0.61487  0.88711  0.68417  1.0000
  S   S382      1.0  0.57358  0.89808  0.76860  1.0000
  S   S383      1.0  0.61690  0.89305  0.74416  1.0000
  C   C1361     1.0  0.59767  0.97321  0.75658  1.0000
  C   C1362     1.0  0.65392  0.84604  0.72550  1.0000
  H   H1630     1.0  0.50651  0.85501  0.76098  1.0000
  H   H1631     1.0  0.98564  0.79567  0.61310  1.0000
  H   H1632     1.0  0.78622  0.88131  0.63841  1.0000
  H   H1633     1.0  0.63864  0.80966  0.73742  1.0000
  C   C1363     1.0  0.92770  0.77030  0.51822  1.0000
  H   H1634     1.0  0.55207  0.96197  0.72525  1.0000
  C   C1364     1.0  0.59928  0.98940  0.76929  1.0000
  H   H1635     1.0  0.51374  0.88815  0.70658  1.0000
  C   C1365     1.0  0.67888  0.89296  0.65386  1.0000
  C   C1366     1.0  0.66241  0.88829  0.64275  1.0000
  C   C1367     1.0  0.64299  0.88696  0.65219  1.0000
  C   C1368     1.0  0.63952  0.89061  0.67280  1.0000
  C   C1369     1.0  0.65588  0.89582  0.68379  1.0000
  C   C1370     1.0  0.67539  0.89671  0.67446  1.0000
  H   H1636     1.0  0.66470  0.88519  0.62698  1.0000
  H   H1637     1.0  0.63055  0.88292  0.64344  1.0000
  H   H1638     1.0  0.65355  0.89884  0.69958  1.0000
  H   H1639     1.0  0.68789  0.90041  0.68328  1.0000
  C   C1371     1.0  0.72028  0.88876  0.51168  1.0000
  H   H1640     1.0  0.67211  0.85863  0.70000  1.0000
  C   C1372     1.0  0.73904  0.89719  0.50805  1.0000
  H   H1641     1.0  0.69004  0.91982  0.51923  1.0000
  H   H1642     1.0  0.74824  0.90004  0.52053  1.0000
  C   C1373     1.0  0.50004  0.89190  0.71518  1.0000
  H   H1643     1.0  0.81584  0.79731  0.66532  1.0000
  H   H1644     1.0  0.54057  0.94004  0.73622  1.0000
  C   C1374     1.0  0.64375  0.81195  0.72137  1.0000
  H   H1645     1.0  0.75671  0.97260  0.61061  1.0000
  C   C1375     1.0  0.82649  0.81458  0.59165  1.0000
  C   C1376     1.0  0.83720  0.83214  0.59281  1.0000
  C   C1377     1.0  0.82692  0.85119  0.59324  1.0000
  C   C1378     1.0  0.80580  0.85315  0.59219  1.0000
  C   C1379     1.0  0.79509  0.83561  0.59082  1.0000
  C   C1380     1.0  0.80535  0.81654  0.59070  1.0000
  H   H1646     1.0  0.85340  0.83103  0.59366  1.0000
  H   H1647     1.0  0.83544  0.86454  0.59450  1.0000
  H   H1648     1.0  0.77888  0.83667  0.59015  1.0000
  H   H1649     1.0  0.79682  0.80315  0.58985  1.0000
  H   H1650     1.0  0.55422  0.98375  0.76512  1.0000
  H   H1651     1.0  0.69083  0.88064  0.71955  1.0000
  C   C1381     1.0  0.96905  0.76385  0.58303  1.0000
  H   H1652     1.0  0.61751  0.85609  0.71374  1.0000
  H   H1653     1.0  0.50487  0.75664  0.96252  1.0000
  H   H1654     1.0  0.59151  0.96518  0.72656  1.0000
  C   C1382     1.0  0.59249  0.80697  0.83630  1.0000
  C   C1383     1.0  0.60011  0.79713  0.81924  1.0000
  C   C1384     1.0  0.60271  0.80790  0.80056  1.0000
  C   C1385     1.0  0.59749  0.82862  0.79845  1.0000
  C   C1386     1.0  0.58957  0.83839  0.81544  1.0000
  C   C1387     1.0  0.58723  0.82768  0.83419  1.0000
  H   H1655     1.0  0.60430  0.78127  0.82049  1.0000
  H   H1656     1.0  0.60887  0.80009  0.78763  1.0000
  H   H1657     1.0  0.58554  0.85429  0.81422  1.0000
  H   H1658     1.0  0.58137  0.83556  0.84719  1.0000
  H   H1659     1.0  0.53897  0.95646  0.78048  1.0000
  H   H1660     1.0  0.52063  0.78233  0.83286  1.0000
  C   C1388     1.0  0.49500  0.84390  0.76314  1.0000
  H   H1661     1.0  0.72872  0.95655  0.52976  1.0000
  H   H1662     1.0  0.88150  0.74712  0.50838  1.0000
  H   H1663     1.0  0.96706  0.76464  0.51008  1.0000
  C   C1389     1.0  0.97153  0.75363  0.60160  1.0000
  H   H1664     1.0  0.79842  0.85068  0.63192  1.0000
  H   H1665     1.0  0.63479  0.80182  0.71269  1.0000
  H   H1666     1.0  0.69150  0.95801  0.55750  1.0000
  H   H1667     1.0  0.78783  0.80332  0.69034  1.0000
  N   N91       1.0  0.64110  0.83323  0.71416  1.0000
  H   H1668     1.0  0.73958  0.87855  0.66832  1.0000
  C   C1390     1.0  0.54678  0.95467  0.73978  1.0000
  H   H1669     1.0  0.92844  0.77537  0.53391  1.0000
  H   H1670     1.0  0.65984  0.80676  0.71999  1.0000
  H   H1671     1.0  0.66132  0.82908  0.68826  1.0000
  H   H1672     1.0  0.78599  0.88296  0.66529  1.0000
  H   H1673     1.0  0.95844  0.74946  0.61078  1.0000
  H   H1674     1.0  0.82080  0.82113  0.63622  1.0000
  H   H1675     1.0  0.76599  0.89445  0.65082  1.0000
  C   C1391     1.0  0.71859  0.94367  0.53146  1.0000
  H   H1676     1.0  0.76474  0.83229  0.68653  1.0000
  N   N92       1.0  0.53170  0.96762  0.75055  1.0000
  H   H1677     1.0  0.64011  0.83813  0.75496  1.0000
  C   C1392     1.0  0.98633  0.76932  0.57143  1.0000
  H   H1678     1.0  0.65930  0.86062  0.77379  1.0000
  H   H1679     1.0  0.98749  0.84415  0.56882  1.0000
  H   H1680     1.0  0.66897  0.93604  0.52598  1.0000
  C   C1393     1.0  0.64557  0.83421  0.69207  1.0000
  H   H1681     1.0  0.69427  0.87814  0.49774  1.0000
  H   H1682     1.0  0.67421  0.96907  0.54007  1.0000
  H   H1683     1.0  0.56020  0.95114  0.74895  1.0000
  C   C1394     1.0  0.61971  0.83976  0.71753  1.0000
  H   H1684     1.0  0.49826  0.75398  0.82996  1.0000
  C   C1395     1.0  0.58758  0.74515  0.97134  1.0000
  C   C1396     1.0  0.68491  0.93207  0.52930  1.0000
  H   H1685     1.0  0.51175  0.82554  0.78440  1.0000
  C   C1397     1.0  0.67994  0.87100  0.72717  1.0000
  H   H1686     1.0  0.60948  0.83164  0.70818  1.0000
  H   H1687     1.0  0.55991  0.74827  0.98920  1.0000
  C   C1398     1.0  0.67650  0.87187  0.74792  1.0000
  H   H1688     1.0  0.98464  0.77747  0.55717  1.0000
  H   H1689     1.0  0.71955  0.93747  0.54716  1.0000
  H   H1690     1.0  0.61426  0.83727  0.73342  1.0000
  C   C1399     1.0  0.66224  0.85977  0.75768  1.0000
  C   C1400     1.0  0.65120  0.84696  0.74671  1.0000
  C   C1401     1.0  0.50994  0.98910  0.72670  1.0000
  C   C1402     1.0  0.62513  0.79680  0.96963  1.0000
  H   H1691     1.0  0.52246  0.74712  0.87816  1.0000
  H   H1692     1.0  0.93413  0.78240  0.50824  1.0000
  C   C1403     1.0  0.98431  0.82000  0.59095  1.0000
  N   N93       1.0  0.69762  0.94985  0.52670  1.0000
  C   C1404     1.0  0.69033  0.96453  0.54184  1.0000
  C   C1405     1.0  0.51392  0.97084  0.73797  1.0000
  C   C1406     1.0  0.50441  0.78498  0.83369  1.0000
  C   C1407     1.0  0.60858  0.74345  0.97199  1.0000
  C   C1408     1.0  0.50111  0.89848  0.73476  1.0000
  H   H1693     1.0  0.63557  0.82459  0.68397  1.0000
  H   H1694     1.0  0.61757  0.74225  0.95814  1.0000
  H   H1695     1.0  0.72494  0.93162  0.52190  1.0000
  C   C1409     1.0  0.69703  0.95780  0.50561  1.0000
  H   H1696     1.0  0.75671  0.86742  0.68605  1.0000
  H   H1697     1.0  0.68525  0.92528  0.54489  1.0000
  H   H1698     1.0  0.96811  0.81956  0.58985  1.0000
  H   H1699     1.0  0.64295  0.84978  0.68562  1.0000
  H   H1700     1.0  0.68471  0.88212  0.75642  1.0000
  N   N94       1.0  0.93845  0.75055  0.51563  1.0000
  C   C1410     1.0  0.49179  0.76905  0.83190  1.0000
  H   H1701     1.0  0.50609  0.81645  0.83880  1.0000
  N   N95       1.0  0.59131  0.80959  0.92533  1.0000
  C   C1411     1.0  0.57803  0.79387  0.91905  1.0000
  C   C1412     1.0  0.57972  0.82909  0.92544  1.0000
  C   C1413     1.0  0.60788  0.81144  0.90973  1.0000
  C   C1414     1.0  0.59836  0.80432  0.94578  1.0000
  C   C1415     1.0  0.58425  0.80160  0.96220  1.0000
  C   C1416     1.0  0.61909  0.80169  0.95007  1.0000
  C   C1417     1.0  0.68895  0.97729  0.50021  1.0000
  C   C1418     1.0  0.59243  0.97738  0.73666  1.0000
  H   H1702     1.0  0.51320  0.96534  0.77786  1.0000
  H   H1703     1.0  0.56393  0.79287  0.92852  1.0000
  H   H1704     1.0  0.57347  0.79654  0.90321  1.0000
  H   H1705     1.0  0.58582  0.77882  0.92016  1.0000
  H   H1706     1.0  0.56595  0.82846  0.93547  1.0000
  H   H1707     1.0  0.57461  0.83372  0.91013  1.0000
  H   H1708     1.0  0.58901  0.84123  0.93065  1.0000
  H   H1709     1.0  0.61665  0.79695  0.90811  1.0000
  H   H1710     1.0  0.60204  0.81545  0.89457  1.0000
  H   H1711     1.0  0.61822  0.82346  0.91305  1.0000
  H   H1712     1.0  0.56824  0.80289  0.96006  1.0000
  H   H1713     1.0  0.63094  0.80314  0.93859  1.0000
  S   S384      1.0  0.57478  0.74590  0.94839  1.0000
  H   H1714     1.0  0.60346  0.98638  0.78469  1.0000
  H   H1715     1.0  0.52229  0.94141  0.76856  1.0000
  N   N96       1.0  0.76516  0.86211  0.65502  1.0000
  C   C1419     1.0  0.75446  0.85907  0.63640  1.0000
  C   C1420     1.0  0.74968  0.86508  0.67151  1.0000
  C   C1421     1.0  0.77635  0.88095  0.65234  1.0000
  C   C1422     1.0  0.77928  0.84469  0.65871  1.0000
  C   C1423     1.0  0.79568  0.84081  0.64492  1.0000
  C   C1424     1.0  0.77681  0.83070  0.67529  1.0000
  C   C1425     1.0  0.80864  0.82392  0.64731  1.0000
  C   C1426     1.0  0.78999  0.81389  0.67767  1.0000
  C   C1427     1.0  0.80580  0.81047  0.66365  1.0000
  H   H1716     1.0  0.74633  0.84476  0.63742  1.0000
  H   H1717     1.0  0.74316  0.87151  0.63343  1.0000
  H   H1718     1.0  0.76489  0.85847  0.62290  1.0000
  H   H1719     1.0  0.73955  0.85218  0.67328  1.0000
  C   C1428     1.0  0.66894  0.85823  0.71605  1.0000
  C   C1429     1.0  0.75109  0.98688  0.60428  1.0000
  H   H1720     1.0  0.91150  0.76949  0.51487  1.0000
  H   H1721     1.0  0.68295  0.98756  0.51128  1.0000
  H   H1722     1.0  0.69956  0.97812  0.54107  1.0000
  C   C1430     1.0  0.49618  0.80416  0.83708  1.0000
  C   C1431     1.0  0.52616  0.95736  0.77017  1.0000
  C   C1432     1.0  0.96002  0.75256  0.51965  1.0000
  H   H1723     1.0  0.96211  0.75644  0.53553  1.0000
  C   C1433     1.0  0.49793  0.82737  0.77636  1.0000
  H   H1724     1.0  0.50350  0.94031  0.74259  1.0000
  C   C1434     1.0  0.61086  0.79437  0.98537  1.0000
  C   C1435     1.0  0.70877  0.88478  0.49513  1.0000
  C   C1436     1.0  0.49809  0.74657  0.95262  1.0000
  C   C1437     1.0  0.54140  0.98657  0.75498  1.0000
  C   C1438     1.0  0.59047  0.79670  0.98165  1.0000
  H   H1725     1.0  0.93199  0.74142  0.54669  1.0000
  C   C1439     1.0  0.93645  0.74417  0.49477  1.0000
  H   H1726     1.0  0.71040  0.93058  0.49249  1.0000
  C   C1440     1.0  0.57615  0.74697  0.98951  1.0000
  H   H1727     1.0  0.64098  0.79465  0.97260  1.0000
  H   H1728     1.0  0.74160  0.98284  0.49489  1.0000
  Fe  Fe192     1.0  0.58523  0.74075  0.91573  1.0000
