data_image0
_chemical_formula_structural       FeS2FeS2FeSFeS3HFeS2C4HCFeS2H3NH8FeS2CH2CHC2HCH2CH2SH2NC3H5CH3C3HC3H2C6H4C6H5SH5C4HN2CH3CHC2NC6H2FeH8FeHCH11CHCH2CH3CSFeHCHCNCHC3HC2HC3HCH2C2HSC3HCHSCH3C2FeCHCH2C2HNFeS2FeS2FeS2FeSFeS3FeS2FeS2CH5C2HNSH2CHCHC7H5C4HCH2C6H5SHCH3NC4H4CH9C3H2CHCH4CH2C7SNH2C2HC2SHCSHC5HCHCHC2HSH6CH9CFeSH2NH2CH3C2H4NC2HCHCHC3HC2H5CHC5HCFeSNH3C2HCHCHC2HFeS2FeS2FeSFeS3FeS2H4C2H3CHCFeS2FeS2H2CH3CH3CHSCH3C2H3CHC4H2C7H4C6H4C2H2CNC9H14CH3NH3SH2SCHCHFeHC2H2CH2C2HNHCSCH5SH4C2HSCHC5HCHCHC3H2CHCSC2NCHC5H3C2FeCHC2FeC3HFeS2CFeS2FeS2FeSFeS3FeS2H2CHCHFeS2H2SH2CHFeCHCHC2HC6H4C3H3SC2H2CHC7H5CH3CNC9H14NC6H17CHC2HCHSC3H3CH2FeCH4NC5HCFeH7C3HNC5HC5HCHCH3CH2CSH2NC4SCH4C3H2C2HCFeSCFeS2FeSFeS3FeS2FeS2FeSFeS3FeS2H5FeS2H4SH2CHC3H2C3H2C6H4CNH2C6H4CHC2HC6H5NC9H14CNSC3HCH3FeH7NH2C3HCH4CHC2HCH3CH2CH2C3SC4HCH2NC9H14NH3C3SH2C5H5CH2CHC2HC5H2SCH3C3FeS2FeS2FeS2FeS2FeSFeS3FeS2FeS2FeSFeS3CHC2H2CH2C6H4C2H2CSC6H4C6HCH3CH2CH4NHCH7CH2CHC5H2CHCHCH2FeCHNC9H20SH2SHNH5CFeCHC2HNC9H4C2HCHFeHC3HC2HNHC3FeS2FeS2FeSFeS3FeS2FeS2FeSFeS3FeS2FeS2C2HCHC7H5CH2C2H3C6H4C6H4CH7CHCHC2HC2NHCHC2H3CH2CHNHC2H2CHNHC2HCH3C6H3CH3CH2NH4CH3CH5CH2CH5CSHFeHFeS2CHCHFeHFeS2HCHC2FeS2FeS2FeSFeCS2FeS2FeS2FeSFeS3HCH3CH2C7H6CH3C6H4C6H5CH2NCH6NH5CHCHCHCHC2HCHC2H5C2HCH2CHC2HC4H4CH2CNC9H14NCFeSC5H4FeNHC2SC2SCH5C2SHNH4CHC3HCHSHSHC2HCHCSHSFeS2FeS2FeSFeS3FeS2FeS3C3H2FeSCH2CHC4H2C2H2CH2NH3C2HCH2C6H4C6H4C2H3CH2SHC4H3CHCH4CHC3HCH4SHCHCHC2H6CHNHCSCSNH4SFeH4SHC3H2CH2CHC2H4CHCH2C2NHC3H2C3HCHCH5CFeHCH2CHCFeSHSCFeS2CH5FeS2FeS2FeSFeS3FeS2FeSHCHCH2C5H5CH3CHC6H4C3H3CHC2HC6H9C2H2CH4CSCNHC3SH2CHCHCHNHCH3C2H2C3H3CHSH2FeC2NC4HCHCH6CH5NHCHC2H2CH3CHCH2CHSH2NH3C3HCH3CFeC2HCHC4HC2H3CHCH2CHFeCNCSCFeS2FeS2FeSFeS3FeS2FeS2FeSHCHNH3C3H2CH3C2HC7H4C6H4CHCH2C2FeHC2HCH2CHSH4C2H2C2H4C2HNC9H14NC9H14CH3CHC3H3C2H2CHSHSCHC5SCH2CHNHCHCHC2H2FeC2SC5H3C3HSCH2CH2CNC3HC5H5CNCHCFeC2FeH2FeS2HCSH2CFeS2FeS2FeSFeS3FeS2H4CHFeS2H8CH2CHCH2C8H4C2H2C3H2CHCH4C6H5CH3NH2NC6HCH11CHC2SCH5CHC3H2C2H4C3HFeCHSNC7H2NH6CHC2HNC3HC5HCHSC2FeSH2SHC2SHCHC2HC2H4
_chemical_formula_sum              "Fe128 S256 H1152 C960 N64"
_cell_length_a       62.3219
_cell_length_b       62.4286
_cell_length_c       46.378
_cell_angle_alpha    89.2075
_cell_angle_beta     89.1337
_cell_angle_gamma    89.4511

_space_group_name_H-M_alt    "P 1"
_space_group_IT_number       1

loop_
  _space_group_symop_operation_xyz
  'x, y, z'

loop_
  _atom_site_type_symbol
  _atom_site_label
  _atom_site_symmetry_multiplicity
  _atom_site_fract_x
  _atom_site_fract_y
  _atom_site_fract_z
  _atom_site_occupancy
  Fe  Fe1       1.0  0.09807  0.37965  0.20185  1.0000
  S   S1        1.0  0.09253  0.36263  0.24444  1.0000
  S   S2        1.0  0.11127  0.35553  0.16896  1.0000
  Fe  Fe2       1.0  0.08129  0.42237  0.22713  1.0000
  S   S3        1.0  0.07448  0.40747  0.27068  1.0000
  S   S4        1.0  0.06788  0.45635  0.22592  1.0000
  Fe  Fe3       1.0  0.10673  0.39132  0.26583  1.0000
  S   S5        1.0  0.13518  0.39232  0.29696  1.0000
  Fe  Fe4       1.0  0.06100  0.38044  0.24530  1.0000
  S   S6        1.0  0.02975  0.36341  0.25574  1.0000
  S   S7        1.0  0.11433  0.40759  0.22304  1.0000
  S   S8        1.0  0.06580  0.39612  0.20203  1.0000
  H   H1        1.0  0.08860  0.37782  0.12175  1.0000
  Fe  Fe5       1.0  0.18387  0.38845  0.45956  1.0000
  S   S9        1.0  0.21880  0.39286  0.44790  1.0000
  S   S10       1.0  0.15335  0.38460  0.43279  1.0000
  C   C1        1.0  0.15613  0.12827  0.99926  1.0000
  C   C2        1.0  0.31108  0.11903  0.07770  1.0000
  C   C3        1.0  0.16153  0.20653  0.01139  1.0000
  C   C4        1.0  0.25468  0.27583  0.45705  1.0000
  H   H2        1.0  0.28507  0.10999  0.14201  1.0000
  C   C5        1.0  0.30070  0.22636  0.44207  1.0000
  Fe  Fe6       1.0  0.27853  0.11690  0.00997  1.0000
  S   S11       1.0  0.24459  0.11053  0.02397  1.0000
  S   S12       1.0  0.30687  0.12315  0.03989  1.0000
  H   H3        1.0  0.25916  0.21030  0.07604  1.0000
  H   H4        1.0  0.16721  0.45193  0.26341  1.0000
  H   H5        1.0  0.15424  0.06191  0.00346  1.0000
  N   N1        1.0  0.99969  0.46448  0.23742  1.0000
  H   H6        1.0  0.07243  0.29489  0.18812  1.0000
  H   H7        1.0  0.22145  0.46909  0.40786  1.0000
  H   H8        1.0  0.25103  0.16725  0.13079  1.0000
  H   H9        1.0  0.06775  0.32680  0.12623  1.0000
  H   H10       1.0  0.08225  0.36735  0.07102  1.0000
  H   H11       1.0  0.05740  0.31121  0.08073  1.0000
  H   H12       1.0  0.02951  0.47482  0.25610  1.0000
  H   H13       1.0  0.14989  0.42942  0.26528  1.0000
  Fe  Fe7       1.0  0.09388  0.30020  0.01009  1.0000
  S   S13       1.0  0.09378  0.33044  0.03783  1.0000
  S   S14       1.0  0.08660  0.26598  0.02290  1.0000
  C   C6        1.0  0.29534  0.23266  0.39173  1.0000
  H   H14       1.0  0.14447  0.45016  0.23951  1.0000
  H   H15       1.0  0.19632  0.11467  0.01560  1.0000
  C   C7        1.0  0.29430  0.11454  0.09722  1.0000
  H   H16       1.0  0.28625  0.27691  0.38460  1.0000
  C   C8        1.0  0.27533  0.40162  0.46503  1.0000
  C   C9        1.0  0.28218  0.25953  0.42549  1.0000
  H   H17       1.0  0.28069  0.16295  0.03841  1.0000
  C   C10       1.0  0.08274  0.48016  0.22087  1.0000
  H   H18       1.0  0.15451  0.21572  0.02881  1.0000
  H   H19       1.0  0.27869  0.20061  0.05041  1.0000
  C   C11       1.0  0.11433  0.44979  0.28088  1.0000
  H   H20       1.0  0.18354  0.18919  0.03908  1.0000
  H   H21       1.0  0.27820  0.11264  0.08938  1.0000
  S   S15       1.0  0.02380  0.26500  0.00876  1.0000
  H   H22       1.0  0.23160  0.18535  0.09637  1.0000
  H   H23       1.0  0.29183  0.32934  0.44491  1.0000
  N   N2        1.0  0.17196  0.09136  0.00622  1.0000
  C   C12       1.0  0.13284  0.10043  0.01822  1.0000
  C   C13       1.0  0.29827  0.11294  0.12714  1.0000
  C   C14       1.0  0.13919  0.14304  0.00108  1.0000
  H   H24       1.0  0.30946  0.03247  0.13636  1.0000
  H   H25       1.0  0.13374  0.45880  0.33001  1.0000
  H   H26       1.0  0.28230  0.39437  0.44516  1.0000
  H   H27       1.0  0.10606  0.14816  0.01278  1.0000
  H   H28       1.0  0.22609  0.17553  0.06131  1.0000
  C   C15       1.0  0.28248  0.16532  0.14701  1.0000
  H   H29       1.0  0.25277  0.16089  0.03147  1.0000
  H   H30       1.0  0.14167  0.15964  0.99461  1.0000
  H   H31       1.0  0.30538  0.23302  0.46322  1.0000
  C   C16       1.0  0.18971  0.09929  0.02401  1.0000
  C   C17       1.0  0.27039  0.26011  0.45199  1.0000
  C   C18       1.0  0.26177  0.29153  0.41016  1.0000
  H   H32       1.0  0.10994  0.46552  0.19947  1.0000
  C   C19       1.0  0.00567  0.37501  0.24290  1.0000
  C   C20       1.0  0.29732  0.17397  0.09104  1.0000
  C   C21       1.0  0.00603  0.39068  0.22110  1.0000
  H   H33       1.0  0.30394  0.17668  0.06963  1.0000
  H   H34       1.0  0.02112  0.39601  0.21206  1.0000
  C   C22       1.0  0.13963  0.39020  0.33490  1.0000
  C   C23       1.0  0.16063  0.39273  0.34510  1.0000
  C   C24       1.0  0.16513  0.39125  0.37486  1.0000
  C   C25       1.0  0.14865  0.38711  0.39494  1.0000
  C   C26       1.0  0.12760  0.38475  0.38476  1.0000
  C   C27       1.0  0.12308  0.38634  0.35500  1.0000
  H   H35       1.0  0.17360  0.39566  0.32983  1.0000
  H   H36       1.0  0.18140  0.39304  0.38221  1.0000
  H   H37       1.0  0.11469  0.38151  0.39999  1.0000
  H   H38       1.0  0.10685  0.38434  0.34761  1.0000
  C   C28       1.0  0.10605  0.34897  0.13245  1.0000
  C   C29       1.0  0.11362  0.32920  0.12182  1.0000
  C   C30       1.0  0.10957  0.32297  0.09325  1.0000
  C   C31       1.0  0.09835  0.33672  0.07463  1.0000
  C   C32       1.0  0.09082  0.35651  0.08525  1.0000
  C   C33       1.0  0.09442  0.36252  0.11403  1.0000
  H   H39       1.0  0.12270  0.31860  0.13580  1.0000
  H   H40       1.0  0.11560  0.30778  0.08543  1.0000
  H   H41       1.0  0.30776  0.42618  0.44757  1.0000
  H   H42       1.0  0.22506  0.01044  0.02794  1.0000
  H   H43       1.0  0.18428  0.10198  0.04665  1.0000
  S   S16       1.0  0.25488  0.34612  0.47657  1.0000
  H   H44       1.0  0.25095  0.20091  0.04133  1.0000
  H   H45       1.0  0.12927  0.08429  0.02526  1.0000
  H   H46       1.0  0.27910  0.22539  0.39165  1.0000
  H   H47       1.0  0.26514  0.14370  0.05813  1.0000
  H   H48       1.0  0.32083  0.26680  0.40058  1.0000
  C   C34       1.0  0.31909  0.11544  0.13806  1.0000
  C   C35       1.0  0.27748  0.27585  0.40481  1.0000
  C   C36       1.0  0.15355  0.10652  0.00791  1.0000
  C   C37       1.0  0.23710  0.02606  0.98931  1.0000
  H   H49       1.0  0.11422  0.43204  0.28330  1.0000
  N   N3        1.0  0.13632  0.45838  0.28341  1.0000
  N   N4        1.0  0.29922  0.24341  0.41953  1.0000
  C   C38       1.0  0.16691  0.06931  0.01660  1.0000
  H   H50       1.0  0.01445  0.34869  0.11158  1.0000
  H   H51       1.0  0.26362  0.41422  0.45829  1.0000
  H   H52       1.0  0.28783  0.44203  0.46570  1.0000
  C   C39       1.0  0.25039  0.29150  0.43622  1.0000
  H   H53       1.0  0.10749  0.45390  0.25948  1.0000
  C   C40       1.0  0.14449  0.45286  0.31249  1.0000
  C   C41       1.0  0.01528  0.46483  0.26132  1.0000
  N   N5        1.0  0.05001  0.32071  0.18017  1.0000
  C   C42       1.0  0.05057  0.34443  0.17803  1.0000
  C   C43       1.0  0.03603  0.31509  0.20535  1.0000
  C   C44       1.0  0.07196  0.31267  0.18643  1.0000
  C   C45       1.0  0.04277  0.31169  0.15259  1.0000
  C   C46       1.0  0.02502  0.29762  0.15073  1.0000
  C   C47       1.0  0.05403  0.31643  0.12649  1.0000
  H   H54       1.0  0.02671  0.28645  0.07885  1.0000
  H   H55       1.0  0.02461  0.46824  0.20477  1.0000
  Fe  Fe8       1.0  0.23426  0.13421  0.98913  1.0000
  H   H56       1.0  0.06280  0.35030  0.16219  1.0000
  H   H57       1.0  0.03469  0.35119  0.17191  1.0000
  H   H58       1.0  0.05490  0.35157  0.19900  1.0000
  H   H59       1.0  0.01936  0.32124  0.20246  1.0000
  H   H60       1.0  0.04185  0.32242  0.22559  1.0000
  H   H61       1.0  0.03575  0.29750  0.20949  1.0000
  H   H62       1.0  0.08381  0.31743  0.16942  1.0000
  H   H63       1.0  0.07813  0.31928  0.20690  1.0000
  Fe  Fe9       1.0  0.05864  0.26921  0.99223  1.0000
  H   H64       1.0  0.01546  0.29303  0.16935  1.0000
  C   C48       1.0  0.26776  0.16859  0.12483  1.0000
  H   H65       1.0  0.18252  0.47492  0.41508  1.0000
  H   H66       1.0  0.26885  0.48183  0.45841  1.0000
  H   H67       1.0  0.14585  0.43518  0.31583  1.0000
  H   H68       1.0  0.31308  0.43767  0.48251  1.0000
  H   H69       1.0  0.26573  0.38907  0.47618  1.0000
  H   H70       1.0  0.30735  0.21960  0.38765  1.0000
  H   H71       1.0  0.99091  0.43220  0.24993  1.0000
  H   H72       1.0  0.28527  0.21773  0.44495  1.0000
  H   H73       1.0  0.00596  0.27776  0.12338  1.0000
  H   H74       1.0  0.23383  0.15692  0.08888  1.0000
  H   H75       1.0  0.27344  0.24907  0.46961  1.0000
  C   C49       1.0  0.17816  0.19137  0.01717  1.0000
  H   H76       1.0  0.15848  0.48442  0.24265  1.0000
  C   C50       1.0  0.15013  0.44714  0.26190  1.0000
  H   H77       1.0  0.10303  0.45595  0.29758  1.0000
  H   H78       1.0  0.17138  0.13412  0.99116  1.0000
  C   C51       1.0  0.04819  0.30754  0.10027  1.0000
  H   H79       1.0  0.23874  0.30409  0.44075  1.0000
  H   H80       1.0  0.20341  0.08769  0.02462  1.0000
  H   H81       1.0  0.16181  0.06915  0.03970  1.0000
  C   C52       1.0  0.01110  0.45745  0.21084  1.0000
  S   S17       1.0  0.20887  0.15989  0.00410  1.0000
  Fe  Fe10      1.0  0.24495  0.08483  0.99001  1.0000
  H   H82       1.0  0.25871  0.30409  0.39434  1.0000
  C   C53       1.0  0.26227  0.19792  0.05938  1.0000
  H   H83       1.0  0.31319  0.21412  0.43650  1.0000
  C   C54       1.0  0.18786  0.17910  0.99507  1.0000
  N   N6        1.0  0.25981  0.17605  0.07179  1.0000
  C   C55       1.0  0.23687  0.17334  0.08017  1.0000
  H   H84       1.0  0.16070  0.45969  0.31566  1.0000
  C   C56       1.0  0.26480  0.16028  0.04899  1.0000
  C   C57       1.0  0.27481  0.17293  0.09602  1.0000
  C   C58       1.0  0.99818  0.34801  0.12018  1.0000
  H   H85       1.0  0.31786  0.29959  0.45372  1.0000
  C   C59       1.0  0.10282  0.48034  0.20697  1.0000
  C   C60       1.0  0.30524  0.30271  0.46936  1.0000
  H   H86       1.0  0.02197  0.44855  0.26612  1.0000
  C   C61       1.0  0.11595  0.11535  0.01985  1.0000
  C   C62       1.0  0.99134  0.36243  0.14114  1.0000
  C   C63       1.0  0.99792  0.26283  0.99285  1.0000
  H   H87       1.0  0.01835  0.44117  0.21361  1.0000
  C   C64       1.0  0.30444  0.16638  0.14130  1.0000
  H   H88       1.0  0.00227  0.37444  0.14883  1.0000
  H   H89       1.0  0.10028  0.11044  0.02784  1.0000
  C   C65       1.0  0.01931  0.28874  0.12435  1.0000
  C   C66       1.0  0.03092  0.29362  0.09921  1.0000
  H   H90       1.0  0.24635  0.27638  0.47774  1.0000
  S   S18       1.0  0.23758  0.45041  0.47048  1.0000
  C   C67       1.0  0.21481  0.48522  0.40708  1.0000
  C   C68       1.0  0.13587  0.48197  0.27945  1.0000
  C   C69       1.0  0.32066  0.00020  0.14505  1.0000
  H   H91       1.0  0.27693  0.16134  0.16869  1.0000
  C   C70       1.0  0.11914  0.13660  0.01136  1.0000
  H   H92       1.0  0.31577  0.16305  0.15837  1.0000
  S   S19       1.0  0.22986  0.05229  0.00161  1.0000
  C   C71       1.0  0.23210  0.00806  0.00675  1.0000
  H   H93       1.0  0.30620  0.99345  0.13656  1.0000
  H   H94       1.0  0.18125  0.05847  0.01500  1.0000
  H   H95       1.0  0.00004  0.45707  0.19223  1.0000
  C   C72       1.0  0.31184  0.17072  0.11339  1.0000
  C   C73       1.0  0.29037  0.31975  0.46442  1.0000
  Fe  Fe11      1.0  0.21840  0.41973  0.48019  1.0000
  C   C74       1.0  0.23616  0.47901  0.47344  1.0000
  H   H96       1.0  0.29670  0.24376  0.37292  1.0000
  C   C75       1.0  0.30079  0.42982  0.46921  1.0000
  H   H97       1.0  0.11196  0.38431  0.46780  1.0000
  H   H98       1.0  0.00769  0.47111  0.28140  1.0000
  C   C76       1.0  0.99045  0.48619  0.23259  1.0000
  C   C77       1.0  0.32028  0.25419  0.41768  1.0000
  H   H99       1.0  0.98927  0.32190  0.09332  1.0000
  N   N7        1.0  0.29227  0.41021  0.48367  1.0000
  Fe  Fe12      1.0  0.19196  0.39318  0.52442  1.0000
  S   S20       1.0  0.22769  0.39769  0.51698  1.0000
  S   S21       1.0  0.17504  0.40175  0.56744  1.0000
  Fe  Fe13      1.0  0.07947  0.42931  0.73753  1.0000
  S   S22       1.0  0.06306  0.40914  0.70473  1.0000
  S   S23       1.0  0.07047  0.46469  0.73694  1.0000
  Fe  Fe14      1.0  0.09402  0.38960  0.77321  1.0000
  S   S24       1.0  0.07896  0.36694  0.74247  1.0000
  S   S25       1.0  0.10845  0.38150  0.81735  1.0000
  Fe  Fe15      1.0  0.09294  0.38832  0.70684  1.0000
  S   S26       1.0  0.10749  0.37242  0.66638  1.0000
  Fe  Fe16      1.0  0.05075  0.38976  0.74253  1.0000
  S   S27       1.0  0.01676  0.38203  0.75734  1.0000
  S   S28       1.0  0.11007  0.40966  0.73783  1.0000
  S   S29       1.0  0.06523  0.41122  0.77499  1.0000
  Fe  Fe17      1.0  0.26730  0.11405  0.94573  1.0000
  S   S30       1.0  0.23220  0.10783  0.95633  1.0000
  S   S31       1.0  0.27588  0.11176  0.89742  1.0000
  Fe  Fe18      1.0  0.08694  0.29142  0.94521  1.0000
  S   S32       1.0  0.08254  0.30116  0.89768  1.0000
  S   S33       1.0  0.07853  0.25693  0.95482  1.0000
  C   C78       1.0  0.15399  0.20979  0.98328  1.0000
  H   H100      1.0  0.18525  0.10538  0.96700  1.0000
  H   H101      1.0  0.28983  0.19538  0.84933  1.0000
  H   H102      1.0  0.29578  0.01316  0.89042  1.0000
  H   H103      1.0  0.30252  0.16110  0.73160  1.0000
  H   H104      1.0  0.25557  0.99907  0.93020  1.0000
  C   C79       1.0  0.98906  0.30988  0.94152  1.0000
  C   C80       1.0  0.24936  0.00149  0.95181  1.0000
  H   H105      1.0  0.28064  0.06946  0.87633  1.0000
  N   N8        1.0  0.01033  0.31560  0.92881  1.0000
  S   S34       1.0  0.26868  0.14181  0.97647  1.0000
  H   H106      1.0  0.11675  0.47176  0.74403  1.0000
  H   H107      1.0  0.28548  0.10197  0.83826  1.0000
  C   C81       1.0  0.31910  0.15585  0.73702  1.0000
  H   H108      1.0  0.31766  0.19692  0.72135  1.0000
  C   C82       1.0  0.99500  0.44108  0.69516  1.0000
  H   H109      1.0  0.00919  0.38008  0.69557  1.0000
  C   C83       1.0  0.30371  0.28977  0.49434  1.0000
  C   C84       1.0  0.10022  0.35964  0.83998  1.0000
  C   C85       1.0  0.08762  0.34305  0.82969  1.0000
  C   C86       1.0  0.08239  0.32542  0.84774  1.0000
  C   C87       1.0  0.08943  0.32417  0.87642  1.0000
  C   C88       1.0  0.10172  0.34093  0.88693  1.0000
  C   C89       1.0  0.10717  0.35848  0.86874  1.0000
  H   H110      1.0  0.08223  0.34361  0.80762  1.0000
  H   H111      1.0  0.07289  0.31257  0.83933  1.0000
  H   H112      1.0  0.10732  0.34021  0.90889  1.0000
  H   H113      1.0  0.11701  0.37113  0.87696  1.0000
  H   H114      1.0  0.16406  0.30308  0.90451  1.0000
  C   C90       1.0  0.15485  0.32150  0.86812  1.0000
  C   C91       1.0  0.10828  0.47319  0.82816  1.0000
  C   C92       1.0  0.30003  0.11429  0.87647  1.0000
  C   C93       1.0  0.00781  0.34691  0.84510  1.0000
  H   H115      1.0  0.13883  0.47878  0.84985  1.0000
  C   C94       1.0  0.32012  0.03567  0.81460  1.0000
  H   H116      1.0  0.31937  0.12702  0.91012  1.0000
  H   H117      1.0  0.09713  0.41528  0.60297  1.0000
  C   C95       1.0  0.15673  0.39283  0.59518  1.0000
  C   C96       1.0  0.14808  0.37221  0.59599  1.0000
  C   C97       1.0  0.13338  0.36621  0.61814  1.0000
  C   C98       1.0  0.12708  0.38064  0.63989  1.0000
  C   C99       1.0  0.13588  0.40120  0.63923  1.0000
  C   C100      1.0  0.15055  0.40721  0.61705  1.0000
  H   H118      1.0  0.15278  0.36079  0.57972  1.0000
  H   H119      1.0  0.12673  0.35027  0.61836  1.0000
  H   H120      1.0  0.13127  0.41253  0.65568  1.0000
  H   H121      1.0  0.15716  0.42317  0.61681  1.0000
  H   H122      1.0  0.14781  0.37440  0.53036  1.0000
  S   S35       1.0  0.27960  0.08980  0.97807  1.0000
  H   H123      1.0  0.02115  0.32335  0.97144  1.0000
  C   C101      1.0  0.29804  0.19113  0.82942  1.0000
  H   H124      1.0  0.01600  0.28404  0.91196  1.0000
  H   H125      1.0  0.29558  0.02454  0.84333  1.0000
  H   H126      1.0  0.02477  0.28751  0.94839  1.0000
  N   N9        1.0  0.10912  0.44947  0.82797  1.0000
  C   C102      1.0  0.12664  0.44007  0.84567  1.0000
  C   C103      1.0  0.08861  0.44040  0.83914  1.0000
  C   C104      1.0  0.11259  0.44239  0.79793  1.0000
  C   C105      1.0  0.31091  0.20073  0.78138  1.0000
  H   H127      1.0  0.12318  0.30576  0.81372  1.0000
  H   H128      1.0  0.07836  0.47602  0.80427  1.0000
  H   H129      1.0  0.31263  0.34180  0.51557  1.0000
  H   H130      1.0  0.11635  0.41813  0.55739  1.0000
  C   C106      1.0  0.02328  0.29560  0.92693  1.0000
  H   H131      1.0  0.12528  0.44527  0.86849  1.0000
  H   H132      1.0  0.12621  0.42218  0.84590  1.0000
  H   H133      1.0  0.14276  0.44434  0.83683  1.0000
  H   H134      1.0  0.08464  0.44655  0.86101  1.0000
  H   H135      1.0  0.08933  0.42254  0.84062  1.0000
  H   H136      1.0  0.07486  0.44411  0.82490  1.0000
  H   H137      1.0  0.12756  0.44925  0.78840  1.0000
  H   H138      1.0  0.11399  0.42464  0.79678  1.0000
  H   H139      1.0  0.09917  0.44739  0.78371  1.0000
  C   C107      1.0  0.09109  0.48442  0.81479  1.0000
  C   C108      1.0  0.00903  0.44449  0.74310  1.0000
  C   C109      1.0  0.08478  0.38399  0.59518  1.0000
  H   H140      1.0  0.16295  0.33566  0.87551  1.0000
  H   H141      1.0  0.31465  0.02628  0.79667  1.0000
  C   C110      1.0  0.08437  0.36686  0.57630  1.0000
  H   H142      1.0  0.16879  0.24942  0.86485  1.0000
  C   C111      1.0  0.15843  0.26397  0.91823  1.0000
  H   H143      1.0  0.31205  0.21313  0.76500  1.0000
  H   H144      1.0  0.14179  0.24269  0.85568  1.0000
  H   H145      1.0  0.17539  0.26760  0.91234  1.0000
  H   H146      1.0  0.00851  0.43040  0.68830  1.0000
  C   C112      1.0  0.14445  0.28391  0.87563  1.0000
  H   H147      1.0  0.29540  0.02370  0.92589  1.0000
  H   H148      1.0  0.04372  0.33039  0.89479  1.0000
  C   C113      1.0  0.15533  0.30256  0.88463  1.0000
  C   C114      1.0  0.13252  0.30464  0.83324  1.0000
  C   C115      1.0  0.00910  0.32598  0.89993  1.0000
  C   C116      1.0  0.99440  0.38470  0.70645  1.0000
  C   C117      1.0  0.14359  0.32249  0.84242  1.0000
  C   C118      1.0  0.09611  0.40239  0.58762  1.0000
  C   C119      1.0  0.12250  0.25855  0.90237  1.0000
  S   S36       1.0  0.18323  0.41674  0.48917  1.0000
  N   N10       1.0  0.14462  0.26351  0.89239  1.0000
  H   H149      1.0  0.11634  0.42161  0.50646  1.0000
  H   H150      1.0  0.01631  0.47754  0.68525  1.0000
  C   C120      1.0  0.15258  0.24578  0.87398  1.0000
  C   C121      1.0  0.02052  0.46827  0.70507  1.0000
  H   H151      1.0  0.12345  0.27247  0.84195  1.0000
  C   C122      1.0  0.02737  0.34325  0.85848  1.0000
  C   C123      1.0  0.12850  0.40847  0.50662  1.0000
  S   S37       1.0  0.06557  0.30335  0.98074  1.0000
  H   H152      1.0  0.29461  0.42333  0.52618  1.0000
  C   C124      1.0  0.13594  0.37106  0.51330  1.0000
  S   S38       1.0  0.19110  0.36437  0.49531  1.0000
  H   H153      1.0  0.15858  0.24826  0.92998  1.0000
  C   C125      1.0  0.10715  0.40378  0.56119  1.0000
  C   C126      1.0  0.31773  0.35700  0.50621  1.0000
  C   C127      1.0  0.28712  0.29465  0.51436  1.0000
  C   C128      1.0  0.27231  0.31174  0.50947  1.0000
  C   C129      1.0  0.30004  0.10806  0.84738  1.0000
  H   H154      1.0  0.15246  0.27586  0.93420  1.0000
  C   C130      1.0  0.24609  0.02260  0.96187  1.0000
  H   H155      1.0  0.09484  0.35422  0.53613  1.0000
  C   C131      1.0  0.13281  0.28565  0.84959  1.0000
  H   H156      1.0  0.14117  0.41229  0.52244  1.0000
  C   C132      1.0  0.30870  0.39335  0.48893  1.0000
  C   C133      1.0  0.02809  0.33290  0.88540  1.0000
  H   H157      1.0  0.03783  0.33342  0.94301  1.0000
  S   S39       1.0  0.11624  0.29075  0.97309  1.0000
  H   H158      1.0  0.24971  0.03617  0.94800  1.0000
  H   H159      1.0  0.99628  0.43414  0.75256  1.0000
  H   H160      1.0  0.27448  0.40326  0.52312  1.0000
  H   H161      1.0  0.14476  0.37080  0.49224  1.0000
  H   H162      1.0  0.31204  0.07810  0.90810  1.0000
  H   H163      1.0  0.07705  0.38269  0.61624  1.0000
  C   C134      1.0  0.10686  0.38667  0.54123  1.0000
  H   H164      1.0  0.11582  0.27182  0.91556  1.0000
  H   H165      1.0  0.14290  0.33733  0.82998  1.0000
  H   H166      1.0  0.25972  0.31495  0.52518  1.0000
  H   H167      1.0  0.12191  0.24368  0.91592  1.0000
  H   H168      1.0  0.18734  0.17313  0.94951  1.0000
  H   H169      1.0  0.30484  0.15883  0.84355  1.0000
  H   H170      1.0  0.03994  0.29853  0.91920  1.0000
  H   H171      1.0  0.01225  0.34595  0.95007  1.0000
  H   H172      1.0  0.28561  0.28500  0.53383  1.0000
  C   C135      1.0  0.30024  0.20617  0.80709  1.0000
  Fe  Fe19      1.0  0.22644  0.37031  0.48537  1.0000
  S   S40       1.0  0.13284  0.22894  0.97459  1.0000
  H   H173      1.0  0.27213  0.05556  0.90844  1.0000
  H   H174      1.0  0.15375  0.23040  0.88640  1.0000
  N   N11       1.0  0.11855  0.38740  0.51319  1.0000
  H   H175      1.0  0.07605  0.35235  0.58270  1.0000
  H   H176      1.0  0.11126  0.25640  0.88429  1.0000
  C   C136      1.0  0.09521  0.36812  0.54971  1.0000
  H   H177      1.0  0.00741  0.35505  0.82426  1.0000
  H   H178      1.0  0.08975  0.39393  0.48947  1.0000
  H   H179      1.0  0.04211  0.34854  0.84797  1.0000
  C   C137      1.0  0.30393  0.02464  0.90457  1.0000
  C   C138      1.0  0.30647  0.17056  0.82616  1.0000
  H   H180      1.0  0.00890  0.25017  0.95226  1.0000
  H   H181      1.0  0.26974  0.42936  0.50836  1.0000
  H   H182      1.0  0.01427  0.45556  0.76018  1.0000
  H   H183      1.0  0.27230  0.04216  0.87463  1.0000
  N   N12       1.0  0.30382  0.04682  0.89258  1.0000
  C   C139      1.0  0.99413  0.38774  0.73625  1.0000
  C   C140      1.0  0.02081  0.33024  0.94913  1.0000
  H   H184      1.0  0.15805  0.19950  0.93932  1.0000
  C   C141      1.0  0.31872  0.10962  0.82987  1.0000
  H   H185      1.0  0.29366  0.22218  0.80976  1.0000
  C   C142      1.0  0.99508  0.25519  0.96492  1.0000
  H   H186      1.0  0.03389  0.45713  0.69900  1.0000
  C   C143      1.0  0.28239  0.41680  0.51152  1.0000
  C   C144      1.0  0.31713  0.16498  0.80059  1.0000
  C   C145      1.0  0.28128  0.05368  0.88778  1.0000
  H   H187      1.0  0.02290  0.43369  0.73801  1.0000
  C   C146      1.0  0.98886  0.34017  0.85859  1.0000
  C   C147      1.0  0.16359  0.19740  0.96117  1.0000
  H   H188      1.0  0.09762  0.36610  0.49035  1.0000
  H   H189      1.0  0.31777  0.14145  0.75125  1.0000
  H   H190      1.0  0.28628  0.37031  0.50813  1.0000
  H   H191      1.0  0.31840  0.10473  0.80759  1.0000
  H   H192      1.0  0.19338  0.07831  0.97376  1.0000
  C   C148      1.0  0.30274  0.37346  0.50178  1.0000
  H   H193      1.0  0.30355  0.05986  0.93561  1.0000
  C   C149      1.0  0.31975  0.17987  0.77743  1.0000
  C   C150      1.0  0.12493  0.48580  0.83968  1.0000
  C   C151      1.0  0.18031  0.18231  0.96693  1.0000
  C   C152      1.0  0.31278  0.06095  0.91489  1.0000
  C   C153      1.0  0.31904  0.12213  0.88784  1.0000
  H   H194      1.0  0.02736  0.47935  0.72108  1.0000
  C   C154      1.0  0.98937  0.32980  0.88556  1.0000
  Fe  Fe20      1.0  0.10747  0.25626  0.98414  1.0000
  S   S41       1.0  0.32165  0.26727  0.50136  1.0000
  N   N13       1.0  0.00173  0.45656  0.71721  1.0000
  H   H195      1.0  0.20343  0.48218  0.48868  1.0000
  H   H196      1.0  0.99063  0.30241  0.96337  1.0000
  H   H197      1.0  0.12988  0.35460  0.51725  1.0000
  C   C155      1.0  0.31590  0.04754  0.86478  1.0000
  C   C156      1.0  0.30936  0.03485  0.84132  1.0000
  H   H198      1.0  0.16661  0.08418  0.96167  1.0000
  C   C157      1.0  0.17960  0.08977  0.97587  1.0000
  H   H199      1.0  0.32065  0.01870  0.90773  1.0000
  C   C158      1.0  0.10376  0.38273  0.48930  1.0000
  H   H200      1.0  0.98879  0.44952  0.67565  1.0000
  C   C159      1.0  0.10849  0.48705  0.74378  1.0000
  C   C160      1.0  0.27361  0.32442  0.48428  1.0000
  H   H201      1.0  0.13657  0.40866  0.48499  1.0000
  Fe  Fe21      1.0  0.10165  0.57387  0.22140  1.0000
  S   S42       1.0  0.09403  0.57663  0.26859  1.0000
  S   S43       1.0  0.11740  0.54382  0.20384  1.0000
  Fe  Fe22      1.0  0.08476  0.61930  0.20653  1.0000
  S   S44       1.0  0.07559  0.62511  0.25322  1.0000
  S   S45       1.0  0.07335  0.64440  0.17305  1.0000
  Fe  Fe23      1.0  0.10758  0.60986  0.26472  1.0000
  S   S46       1.0  0.13356  0.62507  0.29259  1.0000
  Fe  Fe24      1.0  0.06295  0.59143  0.25337  1.0000
  S   S47       1.0  0.03135  0.57731  0.26882  1.0000
  S   S48       1.0  0.11738  0.60615  0.21781  1.0000
  S   S49       1.0  0.06991  0.58657  0.20634  1.0000
  Fe  Fe25      1.0  0.18961  0.61640  0.45554  1.0000
  S   S50       1.0  0.22446  0.61124  0.44362  1.0000
  S   S51       1.0  0.16114  0.61143  0.42495  1.0000
  H   H202      1.0  0.22248  0.85855  0.06859  1.0000
  H   H203      1.0  0.24418  0.86652  0.09108  1.0000
  H   H204      1.0  0.26942  0.52121  0.45956  1.0000
  H   H205      1.0  0.16540  0.88188  0.99276  1.0000
  C   C161      1.0  0.99587  0.52466  0.22320  1.0000
  C   C162      1.0  0.25461  0.49042  0.46543  1.0000
  H   H206      1.0  0.17225  0.56893  0.44143  1.0000
  H   H207      1.0  0.05830  0.49960  0.24133  1.0000
  H   H208      1.0  0.16447  0.56903  0.38870  1.0000
  C   C163      1.0  0.02123  0.63660  0.20223  1.0000
  H   H209      1.0  0.24550  0.80700  0.04603  1.0000
  C   C164      1.0  0.23820  0.82417  0.09820  1.0000
  Fe  Fe26      1.0  0.27245  0.89646  0.02394  1.0000
  S   S52       1.0  0.27921  0.89852  0.07263  1.0000
  S   S53       1.0  0.23827  0.90589  0.01351  1.0000
  Fe  Fe27      1.0  0.10424  0.71072  0.02184  1.0000
  S   S54       1.0  0.11491  0.69449  0.06444  1.0000
  S   S55       1.0  0.09232  0.74482  0.01396  1.0000
  H   H210      1.0  0.21177  0.56531  0.38209  1.0000
  H   H211      1.0  0.29856  0.82942  0.46663  1.0000
  C   C165      1.0  0.30257  0.89611  0.09445  1.0000
  H   H212      1.0  0.27957  0.82099  0.03247  1.0000
  H   H213      1.0  0.03180  0.63566  0.14623  1.0000
  H   H214      1.0  0.31464  0.93929  0.17627  1.0000
  C   C166      1.0  0.31788  0.70621  0.47981  1.0000
  H   H215      1.0  0.19673  0.58293  0.40499  1.0000
  H   H216      1.0  0.23167  0.53629  0.40174  1.0000
  H   H217      1.0  0.26383  0.71247  0.46909  1.0000
  C   C167      1.0  0.13412  0.52723  0.27269  1.0000
  H   H218      1.0  0.99243  0.69707  0.04669  1.0000
  S   S56       1.0  0.23906  0.55341  0.47345  1.0000
  C   C168      1.0  0.00413  0.50396  0.22737  1.0000
  H   H219      1.0  0.22218  0.82403  0.04588  1.0000
  H   H220      1.0  0.11124  0.52674  0.30766  1.0000
  H   H221      1.0  0.16738  0.51118  0.41567  1.0000
  C   C169      1.0  0.00295  0.60402  0.19203  1.0000
  C   C170      1.0  0.17954  0.55269  0.43916  1.0000
  H   H222      1.0  0.27236  0.85013  0.11685  1.0000
  H   H223      1.0  0.17273  0.90631  0.03130  1.0000
  H   H224      1.0  0.17689  0.54905  0.36630  1.0000
  C   C171      1.0  0.21783  0.49069  0.48242  1.0000
  H   H225      1.0  0.19232  0.55097  0.45560  1.0000
  C   C172      1.0  0.20434  0.56670  0.40394  1.0000
  C   C173      1.0  0.30398  0.84283  0.10232  1.0000
  C   C174      1.0  0.00628  0.61399  0.26990  1.0000
  C   C175      1.0  0.00704  0.59177  0.26661  1.0000
  H   H226      1.0  0.16675  0.54109  0.44492  1.0000
  H   H227      1.0  0.02090  0.62265  0.27375  1.0000
  C   C176      1.0  0.19288  0.48856  0.41129  1.0000
  C   C177      1.0  0.14146  0.62014  0.32914  1.0000
  C   C178      1.0  0.16071  0.62903  0.33897  1.0000
  C   C179      1.0  0.16724  0.62627  0.36792  1.0000
  C   C180      1.0  0.15439  0.61488  0.38771  1.0000
  C   C181      1.0  0.13522  0.60587  0.37782  1.0000
  C   C182      1.0  0.12888  0.60830  0.34878  1.0000
  H   H228      1.0  0.17062  0.63826  0.32413  1.0000
  H   H229      1.0  0.18198  0.63337  0.37504  1.0000
  H   H230      1.0  0.12505  0.59709  0.39285  1.0000
  H   H231      1.0  0.11399  0.60146  0.34178  1.0000
  C   C183      1.0  0.08486  0.65627  0.14113  1.0000
  C   C184      1.0  0.10657  0.65386  0.13365  1.0000
  C   C185      1.0  0.11527  0.66513  0.10959  1.0000
  C   C186      1.0  0.10238  0.67862  0.09225  1.0000
  C   C187      1.0  0.08048  0.68044  0.09918  1.0000
  C   C188      1.0  0.07187  0.66950  0.12357  1.0000
  H   H232      1.0  0.11684  0.64383  0.14683  1.0000
  H   H233      1.0  0.13223  0.66368  0.10464  1.0000
  H   H234      1.0  0.07039  0.69091  0.08634  1.0000
  H   H235      1.0  0.05509  0.67165  0.12914  1.0000
  C   C189      1.0  0.08425  0.51906  0.22537  1.0000
  C   C190      1.0  0.10405  0.51938  0.21082  1.0000
  H   H236      1.0  0.14971  0.80122  0.01827  1.0000
  H   H237      1.0  0.07701  0.53390  0.23261  1.0000
  C   C191      1.0  0.00382  0.74491  0.00076  1.0000
  N   N14       1.0  0.13487  0.67286  0.22112  1.0000
  C   C192      1.0  0.14763  0.65328  0.21457  1.0000
  C   C193      1.0  0.14560  0.68460  0.24437  1.0000
  C   C194      1.0  0.11365  0.66584  0.23257  1.0000
  C   C195      1.0  0.13341  0.68661  0.19490  1.0000
  C   C196      1.0  0.15237  0.69387  0.18060  1.0000
  C   C197      1.0  0.11352  0.69283  0.18246  1.0000
  C   C198      1.0  0.15147  0.70588  0.15494  1.0000
  C   C199      1.0  0.11284  0.70507  0.15699  1.0000
  C   C200      1.0  0.13174  0.71131  0.14304  1.0000
  H   H238      1.0  0.16465  0.65679  0.20911  1.0000
  H   H239      1.0  0.14800  0.64192  0.23337  1.0000
  H   H240      1.0  0.14078  0.64467  0.19598  1.0000
  H   H241      1.0  0.16237  0.68891  0.23848  1.0000
  H   H242      1.0  0.14646  0.67473  0.26462  1.0000
  H   H243      1.0  0.13676  0.69968  0.24953  1.0000
  H   H244      1.0  0.10495  0.65633  0.21640  1.0000
  H   H245      1.0  0.11527  0.65540  0.25212  1.0000
  H   H246      1.0  0.10340  0.67967  0.23913  1.0000
  H   H247      1.0  0.16805  0.68991  0.18885  1.0000
  H   H248      1.0  0.09821  0.68786  0.19133  1.0000
  H   H249      1.0  0.16613  0.71068  0.14386  1.0000
  H   H250      1.0  0.09754  0.70894  0.14724  1.0000
  H   H251      1.0  0.13103  0.71994  0.12258  1.0000
  C   C201      1.0  0.28167  0.84295  0.09963  1.0000
  H   H252      1.0  0.31125  0.84948  0.12130  1.0000
  H   H253      1.0  0.27910  0.79607  0.46885  1.0000
  H   H254      1.0  0.01704  0.59436  0.19944  1.0000
  N   N15       1.0  0.00945  0.62510  0.17970  1.0000
  H   H255      1.0  0.01028  0.64128  0.22029  1.0000
  H   H256      1.0  0.00671  0.53801  0.21976  1.0000
  H   H257      1.0  0.24549  0.50000  0.40078  1.0000
  S   S57       1.0  0.08241  0.69618  0.98946  1.0000
  H   H258      1.0  0.24483  0.80765  0.10095  1.0000
  H   H259      1.0  0.31814  0.82178  0.03772  1.0000
  S   S58       1.0  0.27105  0.86620  0.99796  1.0000
  C   C202      1.0  0.22009  0.52357  0.40366  1.0000
  H   H260      1.0  0.19159  0.94043  0.02157  1.0000
  C   C203      1.0  0.30036  0.89837  0.12457  1.0000
  H   H261      1.0  0.29743  0.73362  0.47236  1.0000
  Fe  Fe28      1.0  0.23254  0.63634  0.47693  1.0000
  H   H262      1.0  0.99437  0.59427  0.17603  1.0000
  C   C204      1.0  0.19777  0.52758  0.40791  1.0000
  C   C205      1.0  0.99965  0.65022  0.08284  1.0000
  H   H263      1.0  0.31605  0.89729  0.16605  1.0000
  H   H264      1.0  0.22045  0.82297  0.09635  1.0000
  C   C206      1.0  0.11336  0.49994  0.20177  1.0000
  H   H265      1.0  0.23181  0.97339  0.01067  1.0000
  H   H266      1.0  0.15711  0.54182  0.39336  1.0000
  C   C207      1.0  0.17101  0.55233  0.38860  1.0000
  C   C208      1.0  0.25493  0.51290  0.46603  1.0000
  H   H267      1.0  0.02136  0.50197  0.22633  1.0000
  N   N16       1.0  0.18849  0.54947  0.40975  1.0000
  H   H268      1.0  0.02889  0.65145  0.19374  1.0000
  C   C209      1.0  0.18441  0.50939  0.41163  1.0000
  S   S59       1.0  0.20846  0.85253  0.99602  1.0000
  C   C210      1.0  0.02434  0.62083  0.15512  1.0000
  H   H269      1.0  0.15628  0.52302  0.23744  1.0000
  H   H270      1.0  0.21726  0.56654  0.42028  1.0000
  H   H271      1.0  0.12868  0.50010  0.19051  1.0000
  H   H272      1.0  0.03442  0.62658  0.21142  1.0000
  H   H273      1.0  0.28470  0.90187  0.13381  1.0000
  S   S60       1.0  0.25398  0.66708  0.47403  1.0000
  H   H274      1.0  0.17404  0.83156  0.02825  1.0000
  H   H275      1.0  0.30096  0.96356  0.16655  1.0000
  H   H276      1.0  0.24772  0.86635  0.05298  1.0000
  H   H277      1.0  0.01092  0.66476  0.15347  1.0000
  C   C211      1.0  0.12184  0.51719  0.29413  1.0000
  C   C212      1.0  0.12277  0.49491  0.29767  1.0000
  H   H278      1.0  0.24103  0.83292  0.11847  1.0000
  S   S61       1.0  0.28607  0.91599  0.98690  1.0000
  C   C213      1.0  0.07363  0.49956  0.23022  1.0000
  H   H279      1.0  0.01599  0.61275  0.13732  1.0000
  C   C214      1.0  0.23681  0.52478  0.47462  1.0000
  C   C215      1.0  0.00439  0.66951  0.06884  1.0000
  C   C216      1.0  0.23594  0.98696  0.99701  1.0000
  C   C217      1.0  0.18808  0.92980  0.00400  1.0000
  C   C218      1.0  0.24017  0.85750  0.07139  1.0000
  H   H280      1.0  0.99240  0.60602  0.21131  1.0000
  C   C219      1.0  0.17323  0.89668  0.98683  1.0000
  H   H281      1.0  0.01637  0.75032  0.01469  1.0000
  C   C220      1.0  0.17576  0.82315  0.00810  1.0000
  H   H282      1.0  0.13296  0.54443  0.26935  1.0000
  C   C221      1.0  0.31814  0.89582  0.14296  1.0000
  C   C222      1.0  0.99111  0.63854  0.17005  1.0000
  C   C223      1.0  0.14739  0.51508  0.25475  1.0000
  H   H283      1.0  0.01253  0.64020  0.09106  1.0000
  H   H284      1.0  0.03810  0.61041  0.16177  1.0000
  C   C224      1.0  0.17743  0.91061  0.00940  1.0000
  H   H285      1.0  0.31585  0.96140  0.11758  1.0000
  C   C225      1.0  0.19179  0.82970  0.98807  1.0000
  S   S62       1.0  0.13125  0.71408  0.98906  1.0000
  C   C226      1.0  0.27887  0.70426  0.47304  1.0000
  C   C227      1.0  0.16179  0.80585  0.00245  1.0000
  N   N17       1.0  0.24799  0.83501  0.07258  1.0000
  C   C228      1.0  0.29803  0.71638  0.47489  1.0000
  H   H286      1.0  0.24534  0.83225  0.02637  1.0000
  C   C229      1.0  0.22834  0.50266  0.40309  1.0000
  C   C230      1.0  0.24005  0.82401  0.04664  1.0000
  C   C231      1.0  0.31637  0.95703  0.17475  1.0000
  C   C232      1.0  0.31792  0.68366  0.48301  1.0000
  C   C233      1.0  0.27896  0.68169  0.47618  1.0000
  H   H287      1.0  0.11289  0.48786  0.31454  1.0000
  H   H288      1.0  0.29941  0.65432  0.48380  1.0000
  H   H289      1.0  0.02099  0.67442  0.06615  1.0000
  C   C234      1.0  0.28553  0.82701  0.05249  1.0000
  C   C235      1.0  0.27170  0.83477  0.07479  1.0000
  Fe  Fe29      1.0  0.22389  0.58680  0.48023  1.0000
  C   C236      1.0  0.29877  0.67156  0.48134  1.0000
  H   H290      1.0  0.31831  0.96294  0.19715  1.0000
  C   C237      1.0  0.99480  0.65887  0.15684  1.0000
  C   C238      1.0  0.30786  0.82733  0.05522  1.0000
  Fe  Fe30      1.0  0.23717  0.87595  0.98632  1.0000
  C   C239      1.0  0.14831  0.49278  0.25788  1.0000
  C   C240      1.0  0.21815  0.51353  0.48301  1.0000
  C   C241      1.0  0.31705  0.83517  0.08010  1.0000
  H   H291      1.0  0.30141  0.86615  0.48313  1.0000
  Fe  Fe31      1.0  0.19960  0.61764  0.52116  1.0000
  S   S63       1.0  0.23484  0.61121  0.51225  1.0000
  S   S64       1.0  0.19225  0.62317  0.56940  1.0000
  C   C242      1.0  0.29039  0.70575  0.54756  1.0000
  Fe  Fe32      1.0  0.10780  0.58214  0.74625  1.0000
  S   S65       1.0  0.08337  0.58592  0.71169  1.0000
  S   S66       1.0  0.12424  0.54978  0.75268  1.0000
  Fe  Fe33      1.0  0.10493  0.62978  0.76270  1.0000
  S   S67       1.0  0.08081  0.63665  0.72774  1.0000
  S   S68       1.0  0.11238  0.65917  0.79001  1.0000
  Fe  Fe34      1.0  0.06498  0.60640  0.74322  1.0000
  S   S69       1.0  0.03046  0.60157  0.75861  1.0000
  Fe  Fe35      1.0  0.10175  0.61569  0.69904  1.0000
  S   S70       1.0  0.10763  0.61968  0.65019  1.0000
  S   S71       1.0  0.08829  0.60023  0.77918  1.0000
  S   S72       1.0  0.12705  0.61117  0.73265  1.0000
  Fe  Fe36      1.0  0.28194  0.88666  0.95974  1.0000
  S   S73       1.0  0.31034  0.87744  0.93024  1.0000
  S   S74       1.0  0.24820  0.89477  0.94643  1.0000
  H   H292      1.0  0.21128  0.69383  0.54647  1.0000
  H   H293      1.0  0.28842  0.94462  0.91962  1.0000
  C   C243      1.0  0.19105  0.92107  0.95341  1.0000
  H   H294      1.0  0.07127  0.66019  0.91647  1.0000
  C   C244      1.0  0.03937  0.69731  0.88408  1.0000
  H   H295      1.0  0.15781  0.85894  0.92235  1.0000
  Fe  Fe37      1.0  0.10827  0.70207  0.95609  1.0000
  S   S75       1.0  0.11762  0.67443  0.92598  1.0000
  S   S76       1.0  0.09694  0.73529  0.94479  1.0000
  H   H296      1.0  0.29482  0.97020  0.83396  1.0000
  H   H297      1.0  0.22656  0.68003  0.51939  1.0000
  S   S77       1.0  0.24671  0.95726  0.95423  1.0000
  H   H298      1.0  0.20543  0.82313  0.94618  1.0000
  H   H299      1.0  0.05452  0.66635  0.77735  1.0000
  C   C245      1.0  0.05988  0.65824  0.87282  1.0000
  H   H300      1.0  0.20664  0.89147  0.91357  1.0000
  Fe  Fe38      1.0  0.11891  0.74753  0.97968  1.0000
  C   C246      1.0  0.19337  0.81851  0.96204  1.0000
  H   H301      1.0  0.28191  0.67324  0.54468  1.0000
  C   C247      1.0  0.00642  0.60947  0.74144  1.0000
  H   H302      1.0  0.07119  0.67784  0.80402  1.0000
  C   C248      1.0  0.00533  0.62699  0.72232  1.0000
  C   C249      1.0  0.30170  0.88566  0.84314  1.0000
  H   H303      1.0  0.01980  0.63555  0.71643  1.0000
  C   C250      1.0  0.11212  0.66272  0.82811  1.0000
  C   C251      1.0  0.10891  0.68343  0.83915  1.0000
  C   C252      1.0  0.10965  0.68723  0.86906  1.0000
  C   C253      1.0  0.11429  0.67041  0.88831  1.0000
  C   C254      1.0  0.11725  0.64966  0.87730  1.0000
  C   C255      1.0  0.11593  0.64576  0.84745  1.0000
  H   H304      1.0  0.10603  0.69670  0.82443  1.0000
  H   H305      1.0  0.10705  0.70323  0.87708  1.0000
  H   H306      1.0  0.12085  0.63652  0.89195  1.0000
  H   H307      1.0  0.11860  0.62977  0.83936  1.0000
  C   C256      1.0  0.28387  0.72670  0.55301  1.0000
  C   C257      1.0  0.10947  0.52613  0.74733  1.0000
  C   C258      1.0  0.08738  0.52699  0.74264  1.0000
  H   H308      1.0  0.28167  0.88726  0.88173  1.0000
  H   H309      1.0  0.07906  0.54228  0.74239  1.0000
  H   H310      1.0  0.19329  0.86738  0.90398  1.0000
  S   S78       1.0  0.18918  0.59151  0.49166  1.0000
  C   C259      1.0  0.07586  0.50799  0.73902  1.0000
  C   C260      1.0  0.12430  0.50819  0.83769  1.0000
  H   H311      1.0  0.25766  0.74728  0.56555  1.0000
  H   H312      1.0  0.01538  0.64422  0.83252  1.0000
  C   C261      1.0  0.30145  0.96025  0.85090  1.0000
  H   H313      1.0  0.28854  0.88892  0.82873  1.0000
  C   C262      1.0  0.06154  0.66772  0.89987  1.0000
  C   C263      1.0  0.16840  0.62242  0.59127  1.0000
  C   C264      1.0  0.14805  0.61927  0.57981  1.0000
  C   C265      1.0  0.12970  0.61883  0.59812  1.0000
  C   C266      1.0  0.13138  0.62127  0.62817  1.0000
  C   C267      1.0  0.15175  0.62440  0.63965  1.0000
  C   C268      1.0  0.17007  0.62502  0.62131  1.0000
  H   H314      1.0  0.14640  0.61730  0.55681  1.0000
  H   H315      1.0  0.11406  0.61647  0.58890  1.0000
  H   H316      1.0  0.15338  0.62645  0.66263  1.0000
  H   H317      1.0  0.18569  0.62747  0.63050  1.0000
  H   H318      1.0  0.02822  0.69654  0.84102  1.0000
  C   C269      1.0  0.03753  0.68797  0.85695  1.0000
  H   H319      1.0  0.20404  0.52235  0.48995  1.0000
  H   H320      1.0  0.29797  0.78551  0.55643  1.0000
  H   H321      1.0  0.06866  0.64343  0.86989  1.0000
  C   C270      1.0  0.10716  0.51866  0.82445  1.0000
  N   N18       1.0  0.16705  0.71751  0.90506  1.0000
  C   C271      1.0  0.17144  0.70580  0.93250  1.0000
  C   C272      1.0  0.18389  0.73401  0.90122  1.0000
  C   C273      1.0  0.14598  0.72843  0.90839  1.0000
  C   C274      1.0  0.16658  0.70347  0.87956  1.0000
  C   C275      1.0  0.16826  0.68076  0.88166  1.0000
  C   C276      1.0  0.16349  0.71243  0.85158  1.0000
  C   C277      1.0  0.16709  0.66800  0.85718  1.0000
  C   C278      1.0  0.16223  0.69949  0.82729  1.0000
  C   C279      1.0  0.16403  0.67732  0.83009  1.0000
  H   H322      1.0  0.18707  0.69707  0.93152  1.0000
  H   H323      1.0  0.17207  0.71688  0.95113  1.0000
  H   H324      1.0  0.15850  0.69415  0.93797  1.0000
  H   H325      1.0  0.19991  0.72643  0.89744  1.0000
  H   H326      1.0  0.18496  0.74434  0.92059  1.0000
  H   H327      1.0  0.18066  0.74509  0.88284  1.0000
  H   H328      1.0  0.13290  0.71653  0.91074  1.0000
  H   H329      1.0  0.14536  0.73868  0.92784  1.0000
  H   H330      1.0  0.14206  0.73900  0.88971  1.0000
  H   H331      1.0  0.16969  0.67235  0.90205  1.0000
  H   H332      1.0  0.16144  0.72949  0.84837  1.0000
  H   H333      1.0  0.16771  0.65069  0.85937  1.0000
  H   H334      1.0  0.15926  0.70658  0.80623  1.0000
  H   H335      1.0  0.16227  0.66729  0.81136  1.0000
  N   N19       1.0  0.13386  0.55283  0.65684  1.0000
  C   C280      1.0  0.11510  0.56137  0.64085  1.0000
  C   C281      1.0  0.12655  0.53375  0.67365  1.0000
  C   C282      1.0  0.14067  0.56907  0.67779  1.0000
  C   C283      1.0  0.15177  0.54829  0.63638  1.0000
  C   C284      1.0  0.16140  0.52765  0.63356  1.0000
  C   C285      1.0  0.16020  0.56493  0.61851  1.0000
  H   H336      1.0  0.30396  0.95260  0.79184  1.0000
  H   H337      1.0  0.29527  0.73961  0.55030  1.0000
  H   H338      1.0  0.01309  0.66991  0.81469  1.0000
  H   H339      1.0  0.11861  0.57671  0.62940  1.0000
  H   H340      1.0  0.10973  0.54983  0.62444  1.0000
  H   H341      1.0  0.10127  0.56495  0.65556  1.0000
  H   H342      1.0  0.12090  0.52086  0.65937  1.0000
  H   H343      1.0  0.11281  0.53779  0.68831  1.0000
  H   H344      1.0  0.13943  0.52729  0.68783  1.0000
  H   H345      1.0  0.14409  0.58481  0.66736  1.0000
  H   H346      1.0  0.12799  0.57214  0.69438  1.0000
  H   H347      1.0  0.15532  0.56372  0.68941  1.0000
  H   H348      1.0  0.15629  0.51403  0.64641  1.0000
  H   H349      1.0  0.15384  0.58102  0.61960  1.0000
  H   H350      1.0  0.18535  0.50821  0.61188  1.0000
  H   H351      1.0  0.05484  0.63105  0.79641  1.0000
  H   H352      1.0  0.13736  0.51755  0.84599  1.0000
  C   C286      1.0  0.12001  0.50611  0.74770  1.0000
  H   H353      1.0  0.27502  0.96767  0.88003  1.0000
  C   C287      1.0  0.31445  0.87989  0.89213  1.0000
  C   C288      1.0  0.16122  0.86912  0.94125  1.0000
  H   H354      1.0  0.19904  0.53799  0.58120  1.0000
  C   C289      1.0  0.17702  0.56122  0.59890  1.0000
  H   H355      1.0  0.07461  0.63950  0.82095  1.0000
  S   S79       1.0  0.14563  0.77281  0.96750  1.0000
  C   C290      1.0  0.31643  0.93423  0.89582  1.0000
  C   C291      1.0  0.29772  0.88470  0.87322  1.0000
  C   C292      1.0  0.17921  0.80139  0.95623  1.0000
  H   H356      1.0  0.07740  0.51500  0.80254  1.0000
  H   H357      1.0  0.10704  0.53598  0.82215  1.0000
  H   H358      1.0  0.18313  0.57432  0.58555  1.0000
  C   C293      1.0  0.30946  0.82825  0.51154  1.0000
  H   H359      1.0  0.13713  0.50534  0.75119  1.0000
  H   H360      1.0  0.05870  0.50886  0.73598  1.0000
  Fe  Fe39      1.0  0.07144  0.72997  0.97951  1.0000
  C   C294      1.0  0.17823  0.52407  0.61379  1.0000
  H   H361      1.0  0.05301  0.69463  0.92635  1.0000
  H   H362      1.0  0.04501  0.68875  0.79768  1.0000
  H   H363      1.0  0.05097  0.62550  0.83392  1.0000
  H   H364      1.0  0.18072  0.79314  0.93594  1.0000
  N   N20       1.0  0.23825  0.67521  0.56241  1.0000
  C   C295      1.0  0.24742  0.65361  0.55673  1.0000
  C   C296      1.0  0.22926  0.67479  0.59223  1.0000
  C   C297      1.0  0.22042  0.67887  0.54203  1.0000
  C   C298      1.0  0.25414  0.69262  0.55909  1.0000
  C   C299      1.0  0.27582  0.68892  0.55029  1.0000
  H   H365      1.0  0.03163  0.71256  0.88869  1.0000
  C   C300      1.0  0.29001  0.95894  0.87710  1.0000
  Fe  Fe40      1.0  0.25205  0.92377  0.97494  1.0000
  H   H366      1.0  0.26082  0.64962  0.57150  1.0000
  H   H367      1.0  0.23522  0.64086  0.56000  1.0000
  H   H368      1.0  0.25333  0.65231  0.53401  1.0000
  H   H369      1.0  0.24223  0.67275  0.60831  1.0000
  H   H370      1.0  0.21777  0.66131  0.59552  1.0000
  H   H371      1.0  0.22014  0.68962  0.59750  1.0000
  H   H372      1.0  0.20861  0.66555  0.54307  1.0000
  C   C301      1.0  0.28671  0.78899  0.51298  1.0000
  C   C302      1.0  0.31818  0.94206  0.79513  1.0000
  C   C303      1.0  0.24803  0.71420  0.56451  1.0000
  H   H373      1.0  0.02058  0.64681  0.79436  1.0000
  N   N21       1.0  0.04558  0.65862  0.82151  1.0000
  C   C304      1.0  0.05434  0.67356  0.79922  1.0000
  C   C305      1.0  0.05702  0.63779  0.81829  1.0000
  C   C306      1.0  0.02262  0.65481  0.81555  1.0000
  C   C307      1.0  0.04773  0.66811  0.85046  1.0000
  C   C308      1.0  0.26272  0.73094  0.56149  1.0000
  H   H374      1.0  0.23176  0.71826  0.57083  1.0000
  C   C309      1.0  0.30885  0.81490  0.53660  1.0000
  C   C310      1.0  0.18600  0.54080  0.59648  1.0000
  C   C311      1.0  0.29758  0.79564  0.53726  1.0000
  C   C312      1.0  0.09048  0.50680  0.81336  1.0000
  C   C313      1.0  0.31792  0.86107  0.53685  1.0000
  H   H375      1.0  0.27849  0.77376  0.51325  1.0000
  C   C314      1.0  0.29749  0.94594  0.89949  1.0000
  H   H376      1.0  0.99852  0.50181  0.71564  1.0000
  C   C315      1.0  0.05139  0.68721  0.90546  1.0000
  H   H377      1.0  0.31215  0.92570  0.80037  1.0000
  H   H378      1.0  0.30678  0.70258  0.54043  1.0000
  H   H379      1.0  0.30038  0.86405  0.53961  1.0000
  C   C316      1.0  0.00936  0.73490  0.97480  1.0000
  H   H380      1.0  0.99666  0.72060  0.93669  1.0000
  H   H381      1.0  0.31786  0.81874  0.55556  1.0000
  C   C317      1.0  0.29832  0.82091  0.48705  1.0000
  S   S80       1.0  0.03661  0.73119  0.96288  1.0000
  H   H382      1.0  0.32192  0.92371  0.91313  1.0000
  H   H383      1.0  0.17491  0.91231  0.90022  1.0000
  N   N22       1.0  0.17527  0.88748  0.93340  1.0000
  C   C318      1.0  0.28707  0.80160  0.48797  1.0000
  C   C319      1.0  0.32079  0.94844  0.84636  1.0000
  C   C320      1.0  0.99266  0.72827  0.95686  1.0000
  C   C321      1.0  0.24431  0.98348  0.96925  1.0000
  S   S81       1.0  0.19724  0.64312  0.48640  1.0000
  C   C322      1.0  0.19582  0.87869  0.92194  1.0000
  H   H384      1.0  0.15975  0.88929  0.89204  1.0000
  H   H385      1.0  0.19741  0.92555  0.93240  1.0000
  H   H386      1.0  0.14965  0.90789  0.91842  1.0000
  H   H387      1.0  0.20467  0.86976  0.93907  1.0000
  C   C323      1.0  0.16324  0.79475  0.97633  1.0000
  C   C324      1.0  0.16445  0.89980  0.91007  1.0000
  C   C325      1.0  0.17965  0.90167  0.95795  1.0000
  H   H388      1.0  0.16894  0.85826  0.95725  1.0000
  H   H389      1.0  0.14552  0.87462  0.95034  1.0000
  C   C326      1.0  0.08628  0.48794  0.73984  1.0000
  C   C327      1.0  0.31869  0.86182  0.48506  1.0000
  H   H390      1.0  0.20364  0.94971  0.97210  1.0000
  C   C328      1.0  0.19490  0.93498  0.97608  1.0000
  Fe  Fe41      1.0  0.35264  0.11153  0.20460  1.0000
  S   S82       1.0  0.34899  0.08941  0.24364  1.0000
  C   C329      1.0  0.34522  0.00061  0.24429  1.0000
  Fe  Fe42      1.0  0.39927  0.12117  0.21913  1.0000
  S   S83       1.0  0.39872  0.09952  0.25762  1.0000
  S   S84       1.0  0.43030  0.13949  0.21233  1.0000
  Fe  Fe43      1.0  0.38123  0.07652  0.23001  1.0000
  S   S85       1.0  0.39433  0.04252  0.23101  1.0000
  Fe  Fe44      1.0  0.36678  0.11438  0.26871  1.0000
  S   S86       1.0  0.36355  0.11890  0.31788  1.0000
  S   S87       1.0  0.38424  0.09713  0.19000  1.0000
  S   S88       1.0  0.36794  0.13758  0.23102  1.0000
  Fe  Fe45      1.0  0.55125  0.09568  0.22854  1.0000
  S   S89       1.0  0.56874  0.08118  0.26602  1.0000
  S   S90       1.0  0.51688  0.08522  0.22171  1.0000
  Fe  Fe46      1.0  0.59249  0.11413  0.20160  1.0000
  S   S91       1.0  0.61288  0.10161  0.23798  1.0000
  S   S92       1.0  0.60282  0.13054  0.15898  1.0000
  Fe  Fe47      1.0  0.59399  0.07132  0.23395  1.0000
  S   S93       1.0  0.61160  0.03963  0.22919  1.0000
  Fe  Fe48      1.0  0.58624  0.11268  0.26830  1.0000
  S   S94       1.0  0.59160  0.12119  0.31603  1.0000
  S   S95       1.0  0.57528  0.08319  0.19623  1.0000
  S   S96       1.0  0.56695  0.12786  0.23211  1.0000
  Fe  Fe49      1.0  0.36360  0.20829  0.44704  1.0000
  S   S97       1.0  0.37095  0.24339  0.45159  1.0000
  S   S98       1.0  0.35395  0.20049  0.40049  1.0000
  H   H391      1.0  0.37441  0.07569  0.30102  1.0000
  H   H392      1.0  0.39132  0.05257  0.29960  1.0000
  H   H393      1.0  0.64502  0.03772  0.05382  1.0000
  H   H394      1.0  0.45183  0.19161  0.45404  1.0000
  H   H395      1.0  0.54533  0.16991  0.44446  1.0000
  Fe  Fe50      1.0  0.59542  0.20860  0.44739  1.0000
  S   S99       1.0  0.57913  0.24030  0.45693  1.0000
  S   S100      1.0  0.59747  0.20292  0.39844  1.0000
  H   H396      1.0  0.61366  0.14399  0.10074  1.0000
  H   H397      1.0  0.35303  0.16447  0.30660  1.0000
  H   H398      1.0  0.53556  0.22053  0.40518  1.0000
  H   H399      1.0  0.37109  0.02724  0.17554  1.0000
  S   S101      1.0  0.43175  0.24665  0.46776  1.0000
  H   H400      1.0  0.55414  0.20471  0.42524  1.0000
  H   H401      1.0  0.51078  0.24982  0.46286  1.0000
  C   C330      1.0  0.53010  0.17903  0.39294  1.0000
  H   H402      1.0  0.46696  0.22840  0.37812  1.0000
  C   C331      1.0  0.47608  0.24811  0.46540  1.0000
  C   C332      1.0  0.33074  0.39586  0.48124  1.0000
  C   C333      1.0  0.38160  0.99079  0.31848  1.0000
  H   H403      1.0  0.34069  0.07629  0.32521  1.0000
  H   H404      1.0  0.56500  0.99369  0.28986  1.0000
  C   C334      1.0  0.60079  0.01505  0.24148  1.0000
  C   C335      1.0  0.50814  0.99884  0.22089  1.0000
  C   C336      1.0  0.58427  0.01420  0.26222  1.0000
  H   H405      1.0  0.61360  0.25447  0.36796  1.0000
  H   H406      1.0  0.57690  0.02883  0.26991  1.0000
  C   C337      1.0  0.59486  0.17996  0.37610  1.0000
  C   C338      1.0  0.59417  0.15905  0.38734  1.0000
  C   C339      1.0  0.59296  0.14140  0.36862  1.0000
  C   C340      1.0  0.59215  0.14431  0.33843  1.0000
  C   C341      1.0  0.59240  0.16526  0.32725  1.0000
  C   C342      1.0  0.59386  0.18290  0.34595  1.0000
  H   H407      1.0  0.59502  0.15640  0.41039  1.0000
  H   H408      1.0  0.59282  0.12532  0.37761  1.0000
  H   H409      1.0  0.59186  0.16785  0.30416  1.0000
  H   H410      1.0  0.59437  0.19894  0.33689  1.0000
  C   C343      1.0  0.62339  0.12184  0.13428  1.0000
  N   N23       1.0  0.64076  0.26083  0.39478  1.0000
  H   H411      1.0  0.32968  0.05282  0.34197  1.0000
  H   H412      1.0  0.56659  0.01480  0.20107  1.0000
  C   C344      1.0  0.45432  0.12457  0.21703  1.0000
  C   C345      1.0  0.47406  0.13518  0.21853  1.0000
  C   C346      1.0  0.49343  0.12345  0.22101  1.0000
  C   C347      1.0  0.49313  0.10102  0.22148  1.0000
  C   C348      1.0  0.47334  0.09052  0.22046  1.0000
  C   C349      1.0  0.45402  0.10221  0.21847  1.0000
  H   H413      1.0  0.47442  0.15248  0.21737  1.0000
  H   H414      1.0  0.50853  0.13175  0.22204  1.0000
  H   H415      1.0  0.47294  0.07319  0.22080  1.0000
  H   H416      1.0  0.43896  0.09382  0.21715  1.0000
  C   C350      1.0  0.37903  0.01912  0.23675  1.0000
  H   H417      1.0  0.36235  0.38140  0.47970  1.0000
  C   C351      1.0  0.35666  0.01976  0.23986  1.0000
  C   C352      1.0  0.52811  0.17484  0.44434  1.0000
  H   H418      1.0  0.34817  0.03492  0.23856  1.0000
  C   C353      1.0  0.36146  0.14201  0.34027  1.0000
  C   C354      1.0  0.36486  0.13966  0.37013  1.0000
  C   C355      1.0  0.36297  0.15732  0.38883  1.0000
  C   C356      1.0  0.35742  0.17763  0.37795  1.0000
  C   C357      1.0  0.35398  0.17996  0.34809  1.0000
  C   C358      1.0  0.35606  0.16236  0.32937  1.0000
  H   H419      1.0  0.36891  0.12405  0.37896  1.0000
  H   H420      1.0  0.36554  0.15516  0.41171  1.0000
  H   H421      1.0  0.35202  0.12150  0.12638  1.0000
  H   H422      1.0  0.54708  0.17327  0.39377  1.0000
  H   H423      1.0  0.39646  0.02103  0.32259  1.0000
  N   N24       1.0  0.42363  0.15883  0.29962  1.0000
  C   C359      1.0  0.44114  0.17120  0.28540  1.0000
  C   C360      1.0  0.43002  0.13584  0.29906  1.0000
  C   C361      1.0  0.40399  0.16128  0.28221  1.0000
  C   C362      1.0  0.41948  0.16699  0.32907  1.0000
  C   C363      1.0  0.42105  0.15385  0.35430  1.0000
  C   C364      1.0  0.41341  0.18875  0.33316  1.0000
  C   C365      1.0  0.41682  0.16213  0.38172  1.0000
  C   C366      1.0  0.40903  0.19678  0.36067  1.0000
  C   C367      1.0  0.41074  0.18349  0.38488  1.0000
  H   H424      1.0  0.45601  0.17044  0.29837  1.0000
  H   H425      1.0  0.44517  0.16485  0.26356  1.0000
  H   H426      1.0  0.43675  0.18832  0.28206  1.0000
  H   H427      1.0  0.43317  0.13031  0.27660  1.0000
  H   H428      1.0  0.41705  0.12543  0.30810  1.0000
  H   H429      1.0  0.44506  0.13278  0.31111  1.0000
  H   H430      1.0  0.39840  0.17816  0.28029  1.0000
  H   H431      1.0  0.40662  0.15555  0.25982  1.0000
  H   H432      1.0  0.39059  0.15183  0.29180  1.0000
  H   H433      1.0  0.42505  0.13702  0.35345  1.0000
  H   H434      1.0  0.41152  0.19963  0.31505  1.0000
  H   H435      1.0  0.41753  0.15176  0.40064  1.0000
  H   H436      1.0  0.40360  0.21321  0.36329  1.0000
  H   H437      1.0  0.40661  0.18961  0.40606  1.0000
  C   C368      1.0  0.33596  0.11939  0.11847  1.0000
  N   N25       1.0  0.52340  0.18981  0.42001  1.0000
  S   S102      1.0  0.39238  0.19775  0.47245  1.0000
  C   C369      1.0  0.46341  0.19632  0.43746  1.0000
  C   C370      1.0  0.53683  0.20904  0.42357  1.0000
  C   C371      1.0  0.50049  0.19633  0.41858  1.0000
  H   H438      1.0  0.51982  0.16495  0.38880  1.0000
  C   C372      1.0  0.48481  0.18954  0.43930  1.0000
  H   H439      1.0  0.61826  0.26943  0.42890  1.0000
  H   H440      1.0  0.47370  0.26020  0.44880  1.0000
  H   H441      1.0  0.33685  0.41039  0.47145  1.0000
  Fe  Fe51      1.0  0.39864  0.23262  0.47942  1.0000
  H   H442      1.0  0.32668  0.02029  0.31922  1.0000
  H   H443      1.0  0.63904  0.22771  0.38183  1.0000
  H   H444      1.0  0.59636  0.04292  0.32127  1.0000
  H   H445      1.0  0.64010  0.25257  0.43990  1.0000
  H   H446      1.0  0.62265  0.99641  0.21526  1.0000
  H   H447      1.0  0.44066  0.21632  0.41517  1.0000
  H   H448      1.0  0.33177  0.05518  0.30295  1.0000
  N   N26       1.0  0.62969  0.05133  0.31515  1.0000
  H   H449      1.0  0.63749  0.09834  0.16273  1.0000
  H   H450      1.0  0.36312  0.04715  0.37056  1.0000
  C   C373      1.0  0.38978  0.99929  0.23790  1.0000
  C   C374      1.0  0.60987  0.99588  0.23130  1.0000
  C   C375      1.0  0.34236  0.01285  0.31956  1.0000
  H   H451      1.0  0.32794  0.00116  0.24677  1.0000
  C   C376      1.0  0.33994  0.05848  0.32361  1.0000
  H   H452      1.0  0.50232  0.03295  0.22444  1.0000
  H   H453      1.0  0.34506  0.12484  0.07382  1.0000
  H   H454      1.0  0.52477  0.18247  0.46559  1.0000
  H   H455      1.0  0.63053  0.09466  0.32538  1.0000
  C   C377      1.0  0.62886  0.25598  0.42194  1.0000
  H   H456      1.0  0.64242  0.13325  0.06582  1.0000
  C   C378      1.0  0.64212  0.06793  0.29923  1.0000
  C   C379      1.0  0.64139  0.12553  0.08681  1.0000
  H   H457      1.0  0.40707  0.99868  0.23548  1.0000
  C   C380      1.0  0.45704  0.21027  0.41549  1.0000
  H   H458      1.0  0.60110  0.07121  0.31809  1.0000
  H   H459      1.0  0.51862  0.15990  0.44301  1.0000
  H   H460      1.0  0.53210  0.21778  0.44349  1.0000
  C   C381      1.0  0.47195  0.21719  0.39482  1.0000
  H   H461      1.0  0.65014  0.12231  0.29912  1.0000
  H   H462      1.0  0.49165  0.99560  0.22674  1.0000
  C   C382      1.0  0.62504  0.13158  0.10672  1.0000
  H   H463      1.0  0.34170  0.04957  0.15581  1.0000
  H   H464      1.0  0.63041  0.02645  0.28319  1.0000
  C   C383      1.0  0.64081  0.08970  0.30767  1.0000
  C   C384      1.0  0.38120  0.01305  0.32135  1.0000
  C   C385      1.0  0.35553  0.99725  0.16723  1.0000
  S   S103      1.0  0.57734  0.19075  0.48241  1.0000
  C   C386      1.0  0.37172  0.05454  0.35176  1.0000
  C   C387      1.0  0.65194  0.10575  0.29261  1.0000
  C   C388      1.0  0.54460  0.98868  0.20786  1.0000
  C   C389      1.0  0.34049  0.03223  0.15577  1.0000
  H   H465      1.0  0.63175  0.30140  0.41426  1.0000
  C   C390      1.0  0.55021  0.01031  0.20640  1.0000
  H   H466      1.0  0.62567  0.01694  0.31874  1.0000
  H   H467      1.0  0.34955  0.19552  0.33938  1.0000
  N   N27       1.0  0.53062  0.11610  0.13970  1.0000
  C   C391      1.0  0.53870  0.09362  0.13981  1.0000
  C   C392      1.0  0.53889  0.12661  0.11291  1.0000
  C   C393      1.0  0.53990  0.12689  0.16481  1.0000
  C   C394      1.0  0.50690  0.11786  0.14137  1.0000
  C   C395      1.0  0.49666  0.13827  0.13986  1.0000
  C   C396      1.0  0.49339  0.09980  0.14557  1.0000
  C   C397      1.0  0.47434  0.14042  0.14211  1.0000
  C   C398      1.0  0.47107  0.10215  0.14762  1.0000
  C   C399      1.0  0.46158  0.12239  0.14592  1.0000
  H   H468      1.0  0.53221  0.08448  0.12152  1.0000
  H   H469      1.0  0.55655  0.09286  0.13782  1.0000
  H   H470      1.0  0.53449  0.08513  0.16041  1.0000
  H   H471      1.0  0.53154  0.11960  0.09349  1.0000
  H   H472      1.0  0.55669  0.12478  0.11071  1.0000
  H   H473      1.0  0.53571  0.14413  0.11241  1.0000
  H   H474      1.0  0.53399  0.11949  0.18534  1.0000
  H   H475      1.0  0.55774  0.12569  0.16463  1.0000
  H   H476      1.0  0.53581  0.14423  0.16543  1.0000
  H   H477      1.0  0.50587  0.15277  0.13759  1.0000
  H   H478      1.0  0.49962  0.08371  0.14821  1.0000
  H   H479      1.0  0.46684  0.15616  0.14162  1.0000
  H   H480      1.0  0.46109  0.08825  0.15161  1.0000
  H   H481      1.0  0.44432  0.12416  0.14857  1.0000
  N   N28       1.0  0.36168  0.04846  0.32430  1.0000
  H   H482      1.0  0.62584  0.03916  0.35876  1.0000
  H   H483      1.0  0.37146  0.07227  0.35461  1.0000
  H   H484      1.0  0.36737  0.05347  0.27905  1.0000
  C   C400      1.0  0.36157  0.02482  0.32182  1.0000
  C   C401      1.0  0.49334  0.21030  0.39619  1.0000
  C   C402      1.0  0.63838  0.10592  0.14163  1.0000
  S   S104      1.0  0.62345  0.21528  0.47629  1.0000
  H   H485      1.0  0.48870  0.17958  0.45773  1.0000
  H   H486      1.0  0.60309  0.05476  0.28691  1.0000
  C   C403      1.0  0.51402  0.02045  0.21963  1.0000
  C   C404      1.0  0.37427  0.05792  0.30005  1.0000
  C   C405      1.0  0.45802  0.23864  0.47887  1.0000
  C   C406      1.0  0.33192  0.12134  0.08860  1.0000
  C   C407      1.0  0.60655  0.05522  0.31032  1.0000
  H   H487      1.0  0.50438  0.21641  0.37996  1.0000
  H   H488      1.0  0.63348  0.27192  0.35188  1.0000
  H   H489      1.0  0.52929  0.18989  0.37380  1.0000
  H   H490      1.0  0.61827  0.24186  0.41970  1.0000
  H   H491      1.0  0.61530  0.28159  0.37923  1.0000
  C   C408      1.0  0.62514  0.26753  0.37249  1.0000
  H   H492      1.0  0.53951  0.04289  0.21184  1.0000
  H   H493      1.0  0.62749  0.06747  0.35623  1.0000
  C   C409      1.0  0.53500  0.02615  0.21245  1.0000
  H   H494      1.0  0.33351  0.24260  0.41280  1.0000
  C   C410      1.0  0.63381  0.05244  0.34656  1.0000
  C   C411      1.0  0.64860  0.29852  0.40976  1.0000
  H   H495      1.0  0.38882  0.04942  0.35276  1.0000
  C   C412      1.0  0.49718  0.24215  0.47323  1.0000
  C   C413      1.0  0.35706  0.01961  0.16682  1.0000
  C   C414      1.0  0.65110  0.24056  0.38510  1.0000
  C   C415      1.0  0.57747  0.99428  0.27340  1.0000
  C   C416      1.0  0.63486  0.02912  0.30598  1.0000
  H   H496      1.0  0.65223  0.02535  0.30836  1.0000
  H   H497      1.0  0.65133  0.05145  0.35081  1.0000
  S   S105      1.0  0.32270  0.11529  0.17631  1.0000
  C   C417      1.0  0.34298  0.99055  0.31683  1.0000
  H   H498      1.0  0.36881  0.98859  0.17671  1.0000
  H   H499      1.0  0.32408  0.26197  0.43845  1.0000
  H   H500      1.0  0.32896  0.17075  0.10887  1.0000
  C   C418      1.0  0.65482  0.06337  0.27426  1.0000
  C   C419      1.0  0.65493  0.10015  0.12195  1.0000
  C   C420      1.0  0.32233  0.02254  0.14488  1.0000
  Fe  Fe52      1.0  0.37103  0.20015  0.51248  1.0000
  S   S106      1.0  0.37840  0.23500  0.52033  1.0000
  S   S107      1.0  0.37417  0.17120  0.54383  1.0000
  Fe  Fe53      1.0  0.60349  0.20033  0.51260  1.0000
  S   S108      1.0  0.58783  0.23147  0.52485  1.0000
  S   S109      1.0  0.61975  0.17914  0.54702  1.0000
  Fe  Fe54      1.0  0.36435  0.07386  0.73121  1.0000
  S   S110      1.0  0.38631  0.07725  0.76859  1.0000
  S   S111      1.0  0.34673  0.04266  0.72483  1.0000
  Fe  Fe55      1.0  0.37213  0.12011  0.70887  1.0000
  S   S112      1.0  0.39476  0.12619  0.74549  1.0000
  S   S113      1.0  0.36393  0.14915  0.67953  1.0000
  Fe  Fe56      1.0  0.40836  0.09342  0.73644  1.0000
  S   S114      1.0  0.44239  0.08113  0.72839  1.0000
  Fe  Fe57      1.0  0.37031  0.10936  0.77436  1.0000
  S   S115      1.0  0.36135  0.12147  0.81955  1.0000
  S   S116      1.0  0.38712  0.08820  0.69832  1.0000
  S   S117      1.0  0.34697  0.10521  0.73856  1.0000
  Fe  Fe58      1.0  0.58428  0.07063  0.72758  1.0000
  S   S118      1.0  0.58177  0.08060  0.77401  1.0000
  S   S119      1.0  0.57378  0.03824  0.71085  1.0000
  Fe  Fe59      1.0  0.58877  0.11789  0.70438  1.0000
  S   S120      1.0  0.58725  0.13055  0.74976  1.0000
  S   S121      1.0  0.58072  0.14010  0.66552  1.0000
  Fe  Fe60      1.0  0.60902  0.10290  0.76251  1.0000
  S   S122      1.0  0.63952  0.10629  0.78966  1.0000
  Fe  Fe61      1.0  0.56039  0.10728  0.75780  1.0000
  S   S123      1.0  0.52870  0.11897  0.77700  1.0000
  S   S124      1.0  0.61256  0.09156  0.71602  1.0000
  S   S125      1.0  0.56103  0.09588  0.71263  1.0000
  C   C421      1.0  0.58672  0.01306  0.71585  1.0000
  H   H501      1.0  0.45699  0.01988  0.67965  1.0000
  C   C422      1.0  0.60851  0.01122  0.72239  1.0000
  C   C423      1.0  0.35234  0.99886  0.72401  1.0000
  H   H502      1.0  0.61782  0.02550  0.72566  1.0000
  H   H503      1.0  0.54529  0.14209  0.71433  1.0000
  C   C424      1.0  0.62647  0.10801  0.84774  1.0000
  H   H504      1.0  0.61725  0.11142  0.89257  1.0000
  H   H505      1.0  0.61019  0.10907  0.84007  1.0000
  C   C425      1.0  0.46587  0.09141  0.74365  1.0000
  C   C426      1.0  0.48571  0.08274  0.73484  1.0000
  C   C427      1.0  0.50498  0.09059  0.74566  1.0000
  C   C428      1.0  0.50462  0.10737  0.76530  1.0000
  C   C429      1.0  0.48473  0.11591  0.77447  1.0000
  C   C430      1.0  0.46537  0.10797  0.76365  1.0000
  H   H506      1.0  0.48620  0.07004  0.71932  1.0000
  H   H507      1.0  0.52012  0.08369  0.73871  1.0000
  H   H508      1.0  0.48431  0.12885  0.78976  1.0000
  H   H509      1.0  0.45014  0.11473  0.77065  1.0000
  C   C431      1.0  0.35992  0.01843  0.73427  1.0000
  C   C432      1.0  0.37772  0.01834  0.75223  1.0000
  H   H510      1.0  0.40170  0.99913  0.77365  1.0000
  H   H511      1.0  0.38355  0.03315  0.76062  1.0000
  C   C433      1.0  0.38801  0.99899  0.75959  1.0000
  S   S126      1.0  0.34159  0.20807  0.48619  1.0000
  C   C434      1.0  0.60858  0.16835  0.57986  1.0000
  C   C435      1.0  0.58741  0.17262  0.58873  1.0000
  C   C436      1.0  0.57934  0.16394  0.61501  1.0000
  C   C437      1.0  0.59223  0.15089  0.63291  1.0000
  C   C438      1.0  0.61335  0.14647  0.62396  1.0000
  C   C439      1.0  0.62144  0.15518  0.59768  1.0000
  H   H512      1.0  0.57724  0.18265  0.57537  1.0000
  H   H513      1.0  0.56295  0.16741  0.62146  1.0000
  H   H514      1.0  0.62350  0.13643  0.63732  1.0000
  H   H515      1.0  0.63782  0.15171  0.59111  1.0000
  C   C440      1.0  0.37168  0.16575  0.58182  1.0000
  C   C441      1.0  0.37711  0.14514  0.59243  1.0000
  C   C442      1.0  0.37513  0.13982  0.62212  1.0000
  C   C443      1.0  0.36749  0.15502  0.64178  1.0000
  C   C444      1.0  0.36211  0.17565  0.63122  1.0000
  C   C445      1.0  0.36425  0.18102  0.60154  1.0000
  H   H516      1.0  0.62630  0.15802  0.85326  1.0000
  C   C446      1.0  0.48978  0.01646  0.73464  1.0000
  H   H517      1.0  0.35618  0.18761  0.64605  1.0000
  H   H518      1.0  0.35996  0.19691  0.59388  1.0000
  H   H519      1.0  0.44300  0.01322  0.76980  1.0000
  C   C447      1.0  0.44328  0.02404  0.75053  1.0000
  H   H520      1.0  0.62762  0.26397  0.58888  1.0000
  H   H521      1.0  0.38281  0.13314  0.57748  1.0000
  C   C448      1.0  0.64894  0.29350  0.48697  1.0000
  H   H522      1.0  0.48478  0.20528  0.52517  1.0000
  H   H523      1.0  0.52379  0.01871  0.74247  1.0000
  H   H524      1.0  0.43501  0.03494  0.69540  1.0000
  H   H525      1.0  0.33853  0.99879  0.71015  1.0000
  N   N29       1.0  0.33111  0.17334  0.75064  1.0000
  H   H526      1.0  0.50023  0.17984  0.72965  1.0000
  C   C449      1.0  0.64884  0.31595  0.49029  1.0000
  H   H527      1.0  0.63956  0.22071  0.53841  1.0000
  H   H528      1.0  0.35803  0.07236  0.82952  1.0000
  H   H529      1.0  0.51407  0.05994  0.68361  1.0000
  H   H530      1.0  0.44774  0.21562  0.51100  1.0000
  H   H531      1.0  0.35213  0.13045  0.87912  1.0000
  H   H532      1.0  0.35281  0.15035  0.77059  1.0000
  H   H533      1.0  0.50121  0.17665  0.64812  1.0000
  C   C450      1.0  0.64348  0.10589  0.82787  1.0000
  H   H534      1.0  0.32343  0.14885  0.79910  1.0000
  H   H535      1.0  0.52211  0.12579  0.71352  1.0000
  C   C451      1.0  0.35299  0.16547  0.75768  1.0000
  H   H536      1.0  0.32970  0.05661  0.91986  1.0000
  C   C452      1.0  0.33765  0.11780  0.84110  1.0000
  C   C453      1.0  0.45115  0.02778  0.69968  1.0000
  C   C454      1.0  0.61846  0.99083  0.72371  1.0000
  C   C455      1.0  0.34460  0.06160  0.83304  1.0000
  C   C456      1.0  0.33350  0.19089  0.72888  1.0000
  H   H537      1.0  0.44328  0.14101  0.64511  1.0000
  H   H538      1.0  0.64346  0.29148  0.56113  1.0000
  C   C457      1.0  0.33763  0.12402  0.87018  1.0000
  H   H539      1.0  0.64531  0.16352  0.89757  1.0000
  C   C458      1.0  0.43388  0.99624  0.71800  1.0000
  H   H540      1.0  0.34579  0.04986  0.78961  1.0000
  C   C459      1.0  0.48248  0.21720  0.50832  1.0000
  H   H541      1.0  0.46172  0.04161  0.70371  1.0000
  H   H542      1.0  0.45379  0.03781  0.75534  1.0000
  Fe  Fe62      1.0  0.56216  0.22266  0.49318  1.0000
  C   C460      1.0  0.63056  0.10937  0.87759  1.0000
  H   H543      1.0  0.34230  0.18530  0.70916  1.0000
  N   N30       1.0  0.57170  0.07947  0.62379  1.0000
  C   C461      1.0  0.58773  0.07955  0.64708  1.0000
  C   C462      1.0  0.57256  0.05825  0.60971  1.0000
  C   C463      1.0  0.57830  0.09582  0.60190  1.0000
  C   C464      1.0  0.54997  0.08333  0.63623  1.0000
  C   C465      1.0  0.53739  0.10185  0.62950  1.0000
  C   C466      1.0  0.54080  0.06832  0.65599  1.0000
  C   C467      1.0  0.51681  0.10475  0.64149  1.0000
  C   C468      1.0  0.52039  0.07153  0.66814  1.0000
  C   C469      1.0  0.50837  0.08968  0.66086  1.0000
  H   H544      1.0  0.58461  0.06697  0.66380  1.0000
  H   H545      1.0  0.60433  0.07671  0.63872  1.0000
  H   H546      1.0  0.58764  0.09522  0.65817  1.0000
  H   H547      1.0  0.55964  0.05688  0.59354  1.0000
  H   H548      1.0  0.57073  0.04477  0.62550  1.0000
  H   H549      1.0  0.58825  0.05542  0.59851  1.0000
  H   H550      1.0  0.57923  0.11202  0.61151  1.0000
  H   H551      1.0  0.59461  0.09245  0.59280  1.0000
  H   H552      1.0  0.56703  0.09653  0.58352  1.0000
  H   H553      1.0  0.54312  0.11444  0.61526  1.0000
  H   H554      1.0  0.54957  0.05415  0.66279  1.0000
  H   H555      1.0  0.50743  0.11891  0.63601  1.0000
  H   H556      1.0  0.53524  0.13351  0.68041  1.0000
  H   H557      1.0  0.49255  0.09214  0.67041  1.0000
  H   H558      1.0  0.42687  0.03103  0.74798  1.0000
  H   H559      1.0  0.36192  0.17748  0.77020  1.0000
  H   H560      1.0  0.64594  0.21943  0.59177  1.0000
  H   H561      1.0  0.61787  0.24017  0.57277  1.0000
  H   H562      1.0  0.33981  0.07175  0.87589  1.0000
  H   H563      1.0  0.64735  0.24415  0.51790  1.0000
  S   S127      1.0  0.62383  0.27919  0.48998  1.0000
  H   H564      1.0  0.37927  0.12386  0.62969  1.0000
  H   H565      1.0  0.32710  0.15046  0.71668  1.0000
  S   S128      1.0  0.52671  0.21860  0.50634  1.0000
  H   H566      1.0  0.34288  0.20442  0.73744  1.0000
  N   N31       1.0  0.45046  0.01240  0.72436  1.0000
  H   H567      1.0  0.46793  0.16818  0.62444  1.0000
  H   H568      1.0  0.52579  0.16988  0.74226  1.0000
  H   H569      1.0  0.64576  0.15462  0.80684  1.0000
  H   H570      1.0  0.36266  0.16195  0.73791  1.0000
  H   H571      1.0  0.48571  0.12957  0.71506  1.0000
  C   C470      1.0  0.50053  0.22669  0.49490  1.0000
  Fe  Fe63      1.0  0.34992  0.24309  0.49151  1.0000
  C   C471      1.0  0.33391  0.06103  0.85979  1.0000
  H   H572      1.0  0.50329  0.15286  0.74295  1.0000
  C   C472      1.0  0.65142  0.23394  0.53696  1.0000
  C   C473      1.0  0.33770  0.04901  0.81049  1.0000
  H   H573      1.0  0.45253  0.12175  0.69035  1.0000
  N   N32       1.0  0.51677  0.15874  0.70024  1.0000
  C   C474      1.0  0.53006  0.17576  0.68641  1.0000
  C   C475      1.0  0.51123  0.16570  0.72994  1.0000
  C   C476      1.0  0.53034  0.13919  0.70215  1.0000
  C   C477      1.0  0.49692  0.15397  0.68444  1.0000
  C   C478      1.0  0.49126  0.16453  0.65820  1.0000
  C   C479      1.0  0.48246  0.13829  0.69534  1.0000
  C   C480      1.0  0.47215  0.15976  0.64423  1.0000
  C   C481      1.0  0.46343  0.13364  0.68125  1.0000
  C   C482      1.0  0.45823  0.14443  0.65579  1.0000
  H   H574      1.0  0.52115  0.19127  0.68501  1.0000
  H   H575      1.0  0.54492  0.17871  0.69882  1.0000
  H   H576      1.0  0.53570  0.17106  0.66446  1.0000
  H   H577      1.0  0.48769  0.03359  0.73634  1.0000
  C   C483      1.0  0.34564  0.37927  0.48587  1.0000
  C   C484      1.0  0.65164  0.10833  0.88820  1.0000
  H   H578      1.0  0.35063  0.34694  0.50146  1.0000
  C   C485      1.0  0.57491  0.99435  0.71141  1.0000
  H   H579      1.0  0.55814  0.99563  0.70597  1.0000
  Fe  Fe64      1.0  0.60662  0.24620  0.48735  1.0000
  H   H580      1.0  0.63544  0.98956  0.72805  1.0000
  C   C486      1.0  0.51048  0.00809  0.73841  1.0000
  C   C487      1.0  0.64357  0.16003  0.85248  1.0000
  C   C488      1.0  0.46139  0.22305  0.50036  1.0000
  H   H581      1.0  0.63376  0.32414  0.49440  1.0000
  C   C489      1.0  0.33913  0.35986  0.49819  1.0000
  C   C490      1.0  0.47211  0.00300  0.72895  1.0000
  H   H582      1.0  0.41790  0.00384  0.71416  1.0000
  N   N33       1.0  0.65131  0.24678  0.56359  1.0000
  H   H583      1.0  0.62232  0.26330  0.55059  1.0000
  C   C491      1.0  0.62885  0.25398  0.56924  1.0000
  C   C492      1.0  0.65452  0.15810  0.82625  1.0000
  C   C493      1.0  0.65481  0.16323  0.87792  1.0000
  Fe  Fe65      1.0  0.40278  0.90216  0.24602  1.0000
  S   S129      1.0  0.37844  0.90798  0.28160  1.0000
  S   S130      1.0  0.43668  0.90528  0.26308  1.0000
  Fe  Fe66      1.0  0.36719  0.89242  0.20188  1.0000
  S   S131      1.0  0.34111  0.89610  0.23540  1.0000
  S   S132      1.0  0.36152  0.88706  0.15355  1.0000
  Fe  Fe67      1.0  0.35945  0.92549  0.24772  1.0000
  S   S133      1.0  0.34147  0.95706  0.25218  1.0000
  Fe  Fe68      1.0  0.36288  0.87801  0.26635  1.0000
  S   S134      1.0  0.35554  0.84858  0.29519  1.0000
  S   S135      1.0  0.38501  0.92232  0.21355  1.0000
  S   S136      1.0  0.38771  0.87171  0.23142  1.0000
  Fe  Fe69      1.0  0.58432  0.91991  0.25401  1.0000
  S   S137      1.0  0.57690  0.91906  0.20695  1.0000
  S   S138      1.0  0.57869  0.95049  0.27898  1.0000
  Fe  Fe70      1.0  0.59338  0.87159  0.25805  1.0000
  S   S139      1.0  0.58592  0.86745  0.21079  1.0000
  S   S140      1.0  0.60613  0.84180  0.28229  1.0000
  Fe  Fe71      1.0  0.60556  0.89704  0.20238  1.0000
  S   S141      1.0  0.63225  0.90442  0.16885  1.0000
  Fe  Fe72      1.0  0.55794  0.88977  0.21913  1.0000
  S   S142      1.0  0.52540  0.88571  0.19856  1.0000
  S   S143      1.0  0.61450  0.90017  0.24923  1.0000
  S   S144      1.0  0.56376  0.89165  0.26663  1.0000
  Fe  Fe73      1.0  0.60038  0.78942  0.45164  1.0000
  S   S145      1.0  0.59640  0.75336  0.45194  1.0000
  S   S146      1.0  0.59602  0.81538  0.41624  1.0000
  Fe  Fe74      1.0  0.36672  0.79972  0.46013  1.0000
  S   S147      1.0  0.38311  0.76833  0.44965  1.0000
  S   S148      1.0  0.35896  0.82929  0.43160  1.0000
  C   C494      1.0  0.35406  0.95156  0.16734  1.0000
  C   C495      1.0  0.47465  0.77766  0.41258  1.0000
  H   H584      1.0  0.39777  0.86474  0.32320  1.0000
  C   C496      1.0  0.53418  0.80987  0.41988  1.0000
  H   H585      1.0  0.42135  0.81448  0.29463  1.0000
  C   C497      1.0  0.65183  0.58352  0.47241  1.0000
  C   C498      1.0  0.60285  0.83459  0.31956  1.0000
  C   C499      1.0  0.59308  0.84832  0.33954  1.0000
  C   C500      1.0  0.59132  0.84216  0.36893  1.0000
  C   C501      1.0  0.59917  0.82218  0.37885  1.0000
  C   C502      1.0  0.60865  0.80829  0.35881  1.0000
  C   C503      1.0  0.61055  0.81452  0.32943  1.0000
  H   H586      1.0  0.58710  0.86381  0.33243  1.0000
  H   H587      1.0  0.58393  0.85307  0.38413  1.0000
  H   H588      1.0  0.61472  0.79286  0.36597  1.0000
  H   H589      1.0  0.61812  0.80373  0.31425  1.0000
  H   H590      1.0  0.39857  0.83629  0.35447  1.0000
  C   C504      1.0  0.63287  0.87445  0.12440  1.0000
  H   H591      1.0  0.62067  0.86584  0.13649  1.0000
  H   H592      1.0  0.52335  0.82252  0.41105  1.0000
  C   C505      1.0  0.45320  0.83679  0.34823  1.0000
  C   C506      1.0  0.58671  0.97512  0.26337  1.0000
  H   H593      1.0  0.40893  0.87280  0.28946  1.0000
  H   H594      1.0  0.60987  0.96128  0.23403  1.0000
  H   H595      1.0  0.49136  0.93758  0.22365  1.0000
  C   C507      1.0  0.50077  0.89025  0.21707  1.0000
  C   C508      1.0  0.50001  0.89494  0.24647  1.0000
  C   C509      1.0  0.48021  0.89942  0.26019  1.0000
  C   C510      1.0  0.46097  0.89899  0.24478  1.0000
  C   C511      1.0  0.46165  0.89393  0.21552  1.0000
  C   C512      1.0  0.48150  0.88965  0.20173  1.0000
  H   H596      1.0  0.51467  0.89519  0.25861  1.0000
  H   H597      1.0  0.47981  0.90328  0.28286  1.0000
  H   H598      1.0  0.44694  0.89353  0.20345  1.0000
  H   H599      1.0  0.48195  0.88595  0.17899  1.0000
  C   C513      1.0  0.35850  0.83413  0.39351  1.0000
  C   C514      1.0  0.35862  0.85545  0.38308  1.0000
  C   C515      1.0  0.35782  0.86021  0.35321  1.0000
  C   C516      1.0  0.35650  0.84367  0.33325  1.0000
  C   C517      1.0  0.35625  0.82235  0.34368  1.0000
  C   C518      1.0  0.35747  0.81758  0.37353  1.0000
  H   H600      1.0  0.35935  0.86843  0.39824  1.0000
  H   H601      1.0  0.35794  0.87669  0.34567  1.0000
  H   H602      1.0  0.45479  0.83621  0.28730  1.0000
  H   H603      1.0  0.35720  0.80110  0.38108  1.0000
  C   C519      1.0  0.54263  0.79664  0.37279  1.0000
  H   H604      1.0  0.63181  0.82848  0.18754  1.0000
  H   H605      1.0  0.48427  0.96237  0.20666  1.0000
  H   H606      1.0  0.32424  0.85389  0.46480  1.0000
  H   H607      1.0  0.38692  0.96507  0.24362  1.0000
  H   H608      1.0  0.46086  0.78326  0.42501  1.0000
  H   H609      1.0  0.52768  0.95591  0.26084  1.0000
  H   H610      1.0  0.35634  0.88509  0.09212  1.0000
  C   C520      1.0  0.51029  0.76206  0.38210  1.0000
  H   H611      1.0  0.52370  0.75517  0.37033  1.0000
  C   C521      1.0  0.44134  0.82559  0.39615  1.0000
  H   H612      1.0  0.54577  0.78266  0.35876  1.0000
  C   C522      1.0  0.44472  0.85082  0.29038  1.0000
  C   C523      1.0  0.49437  0.78804  0.41452  1.0000
  H   H613      1.0  0.54342  0.76925  0.43661  1.0000
  C   C524      1.0  0.49490  0.95505  0.22324  1.0000
  C   C525      1.0  0.47271  0.75963  0.39556  1.0000
  N   N34       1.0  0.33496  0.96321  0.15621  1.0000
  H   H614      1.0  0.44492  0.82046  0.41802  1.0000
  C   C526      1.0  0.42007  0.82790  0.38783  1.0000
  H   H615      1.0  0.48894  0.73768  0.36726  1.0000
  C   C527      1.0  0.41321  0.86676  0.31129  1.0000
  C   C528      1.0  0.33725  0.98682  0.15615  1.0000
  H   H616      1.0  0.42237  0.87962  0.32188  1.0000
  H   H617      1.0  0.51841  0.93168  0.18869  1.0000
  H   H618      1.0  0.36286  0.96238  0.31306  1.0000
  C   C529      1.0  0.37837  0.98020  0.24231  1.0000
  H   H619      1.0  0.35197  0.93384  0.16681  1.0000
  H   H620      1.0  0.55173  0.76016  0.40172  1.0000
  C   C530      1.0  0.52309  0.94889  0.18861  1.0000
  H   H621      1.0  0.46673  0.84008  0.33410  1.0000
  N   N35       1.0  0.42589  0.84659  0.30962  1.0000
  H   H622      1.0  0.45744  0.75148  0.39462  1.0000
  C   C531      1.0  0.33849  0.89095  0.13146  1.0000
  C   C532      1.0  0.64060  0.89380  0.13481  1.0000
  H   H623      1.0  0.39678  0.98219  0.31724  1.0000
  H   H624      1.0  0.36874  0.95515  0.15425  1.0000
  C   C533      1.0  0.34073  0.88888  0.10133  1.0000
  H   H625      1.0  0.39721  0.82734  0.30732  1.0000
  N   N36       1.0  0.51790  0.95918  0.21657  1.0000
  H   H626      1.0  0.35515  0.80939  0.32854  1.0000
  C   C534      1.0  0.63454  0.84316  0.20015  1.0000
  C   C535      1.0  0.53071  0.94854  0.23941  1.0000
  H   H627      1.0  0.65192  0.87985  0.21548  1.0000
  C   C536      1.0  0.36252  0.97957  0.31625  1.0000
  H   H628      1.0  0.55045  0.81709  0.42091  1.0000
  H   H629      1.0  0.54056  0.94897  0.18342  1.0000
  H   H630      1.0  0.51460  0.95705  0.17055  1.0000
  C   C537      1.0  0.64119  0.86598  0.09837  1.0000
  C   C538      1.0  0.54934  0.77469  0.41498  1.0000
  C   C539      1.0  0.51289  0.78043  0.39939  1.0000
  C   C540      1.0  0.41268  0.83011  0.29569  1.0000
  C   C541      1.0  0.60264  0.97596  0.24187  1.0000
  C   C542      1.0  0.35606  0.98079  0.24563  1.0000
  H   H631      1.0  0.62448  0.84161  0.22015  1.0000
  H   H632      1.0  0.65312  0.51908  0.45119  1.0000
  H   H633      1.0  0.52722  0.93113  0.24134  1.0000
  C   C543      1.0  0.41528  0.83465  0.35979  1.0000
  H   H634      1.0  0.43971  0.85629  0.26845  1.0000
  H   H635      1.0  0.64671  0.68925  0.46077  1.0000
  H   H636      1.0  0.40821  0.83500  0.27335  1.0000
  C   C544      1.0  0.49047  0.75188  0.38025  1.0000
  H   H637      1.0  0.49476  0.80161  0.42865  1.0000
  H   H638      1.0  0.34443  0.96116  0.11151  1.0000
  N   N37       1.0  0.53427  0.79038  0.40182  1.0000
  H   H639      1.0  0.40715  0.82453  0.40320  1.0000
  H   H640      1.0  0.45479  0.86396  0.29870  1.0000
  H   H641      1.0  0.55825  0.80510  0.37412  1.0000
  H   H642      1.0  0.53125  0.80761  0.36150  1.0000
  C   C545      1.0  0.45787  0.82998  0.37639  1.0000
  H   H643      1.0  0.52943  0.80613  0.44260  1.0000
  H   H644      1.0  0.47440  0.82819  0.38298  1.0000
  H   H645      1.0  0.35698  0.95557  0.19026  1.0000
  C   C546      1.0  0.43163  0.83932  0.33908  1.0000
  H   H646      1.0  0.32500  0.88960  0.05990  1.0000
  H   H647      1.0  0.33100  0.93787  0.12545  1.0000
  H   H648      1.0  0.56552  0.78169  0.41774  1.0000
  H   H649      1.0  0.49012  0.96108  0.24490  1.0000
  H   H650      1.0  0.63536  0.85081  0.09087  1.0000
  C   C547      1.0  0.33138  0.95569  0.12644  1.0000
  H   H651      1.0  0.54820  0.94972  0.23502  1.0000
  H   H652      1.0  0.63549  0.58928  0.47545  1.0000
  C   C548      1.0  0.52334  0.98224  0.21501  1.0000
  H   H653      1.0  0.55720  0.97701  0.20379  1.0000
  H   H654      1.0  0.64260  0.55102  0.47372  1.0000
  H   H655      1.0  0.33436  0.83577  0.08197  1.0000
  H   H656      1.0  0.62825  0.85697  0.18723  1.0000
  H   H657      1.0  0.32827  0.98170  0.31405  1.0000
  C   C549      1.0  0.32296  0.89149  0.08294  1.0000
  S   S149      1.0  0.34291  0.72061  0.48283  1.0000
  H   H658      1.0  0.64886  0.86274  0.24631  1.0000
  Fe  Fe75      1.0  0.36061  0.75359  0.48398  1.0000
  H   H659      1.0  0.45898  0.73803  0.48407  1.0000
  Fe  Fe76      1.0  0.59867  0.79131  0.51901  1.0000
  S   S150      1.0  0.59471  0.75546  0.52323  1.0000
  S   S151      1.0  0.59331  0.81852  0.55174  1.0000
  C   C550      1.0  0.46885  0.87478  0.82766  1.0000
  H   H660      1.0  0.43798  0.98711  0.69820  1.0000
  C   C551      1.0  0.32245  0.88220  0.83154  1.0000
  H   H661      1.0  0.52499  0.89557  0.87714  1.0000
  Fe  Fe77      1.0  0.57112  0.75885  0.48681  1.0000
  H   H662      1.0  0.63132  0.90122  0.59549  1.0000
  Fe  Fe78      1.0  0.36825  0.79073  0.52615  1.0000
  S   S152      1.0  0.38482  0.75891  0.51947  1.0000
  S   S153      1.0  0.35977  0.80020  0.57284  1.0000
  H   H663      1.0  0.63332  0.91760  0.81469  1.0000
  C   C552      1.0  0.53232  0.88431  0.86133  1.0000
  H   H664      1.0  0.64099  0.98569  0.81560  1.0000
  C   C553      1.0  0.62230  0.89870  0.65745  1.0000
  C   C554      1.0  0.63960  0.93175  0.82485  1.0000
  Fe  Fe79      1.0  0.37284  0.88745  0.70159  1.0000
  S   S154      1.0  0.37347  0.86192  0.73634  1.0000
  S   S155      1.0  0.37031  0.88263  0.65259  1.0000
  Fe  Fe80      1.0  0.38544  0.92265  0.74480  1.0000
  S   S156      1.0  0.38781  0.89913  0.78175  1.0000
  S   S157      1.0  0.39558  0.95606  0.75698  1.0000
  Fe  Fe81      1.0  0.40422  0.87759  0.74972  1.0000
  S   S158      1.0  0.43495  0.85859  0.75705  1.0000
  Fe  Fe82      1.0  0.35688  0.88619  0.76539  1.0000
  C   C555      1.0  0.49719  0.97237  0.73187  1.0000
  S   S159      1.0  0.40425  0.90205  0.71410  1.0000
  S   S160      1.0  0.35385  0.91079  0.72935  1.0000
  Fe  Fe83      1.0  0.59225  0.87032  0.71398  1.0000
  S   S161      1.0  0.57014  0.86551  0.75270  1.0000
  S   S162      1.0  0.60228  0.84193  0.68539  1.0000
  Fe  Fe84      1.0  0.60016  0.91711  0.72894  1.0000
  S   S163      1.0  0.57871  0.91574  0.76778  1.0000
  S   S164      1.0  0.61979  0.94681  0.71931  1.0000
  Fe  Fe85      1.0  0.59438  0.88407  0.77809  1.0000
  S   S165      1.0  0.59955  0.87946  0.82674  1.0000
  Fe  Fe86      1.0  0.55615  0.89758  0.74007  1.0000
  S   S166      1.0  0.52189  0.91034  0.74172  1.0000
  S   S167      1.0  0.61754  0.88645  0.74057  1.0000
  S   S168      1.0  0.57659  0.90137  0.69986  1.0000
  H   H665      1.0  0.64235  0.95001  0.91768  1.0000
  C   C556      1.0  0.62285  0.87803  0.87694  1.0000
  H   H666      1.0  0.60766  0.88155  0.88752  1.0000
  H   H667      1.0  0.52627  0.86801  0.86657  1.0000
  H   H668      1.0  0.35530  0.87515  0.84200  1.0000
  C   C557      1.0  0.60660  0.97213  0.71930  1.0000
  H   H669      1.0  0.34830  0.87290  0.89490  1.0000
  H   H670      1.0  0.57540  0.95973  0.70997  1.0000
  C   C558      1.0  0.62369  0.87612  0.84670  1.0000
  C   C559      1.0  0.45918  0.87270  0.75152  1.0000
  C   C560      1.0  0.45898  0.89487  0.74696  1.0000
  C   C561      1.0  0.47835  0.90599  0.74355  1.0000
  C   C562      1.0  0.49813  0.89511  0.74446  1.0000
  C   C563      1.0  0.49840  0.87282  0.74837  1.0000
  C   C564      1.0  0.47895  0.86168  0.75209  1.0000
  H   H671      1.0  0.44393  0.90360  0.74691  1.0000
  H   H672      1.0  0.47795  0.92319  0.74065  1.0000
  H   H673      1.0  0.51352  0.86421  0.74875  1.0000
  H   H674      1.0  0.47923  0.84452  0.75561  1.0000
  H   H675      1.0  0.39645  0.84747  0.67728  1.0000
  H   H676      1.0  0.64443  0.86982  0.81025  1.0000
  C   C565      1.0  0.48640  0.78470  0.48694  1.0000
  H   H677      1.0  0.65185  0.91955  0.62626  1.0000
  H   H678      1.0  0.46406  0.96896  0.72412  1.0000
  H   H679      1.0  0.35737  0.96452  0.72223  1.0000
  C   C566      1.0  0.36371  0.82318  0.59466  1.0000
  C   C567      1.0  0.35813  0.82198  0.62418  1.0000
  C   C568      1.0  0.36046  0.83977  0.64234  1.0000
  C   C569      1.0  0.36813  0.85922  0.63112  1.0000
  C   C570      1.0  0.37378  0.86041  0.60161  1.0000
  C   C571      1.0  0.37182  0.84250  0.58356  1.0000
  H   H680      1.0  0.35185  0.80716  0.63309  1.0000
  H   H681      1.0  0.35582  0.83858  0.66488  1.0000
  H   H682      1.0  0.37984  0.87532  0.59269  1.0000
  H   H683      1.0  0.37668  0.84369  0.56115  1.0000
  C   C572      1.0  0.59458  0.82388  0.58943  1.0000
  C   C573      1.0  0.60332  0.80933  0.60936  1.0000
  C   C574      1.0  0.60520  0.81503  0.63862  1.0000
  C   C575      1.0  0.59815  0.83521  0.64852  1.0000
  C   C576      1.0  0.58884  0.84950  0.62873  1.0000
  C   C577      1.0  0.58718  0.84389  0.59943  1.0000
  H   H684      1.0  0.60921  0.79393  0.60211  1.0000
  H   H685      1.0  0.61245  0.80382  0.65366  1.0000
  H   H686      1.0  0.58319  0.86500  0.63585  1.0000
  H   H687      1.0  0.58041  0.85531  0.58426  1.0000
  H   H688      1.0  0.44178  0.89411  0.81501  1.0000
  C   C578      1.0  0.42279  0.81655  0.69595  1.0000
  H   H689      1.0  0.36401  0.94173  0.83359  1.0000
  H   H690      1.0  0.41613  0.85807  0.70077  1.0000
  N   N38       1.0  0.64414  0.89059  0.65038  1.0000
  C   C579      1.0  0.41367  0.85171  0.67882  1.0000
  H   H691      1.0  0.45937  0.86038  0.83025  1.0000
  H   H692      1.0  0.53648  0.91724  0.80286  1.0000
  H   H693      1.0  0.54998  0.88370  0.86507  1.0000
  H   H694      1.0  0.46321  0.92683  0.80728  1.0000
  H   H695      1.0  0.53050  0.85871  0.81530  1.0000
  H   H696      1.0  0.41657  0.86519  0.66336  1.0000
  N   N39       1.0  0.42768  0.83290  0.67324  1.0000
  H   H697      1.0  0.42597  0.82267  0.71797  1.0000
  H   H698      1.0  0.34763  0.97364  0.79100  1.0000
  H   H699      1.0  0.61527  0.90843  0.63967  1.0000
  H   H700      1.0  0.55455  0.87383  0.81331  1.0000
  H   H701      1.0  0.64044  0.87666  0.91693  1.0000
  C   C580      1.0  0.42422  0.82535  0.64352  1.0000
  H   H702      1.0  0.45462  0.85361  0.66334  1.0000
  C   C581      1.0  0.50762  0.77652  0.48735  1.0000
  H   H703      1.0  0.50025  0.95522  0.73088  1.0000
  C   C582      1.0  0.49323  0.91166  0.81860  1.0000
  H   H704      1.0  0.36079  0.93833  0.79579  1.0000
  C   C583      1.0  0.64146  0.87530  0.89372  1.0000
  H   H705      1.0  0.49800  0.85887  0.83830  1.0000
  C   C584      1.0  0.36295  0.97945  0.73089  1.0000
  C   C585      1.0  0.41507  0.80512  0.63752  1.0000
  H   H706      1.0  0.46158  0.82606  0.67095  1.0000
  C   C586      1.0  0.64318  0.87642  0.62506  1.0000
  H   H707      1.0  0.50168  0.92632  0.81380  1.0000
  C   C587      1.0  0.64037  0.84996  0.57592  1.0000
  C   C588      1.0  0.33928  0.87797  0.85049  1.0000
  H   H708      1.0  0.32679  0.94112  0.77393  1.0000
  H   H709      1.0  0.43280  0.80186  0.69317  1.0000
  H   H710      1.0  0.55641  0.90995  0.82851  1.0000
  H   H711      1.0  0.52097  0.78737  0.48833  1.0000
  H   H712      1.0  0.40988  0.79413  0.65431  1.0000
  C   C589      1.0  0.45037  0.83934  0.67673  1.0000
  C   C590      1.0  0.64347  0.87144  0.83342  1.0000
  H   H713      1.0  0.34903  0.91932  0.82008  1.0000
  C   C591      1.0  0.33524  0.87665  0.88053  1.0000
  H   H714      1.0  0.65341  0.89090  0.69514  1.0000
  H   H715      1.0  0.61122  0.88515  0.66198  1.0000
  C   C592      1.0  0.47101  0.91222  0.81474  1.0000
  H   H716      1.0  0.53322  0.87957  0.78861  1.0000
  C   C593      1.0  0.63481  0.87157  0.57391  1.0000
  C   C594      1.0  0.58468  0.97397  0.71359  1.0000
  H   H717      1.0  0.65081  0.82432  0.60372  1.0000
  C   C595      1.0  0.42951  0.83868  0.61942  1.0000
  C   C596      1.0  0.41173  0.79871  0.60915  1.0000
  C   C597      1.0  0.42617  0.83205  0.59116  1.0000
  C   C598      1.0  0.41730  0.81210  0.58604  1.0000
  H   H718      1.0  0.43573  0.85459  0.62231  1.0000
  H   H719      1.0  0.40400  0.78357  0.60497  1.0000
  H   H720      1.0  0.42983  0.84270  0.57313  1.0000
  H   H721      1.0  0.41398  0.80727  0.56417  1.0000
  C   C599      1.0  0.64724  0.84133  0.60208  1.0000
  H   H722      1.0  0.62225  0.90914  0.67678  1.0000
  H   H723      1.0  0.40550  0.81215  0.69615  1.0000
  C   C600      1.0  0.45887  0.89382  0.81912  1.0000
  N   N40       1.0  0.53556  0.77405  0.57391  1.0000
  C   C601      1.0  0.54141  0.78334  0.60201  1.0000
  C   C602      1.0  0.54352  0.75152  0.57368  1.0000
  C   C603      1.0  0.54709  0.78582  0.55063  1.0000
  C   C604      1.0  0.51214  0.77613  0.56932  1.0000
  C   C605      1.0  0.49908  0.75847  0.56211  1.0000
  C   C606      1.0  0.50189  0.79653  0.57069  1.0000
  C   C607      1.0  0.47716  0.76118  0.55701  1.0000
  C   C608      1.0  0.47996  0.79904  0.56539  1.0000
  C   C609      1.0  0.46764  0.78140  0.55850  1.0000
  H   H724      1.0  0.55883  0.78108  0.60650  1.0000
  H   H725      1.0  0.53866  0.80095  0.60268  1.0000
  H   H726      1.0  0.53211  0.77583  0.62008  1.0000
  H   H727      1.0  0.53530  0.74157  0.59050  1.0000
  H   H728      1.0  0.56107  0.75047  0.57783  1.0000
  H   H729      1.0  0.54133  0.74406  0.55221  1.0000
  H   H730      1.0  0.54337  0.80328  0.55039  1.0000
  H   H731      1.0  0.56475  0.78435  0.55302  1.0000
  H   H732      1.0  0.54302  0.77941  0.52917  1.0000
  H   H733      1.0  0.50548  0.74248  0.55938  1.0000
  H   H734      1.0  0.51091  0.81078  0.57514  1.0000
  H   H735      1.0  0.46760  0.74763  0.55068  1.0000
  H   H736      1.0  0.47254  0.81481  0.56593  1.0000
  H   H737      1.0  0.45081  0.78343  0.55335  1.0000
  N   N41       1.0  0.52749  0.89110  0.83133  1.0000
  C   C610      1.0  0.53872  0.91164  0.82556  1.0000
  Fe  Fe87      1.0  0.40577  0.77569  0.48608  1.0000
  S   S169      1.0  0.62568  0.78855  0.48613  1.0000
  C   C611      1.0  0.50395  0.89248  0.82742  1.0000
  C   C612      1.0  0.49101  0.87408  0.83196  1.0000
  C   C613      1.0  0.53679  0.87507  0.81133  1.0000
  C   C614      1.0  0.35238  0.93671  0.81709  1.0000
  C   C615      1.0  0.63620  0.95182  0.81217  1.0000
  H   H738      1.0  0.48371  0.80183  0.48765  1.0000
  H   H739      1.0  0.53305  0.92441  0.84041  1.0000
  H   H740      1.0  0.43156  0.98469  0.73630  1.0000
  H   H741      1.0  0.32604  0.87688  0.53563  1.0000
  Fe  Fe88      1.0  0.62062  0.75234  0.48828  1.0000
  N   N42       1.0  0.33232  0.94975  0.81819  1.0000
  H   H742      1.0  0.45368  0.84393  0.69940  1.0000
  C   C616      1.0  0.64386  0.97007  0.82544  1.0000
  C   C617      1.0  0.33828  0.97229  0.81163  1.0000
  S   S170      1.0  0.39009  0.80763  0.49495  1.0000
  C   C618      1.0  0.32794  0.93530  0.86970  1.0000
  C   C619      1.0  0.47642  0.98057  0.72791  1.0000
  S   S171      1.0  0.32631  0.88291  0.79329  1.0000
  C   C620      1.0  0.38098  0.97955  0.74847  1.0000
  H   H743      1.0  0.63865  0.83969  0.55741  1.0000
  H   H744      1.0  0.62753  0.95323  0.79206  1.0000
  H   H745      1.0  0.62893  0.87801  0.55365  1.0000
  H   H746      1.0  0.35612  0.85608  0.51100  1.0000
  H   H747      1.0  0.64187  0.86643  0.68406  1.0000
  C   C621      1.0  0.63619  0.88466  0.59803  1.0000
  C   C622      1.0  0.47240  0.74885  0.48506  1.0000
  S   S172      1.0  0.34334  0.78482  0.49235  1.0000
  H   H748      1.0  0.34210  0.92523  0.86819  1.0000
  N   N43       1.0  0.32251  0.84799  0.51088  1.0000
  H   H749      1.0  0.32389  0.85334  0.55700  1.0000
  H   H750      1.0  0.34960  0.83146  0.52943  1.0000
  H   H751      1.0  0.34972  0.83268  0.49102  1.0000
  H   H752      1.0  0.34843  0.97885  0.82892  1.0000
  C   C623      1.0  0.34549  0.84187  0.51067  1.0000
  H   H753      1.0  0.53019  0.97960  0.74008  1.0000
  C   C624      1.0  0.51415  0.98608  0.73705  1.0000
  C   C625      1.0  0.65254  0.87972  0.67667  1.0000
  C   C626      1.0  0.65090  0.92977  0.85063  1.0000
  H   H754      1.0  0.49630  0.72351  0.48524  1.0000
  C   C627      1.0  0.64851  0.85422  0.62642  1.0000
  H   H755      1.0  0.33298  0.67542  0.48682  1.0000
  S   S173      1.0  0.65041  0.72927  0.49441  1.0000
  H   H756      1.0  0.65309  0.84620  0.64620  1.0000
  S   S174      1.0  0.53790  0.74304  0.48815  1.0000
  H   H757      1.0  0.65285  0.91377  0.85923  1.0000
  C   C628      1.0  0.65507  0.96827  0.85132  1.0000
  C   C629      1.0  0.51143  0.75439  0.48681  1.0000
  H   H758      1.0  0.32791  0.87699  0.48579  1.0000
  C   C630      1.0  0.46861  0.77097  0.48575  1.0000
  H   H759      1.0  0.32409  0.98297  0.80913  1.0000
  C   C631      1.0  0.49365  0.74066  0.48569  1.0000
  S   S175      1.0  0.57389  0.79431  0.48438  1.0000
  H   H760      1.0  0.65499  0.51850  0.49020  1.0000
  S   S176      1.0  0.44224  0.78255  0.48489  1.0000
  Fe  Fe89      1.0  0.90889  0.39938  0.22247  1.0000
  S   S177      1.0  0.88632  0.40545  0.18567  1.0000
  S   S178      1.0  0.94349  0.40508  0.20871  1.0000
  Fe  Fe90      1.0  0.87161  0.39028  0.26557  1.0000
  S   S179      1.0  0.84698  0.39521  0.23135  1.0000
  S   S180      1.0  0.86431  0.38263  0.31321  1.0000
  Fe  Fe91      1.0  0.86917  0.37612  0.20204  1.0000
  S   S181      1.0  0.85922  0.34622  0.17739  1.0000
  Fe  Fe92      1.0  0.86674  0.42390  0.21825  1.0000
  S   S182      1.0  0.85017  0.45618  0.21377  1.0000
  S   S183      1.0  0.89271  0.36915  0.23751  1.0000
  S   S184      1.0  0.89038  0.41988  0.25378  1.0000
  Fe  Fe93      1.0  0.76914  0.38427  0.43889  1.0000
  S   S185      1.0  0.73421  0.39143  0.44983  1.0000
  S   S186      1.0  0.77801  0.38592  0.39036  1.0000
  Fe  Fe94      1.0  0.86808  0.29173  0.01270  1.0000
  S   S187      1.0  0.87813  0.25677  0.01260  1.0000
  S   S188      1.0  0.87246  0.31918  0.04502  1.0000
  S   S189      1.0  0.68928  0.13401  0.99016  1.0000
  C   C632      1.0  0.80313  0.20452  0.98869  1.0000
  C   C633      1.0  0.86595  0.47954  0.21014  1.0000
  C   C634      1.0  0.77680  0.17736  0.00552  1.0000
  H   H761      1.0  0.97393  0.45257  0.26465  1.0000
  H   H762      1.0  0.70230  0.03502  0.03330  1.0000
  Fe  Fe95      1.0  0.69013  0.10739  0.02390  1.0000
  S   S190      1.0  0.72597  0.10290  0.01782  1.0000
  C   C635      1.0  0.67864  0.27601  0.39524  1.0000
  H   H763      1.0  0.83278  0.33298  0.00620  1.0000
  H   H764      1.0  0.91738  0.32997  0.12012  1.0000
  C   C636      1.0  0.82927  0.41402  0.02106  1.0000
  H   H765      1.0  0.84806  0.48391  0.26820  1.0000
  C   C637      1.0  0.66274  0.31518  0.41519  1.0000
  C   C638      1.0  0.83475  0.32940  0.33349  1.0000
  C   C639      1.0  0.85550  0.44847  0.30525  1.0000
  C   C640      1.0  0.66769  0.99745  0.09175  1.0000
  H   H766      1.0  0.81830  0.43165  0.28823  1.0000
  H   H767      1.0  0.93017  0.38013  0.15810  1.0000
  C   C641      1.0  0.83113  0.39943  0.99846  1.0000
  C   C642      1.0  0.83290  0.40737  0.04939  1.0000
  H   H768      1.0  0.98144  0.27434  0.03088  1.0000
  H   H769      1.0  0.77240  0.09629  0.02071  1.0000
  C   C643      1.0  0.83851  0.38614  0.05526  1.0000
  H   H770      1.0  0.94424  0.32833  0.19265  1.0000
  H   H771      1.0  0.77361  0.12358  0.00845  1.0000
  N   N44       1.0  0.67769  0.03279  0.06687  1.0000
  H   H772      1.0  0.68592  0.26130  0.38781  1.0000
  H   H773      1.0  0.83646  0.45251  0.35742  1.0000
  H   H774      1.0  0.81846  0.48586  0.35374  1.0000
  C   C644      1.0  0.82617  0.34227  0.98765  1.0000
  C   C645      1.0  0.66159  0.04239  0.04723  1.0000
  H   H775      1.0  0.74665  0.46339  0.44613  1.0000
  C   C646      1.0  0.95870  0.26689  0.99784  1.0000
  H   H776      1.0  0.82712  0.42957  0.33919  1.0000
  H   H777      1.0  0.89596  0.46276  0.20404  1.0000
  C   C647      1.0  0.80242  0.38631  0.36966  1.0000
  C   C648      1.0  0.80135  0.38868  0.33943  1.0000
  C   C649      1.0  0.82006  0.38800  0.32185  1.0000
  C   C650      1.0  0.84019  0.38482  0.33429  1.0000
  C   C651      1.0  0.84130  0.38279  0.36452  1.0000
  C   C652      1.0  0.82259  0.38362  0.38212  1.0000
  H   H778      1.0  0.78584  0.39073  0.32952  1.0000
  H   H779      1.0  0.81880  0.38967  0.29871  1.0000
  H   H780      1.0  0.85675  0.38031  0.37445  1.0000
  H   H781      1.0  0.82374  0.38171  0.40527  1.0000
  C   C653      1.0  0.86249  0.33924  0.14028  1.0000
  C   C654      1.0  0.87088  0.35348  0.11953  1.0000
  C   C655      1.0  0.87398  0.34691  0.09071  1.0000
  C   C656      1.0  0.86846  0.32615  0.08200  1.0000
  C   C657      1.0  0.85997  0.31195  0.10270  1.0000
  C   C658      1.0  0.85707  0.31846  0.13161  1.0000
  H   H782      1.0  0.87484  0.36962  0.12558  1.0000
  H   H783      1.0  0.88055  0.35808  0.07495  1.0000
  H   H784      1.0  0.85561  0.29595  0.09644  1.0000
  H   H785      1.0  0.85055  0.30725  0.14736  1.0000
  C   C659      1.0  0.96646  0.37732  0.24430  1.0000
  C   C660      1.0  0.96696  0.39307  0.22258  1.0000
  H   H786      1.0  0.67275  0.11325  0.25653  1.0000
  H   H787      1.0  0.95125  0.37226  0.25352  1.0000
  H   H788      1.0  0.66316  0.00508  0.11170  1.0000
  C   C661      1.0  0.82838  0.30780  0.26327  1.0000
  H   H789      1.0  0.81863  0.08374  0.00396  1.0000
  H   H790      1.0  0.84072  0.34567  0.23946  1.0000
  S   S191      1.0  0.82420  0.22326  0.99719  1.0000
  H   H791      1.0  0.94480  0.27127  0.01080  1.0000
  C   C662      1.0  0.69946  0.03893  0.05633  1.0000
  C   C663      1.0  0.79008  0.33363  0.33321  1.0000
  C   C664      1.0  0.92022  0.32800  0.14369  1.0000
  C   C665      1.0  0.85952  0.32495  0.28153  1.0000
  H   H792      1.0  0.86808  0.34769  0.99743  1.0000
  H   H793      1.0  0.92769  0.31203  0.14790  1.0000
  H   H794      1.0  0.96568  0.37337  0.16799  1.0000
  C   C666      1.0  0.82624  0.44737  0.33934  1.0000
  H   H795      1.0  0.71218  0.03072  0.06906  1.0000
  C   C667      1.0  0.83664  0.37756  0.00377  1.0000
  H   H796      1.0  0.81113  0.30897  0.25768  1.0000
  H   H797      1.0  0.79570  0.11146  0.02800  1.0000
  H   H798      1.0  0.86119  0.45250  0.28300  1.0000
  H   H799      1.0  0.83642  0.36094  0.27174  1.0000
  C   C668      1.0  0.67544  0.00916  0.06721  1.0000
  H   H800      1.0  0.98726  0.41144  0.19369  1.0000
  C   C669      1.0  0.80491  0.08125  0.98931  1.0000
  C   C670      1.0  0.68802  0.29548  0.47991  1.0000
  C   C671      1.0  0.66456  0.10069  0.26858  1.0000
  H   H801      1.0  0.82439  0.45479  0.26672  1.0000
  C   C672      1.0  0.67446  0.04251  0.09571  1.0000
  H   H802      1.0  0.83153  0.33258  0.37964  1.0000
  H   H803      1.0  0.79233  0.33137  0.28761  1.0000
  H   H804      1.0  0.68572  0.00499  0.02243  1.0000
  H   H805      1.0  0.86636  0.33936  0.29179  1.0000
  S   S192      1.0  0.71285  0.33263  0.48091  1.0000
  H   H806      1.0  0.86401  0.31051  0.29451  1.0000
  C   C673      1.0  0.95549  0.34627  0.14251  1.0000
  H   H807      1.0  0.75430  0.00551  0.00532  1.0000
  C   C674      1.0  0.97955  0.26860  0.00918  1.0000
  H   H808      1.0  0.70315  0.28735  0.47589  1.0000
  C   C675      1.0  0.68028  0.99720  0.04209  1.0000
  C   C676      1.0  0.96289  0.33195  0.12082  1.0000
  H   H809      1.0  0.69570  0.32506  0.41609  1.0000
  H   H810      1.0  0.83729  0.30552  0.24248  1.0000
  H   H811      1.0  0.85199  0.32864  0.33525  1.0000
  H   H812      1.0  0.66420  0.03732  0.02453  1.0000
  H   H813      1.0  0.67513  0.07579  0.24004  1.0000
  H   H814      1.0  0.86779  0.32352  0.26016  1.0000
  C   C677      1.0  0.98396  0.33289  0.10996  1.0000
  H   H815      1.0  0.77281  0.33595  0.33325  1.0000
  N   N45       1.0  0.83587  0.32699  0.27858  1.0000
  H   H816      1.0  0.65768  0.04059  0.10387  1.0000
  C   C678      1.0  0.83163  0.34621  0.26036  1.0000
  S   S193      1.0  0.77011  0.35497  0.46787  1.0000
  C   C679      1.0  0.80146  0.33115  0.30722  1.0000
  S   S194      1.0  0.78157  0.40578  0.47326  1.0000
  N   N46       1.0  0.83357  0.45693  0.31139  1.0000
  H   H817      1.0  0.80917  0.45148  0.34431  1.0000
  H   H818      1.0  0.65975  0.24274  0.36411  1.0000
  H   H819      1.0  0.90402  0.32761  0.15415  1.0000
  H   H820      1.0  0.95619  0.47793  0.23549  1.0000
  S   S195      1.0  0.68210  0.08173  0.99224  1.0000
  Fe  Fe96      1.0  0.84852  0.25081  0.98519  1.0000
  H   H821      1.0  0.79812  0.19486  0.03305  1.0000
  H   H822      1.0  0.70202  0.05656  0.05762  1.0000
  H   H823      1.0  0.84518  0.35528  0.03852  1.0000
  H   H824      1.0  0.79211  0.33654  0.37926  1.0000
  S   S196      1.0  0.67818  0.10185  0.07074  1.0000
  H   H825      1.0  0.94158  0.35674  0.19750  1.0000
  C   C680      1.0  0.74735  0.47608  0.46173  1.0000
  C   C681      1.0  0.66591  0.07957  0.25936  1.0000
  C   C682      1.0  0.82316  0.33166  0.35937  1.0000
  H   H826      1.0  0.82502  0.43061  0.01659  1.0000
  H   H827      1.0  0.70983  0.29061  0.39806  1.0000
  C   C683      1.0  0.92214  0.36609  0.14860  1.0000
  H   H828      1.0  0.97209  0.44539  0.22705  1.0000
  H   H829      1.0  0.84140  0.38096  0.07732  1.0000
  C   C684      1.0  0.98337  0.44806  0.24507  1.0000
  H   H830      1.0  0.81444  0.34809  0.25481  1.0000
  C   C685      1.0  0.80091  0.33387  0.35922  1.0000
  C   C686      1.0  0.73945  0.00242  0.99440  1.0000
  H   H831      1.0  0.66222  0.06026  0.04717  1.0000
  H   H832      1.0  0.86731  0.45493  0.32056  1.0000
  H   H833      1.0  0.66666  0.08824  0.12839  1.0000
  H   H834      1.0  0.95271  0.31997  0.11171  1.0000
  C   C687      1.0  0.98677  0.39945  0.21076  1.0000
  H   H835      1.0  0.91820  0.34077  0.19665  1.0000
  C   C688      1.0  0.93448  0.34271  0.18677  1.0000
  H   H836      1.0  0.80244  0.45576  0.29208  1.0000
  H   H837      1.0  0.90548  0.36605  0.15766  1.0000
  C   C689      1.0  0.81904  0.44946  0.28867  1.0000
  C   C690      1.0  0.69265  0.29279  0.40090  1.0000
  N   N47       1.0  0.93347  0.34562  0.15498  1.0000
  H   H838      1.0  0.85622  0.43063  0.30697  1.0000
  C   C691      1.0  0.88816  0.47826  0.20575  1.0000
  C   C692      1.0  0.78337  0.10865  0.01141  1.0000
  C   C693      1.0  0.84050  0.37148  0.03285  1.0000
  H   H839      1.0  0.83143  0.41871  0.06684  1.0000
  H   H840      1.0  0.83060  0.29305  0.27673  1.0000
  C   C694      1.0  0.79318  0.19243  0.01108  1.0000
  C   C695      1.0  0.68473  0.31230  0.41088  1.0000
  C   C696      1.0  0.68791  0.31796  0.48330  1.0000
  H   H841      1.0  0.68579  0.03559  0.11172  1.0000
  C   C697      1.0  0.82418  0.32903  0.30651  1.0000
  H   H842      1.0  0.92111  0.36907  0.12493  1.0000
  C   C698      1.0  0.97032  0.36166  0.15207  1.0000
  H   H843      1.0  0.76942  0.16855  0.02323  1.0000
  H   H844      1.0  0.79419  0.06898  0.99949  1.0000
  H   H845      1.0  0.80601  0.14194  0.00452  1.0000
  H   H846      1.0  0.65594  0.04754  0.26524  1.0000
  H   H847      1.0  0.67728  0.06008  0.09500  1.0000
  C   C699      1.0  0.83370  0.48068  0.31124  1.0000
  Fe  Fe97      1.0  0.73550  0.36264  0.48027  1.0000
  H   H848      1.0  0.98540  0.35605  0.27114  1.0000
  C   C700      1.0  0.98580  0.36818  0.25425  1.0000
  H   H849      1.0  0.65673  0.33021  0.42373  1.0000
  H   H850      1.0  0.66947  0.26623  0.47897  1.0000
  C   C701      1.0  0.66880  0.28338  0.48164  1.0000
  H   H851      1.0  0.80921  0.34653  0.99295  1.0000
  C   C702      1.0  0.65660  0.10985  0.09437  1.0000
  Fe  Fe98      1.0  0.71755  0.07820  0.98491  1.0000
  S   S197      1.0  0.73640  0.04654  0.98872  1.0000
  H   H852      1.0  0.66245  0.23414  0.40147  1.0000
  S   S198      1.0  0.83796  0.28563  0.98778  1.0000
  C   C703      1.0  0.65609  0.27837  0.39968  1.0000
  Fe  Fe99      1.0  0.77974  0.37720  0.50358  1.0000
  S   S199      1.0  0.74561  0.38335  0.51766  1.0000
  S   S200      1.0  0.80875  0.37245  0.53330  1.0000
  C   C704      1.0  0.83228  0.12845  0.93079  1.0000
  H   H853      1.0  0.71302  0.18984  0.92131  1.0000
  H   H854      1.0  0.77524  0.18327  0.93286  1.0000
  H   H855      1.0  0.80195  0.47283  0.55481  1.0000
  H   H856      1.0  0.67786  0.10304  0.82342  1.0000
  H   H857      1.0  0.70800  0.31097  0.54675  1.0000
  Fe  Fe100     1.0  0.85149  0.38495  0.69742  1.0000
  S   S201      1.0  0.84335  0.39105  0.74426  1.0000
  S   S202      1.0  0.82228  0.37653  0.67024  1.0000
  Fe  Fe101     1.0  0.89927  0.39278  0.70817  1.0000
  S   S203      1.0  0.89446  0.39953  0.75524  1.0000
  S   S204      1.0  0.93176  0.39207  0.68542  1.0000
  Fe  Fe102     1.0  0.87233  0.37118  0.75584  1.0000
  S   S205      1.0  0.87640  0.34212  0.78639  1.0000
  Fe  Fe103     1.0  0.86594  0.41888  0.73999  1.0000
  S   S206      1.0  0.85495  0.45056  0.75881  1.0000
  S   S207      1.0  0.87904  0.36311  0.70923  1.0000
  S   S208      1.0  0.87221  0.41414  0.69269  1.0000
  Fe  Fe104     1.0  0.85788  0.29135  0.94727  1.0000
  S   S209      1.0  0.86696  0.25642  0.94315  1.0000
  S   S210      1.0  0.84507  0.31620  0.91444  1.0000
  Fe  Fe105     1.0  0.68358  0.10775  0.95787  1.0000
  S   S211      1.0  0.71881  0.10255  0.94839  1.0000
  H   H858      1.0  0.71613  0.18538  0.88375  1.0000
  C   C705      1.0  0.98340  0.47071  0.72516  1.0000
  H   H859      1.0  0.78441  0.46323  0.52737  1.0000
  C   C706      1.0  0.86704  0.47482  0.74745  1.0000
  H   H860      1.0  0.93120  0.46765  0.75016  1.0000
  H   H861      1.0  0.81543  0.09897  0.93218  1.0000
  C   C707      1.0  0.80274  0.43699  0.58734  1.0000
  C   C708      1.0  0.78311  0.31983  0.78314  1.0000
  C   C709      1.0  0.97422  0.25329  0.95368  1.0000
  C   C710      1.0  0.79596  0.32203  0.72032  1.0000
  C   C711      1.0  0.70388  0.18697  0.90123  1.0000
  H   H862      1.0  0.81837  0.43007  0.66865  1.0000
  H   H863      1.0  0.83286  0.35724  0.93517  1.0000
  H   H864      1.0  0.84525  0.42301  0.63038  1.0000
  H   H865      1.0  0.78111  0.08981  0.94333  1.0000
  H   H866      1.0  0.71604  0.14643  0.89118  1.0000
  C   C712      1.0  0.95872  0.30562  0.80451  1.0000
  H   H867      1.0  0.83780  0.31852  0.73179  1.0000
  H   H868      1.0  0.69404  0.20154  0.89655  1.0000
  H   H869      1.0  0.77460  0.46594  0.56329  1.0000
  C   C713      1.0  0.69667  0.29818  0.55112  1.0000
  H   H870      1.0  0.88880  0.46030  0.71685  1.0000
  C   C714      1.0  0.86798  0.33582  0.82245  1.0000
  C   C715      1.0  0.85352  0.34867  0.83797  1.0000
  C   C716      1.0  0.84679  0.34245  0.86608  1.0000
  C   C717      1.0  0.85472  0.32357  0.87929  1.0000
  C   C718      1.0  0.86935  0.31084  0.86384  1.0000
  C   C719      1.0  0.87566  0.31680  0.83549  1.0000
  H   H871      1.0  0.84727  0.36323  0.82821  1.0000
  H   H872      1.0  0.83531  0.35234  0.87763  1.0000
  H   H873      1.0  0.87543  0.29616  0.87350  1.0000
  H   H874      1.0  0.88659  0.30652  0.82358  1.0000
  C   C720      1.0  0.95577  0.39160  0.70506  1.0000
  C   C721      1.0  0.67758  0.16487  0.87767  1.0000
  C   C722      1.0  0.95577  0.39566  0.73461  1.0000
  H   H875      1.0  0.71334  0.14994  0.92917  1.0000
  H   H876      1.0  0.94099  0.40006  0.74557  1.0000
  H   H877      1.0  0.97410  0.32503  0.89476  1.0000
  C   C723      1.0  0.66862  0.10569  0.86839  1.0000
  H   H878      1.0  0.83617  0.42651  0.57998  1.0000
  C   C724      1.0  0.95622  0.29710  0.83242  1.0000
  C   C725      1.0  0.82379  0.43061  0.59552  1.0000
  H   H879      1.0  0.68491  0.10476  0.87597  1.0000
  C   C726      1.0  0.81203  0.37375  0.57150  1.0000
  C   C727      1.0  0.79463  0.37333  0.59098  1.0000
  C   C728      1.0  0.79811  0.37431  0.62098  1.0000
  C   C729      1.0  0.81897  0.37579  0.63204  1.0000
  C   C730      1.0  0.83637  0.37623  0.61259  1.0000
  C   C731      1.0  0.83289  0.37515  0.58259  1.0000
  H   H880      1.0  0.77851  0.37196  0.58296  1.0000
  H   H881      1.0  0.78451  0.37387  0.63572  1.0000
  H   H882      1.0  0.85252  0.37719  0.62065  1.0000
  H   H883      1.0  0.84651  0.37532  0.56784  1.0000
  H   H884      1.0  0.69821  0.02856  0.96166  1.0000
  H   H885      1.0  0.92032  0.34512  0.80933  1.0000
  H   H886      1.0  0.70550  0.16327  0.84871  1.0000
  H   H887      1.0  0.97534  0.38348  0.66800  1.0000
  H   H888      1.0  0.95506  0.30021  0.74594  1.0000
  C   C732      1.0  0.78778  0.44126  0.61000  1.0000
  C   C733      1.0  0.68890  0.26036  0.55578  1.0000
  H   H889      1.0  0.83799  0.31573  0.78165  1.0000
  H   H890      1.0  0.66959  0.31953  0.55391  1.0000
  C   C734      1.0  0.78901  0.46121  0.55042  1.0000
  H   H891      1.0  0.83984  0.34389  0.74973  1.0000
  H   H892      1.0  0.77831  0.32203  0.72393  1.0000
  H   H893      1.0  0.82741  0.44422  0.53759  1.0000
  H   H894      1.0  0.94446  0.31965  0.72134  1.0000
  C   C735      1.0  0.67498  0.30297  0.55517  1.0000
  S   S212      1.0  0.73808  0.44486  0.50387  1.0000
  C   C736      1.0  0.67658  0.17047  0.93058  1.0000
  N   N48       1.0  0.69013  0.16775  0.90421  1.0000
  H   H895      1.0  0.72047  0.27331  0.54762  1.0000
  C   C737      1.0  0.83168  0.36983  0.95194  1.0000
  C   C738      1.0  0.93091  0.33191  0.81475  1.0000
  C   C739      1.0  0.78005  0.18576  0.95485  1.0000
  S   S213      1.0  0.74962  0.15436  0.96860  1.0000
  H   H896      1.0  0.97451  0.39583  0.77328  1.0000
  H   H897      1.0  0.76343  0.30875  0.81893  1.0000
  C   C740      1.0  0.92867  0.32336  0.84268  1.0000
  H   H898      1.0  0.69503  0.24413  0.55520  1.0000
  C   C741      1.0  0.77005  0.17374  0.97726  1.0000
  H   H899      1.0  0.84727  0.15925  0.93444  1.0000
  C   C742      1.0  0.66008  0.28656  0.55936  1.0000
  H   H900      1.0  0.76335  0.08640  0.97332  1.0000
  N   N49       1.0  0.79610  0.43893  0.55687  1.0000
  H   H901      1.0  0.76708  0.11264  0.95749  1.0000
  C   C743      1.0  0.77549  0.09747  0.96357  1.0000
  H   H902      1.0  0.98213  0.43032  0.70323  1.0000
  H   H903      1.0  0.98267  0.32534  0.76103  1.0000
  H   H904      1.0  0.80785  0.43476  0.51315  1.0000
  C   C744      1.0  0.94359  0.31387  0.74419  1.0000
  C   C745      1.0  0.97521  0.38651  0.69093  1.0000
  H   H905      1.0  0.81459  0.37515  0.95288  1.0000
  H   H906      1.0  0.83115  0.29967  0.82854  1.0000
  C   C746      1.0  0.81772  0.30514  0.81566  1.0000
  C   C747      1.0  0.81344  0.43341  0.53582  1.0000
  C   C748      1.0  0.79691  0.30310  0.82658  1.0000
  H   H907      1.0  0.66688  0.15591  0.93539  1.0000
  H   H908      1.0  0.98067  0.29788  0.92829  1.0000
  H   H909      1.0  0.83975  0.12514  0.91004  1.0000
  C   C749      1.0  0.77792  0.42438  0.55182  1.0000
  H   H910      1.0  0.97520  0.35100  0.77505  1.0000
  S   S214      1.0  0.92988  0.25581  0.95474  1.0000
  H   H911      1.0  0.83234  0.34304  0.71284  1.0000
  H   H912      1.0  0.77336  0.42444  0.52880  1.0000
  Fe  Fe106     1.0  0.89565  0.26459  0.97069  1.0000
  C   C750      1.0  0.66664  0.26466  0.55997  1.0000
  C   C751      1.0  0.77961  0.31032  0.81029  1.0000
  N   N50       1.0  0.94834  0.33125  0.76458  1.0000
  C   C752      1.0  0.93375  0.34949  0.75763  1.0000
  C   C753      1.0  0.97068  0.33855  0.75934  1.0000
  C   C754      1.0  0.67680  0.15949  0.82526  1.0000
  C   C755      1.0  0.94594  0.32313  0.79464  1.0000
  H   H913      1.0  0.97057  0.29818  0.79053  1.0000
  C   C756      1.0  0.81830  0.11359  0.94364  1.0000
  H   H914      1.0  0.68647  0.17308  0.95003  1.0000
  C   C757      1.0  0.81414  0.43248  0.64622  1.0000
  H   H915      1.0  0.78211  0.40759  0.55771  1.0000
  H   H916      1.0  0.93663  0.36346  0.77165  1.0000
  H   H917      1.0  0.93589  0.35521  0.73489  1.0000
  H   H918      1.0  0.91663  0.34486  0.75981  1.0000
  H   H919      1.0  0.84185  0.38321  0.94373  1.0000
  H   H920      1.0  0.97282  0.34568  0.73732  1.0000
  C   C758      1.0  0.97481  0.39344  0.75021  1.0000
  H   H921      1.0  0.66555  0.18451  0.92852  1.0000
  H   H922      1.0  0.80149  0.30506  0.71895  1.0000
  H   H923      1.0  0.79875  0.32975  0.69873  1.0000
  H   H924      1.0  0.78124  0.35619  0.74840  1.0000
  H   H925      1.0  0.97225  0.24697  0.93229  1.0000
  N   N51       1.0  0.80745  0.33341  0.74325  1.0000
  H   H926      1.0  0.80223  0.36497  0.72474  1.0000
  C   C759      1.0  0.80415  0.32237  0.77145  1.0000
  H   H927      1.0  0.68674  0.99096  0.95480  1.0000
  C   C760      1.0  0.79890  0.35563  0.74496  1.0000
  C   C761      1.0  0.83036  0.33469  0.73411  1.0000
  H   H928      1.0  0.76922  0.32548  0.77151  1.0000
  H   H929      1.0  0.80630  0.36435  0.76305  1.0000
  C   C762      1.0  0.82141  0.31454  0.78850  1.0000
  H   H930      1.0  0.78161  0.44172  0.65591  1.0000
  H   H931      1.0  0.79426  0.29601  0.84781  1.0000
  H   H932      1.0  0.82607  0.33082  0.96942  1.0000
  C   C763      1.0  0.70409  0.14872  0.90890  1.0000
  H   H933      1.0  0.96589  0.28347  0.83930  1.0000
  C   C764      1.0  0.70149  0.99404  0.96595  1.0000
  H   H934      1.0  0.81141  0.07400  0.96921  1.0000
  H   H935      1.0  0.69436  0.13388  0.91043  1.0000
  C   C765      1.0  0.88339  0.47511  0.72650  1.0000
  H   H936      1.0  0.92712  0.30754  0.74817  1.0000
  S   S215      1.0  0.88711  0.29949  0.97219  1.0000
  H   H937      1.0  0.76313  0.42890  0.56402  1.0000
  H   H938      1.0  0.97366  0.34313  0.84813  1.0000
  N   N52       1.0  0.83894  0.36166  0.98046  1.0000
  H   H939      1.0  0.87208  0.36933  0.97223  1.0000
  H   H940      1.0  0.82818  0.40571  0.97708  1.0000
  H   H941      1.0  0.96193  0.44468  0.73818  1.0000
  C   C766      1.0  0.94109  0.30585  0.85140  1.0000
  C   C767      1.0  0.79628  0.20098  0.96044  1.0000
  C   C768      1.0  0.79343  0.43891  0.63896  1.0000
  H   H942      1.0  0.77146  0.44604  0.60542  1.0000
  C   C769      1.0  0.68822  0.16285  0.85051  1.0000
  H   H943      1.0  0.86425  0.34334  0.95993  1.0000
  H   H944      1.0  0.81900  0.41652  0.53876  1.0000
  H   H945      1.0  0.80362  0.20989  0.94280  1.0000
  C   C770      1.0  0.66455  0.10463  0.83850  1.0000
  Fe  Fe107     1.0  0.72483  0.12784  0.98212  1.0000
  C   C771      1.0  0.80809  0.11760  0.97065  1.0000
  C   C772      1.0  0.65765  0.23266  0.58811  1.0000
  H   H946      1.0  0.91676  0.33005  0.85743  1.0000
  C   C773      1.0  0.70362  0.27692  0.55143  1.0000
  H   H947      1.0  0.97855  0.32423  0.94428  1.0000
  C   C774      1.0  0.74451  0.47123  0.49108  1.0000
  C   C775      1.0  0.95584  0.25903  0.97004  1.0000
  C   C776      1.0  0.70792  0.01545  0.96991  1.0000
  C   C777      1.0  0.86181  0.35527  0.97738  1.0000
  H   H948      1.0  0.65858  0.24189  0.60842  1.0000
  C   C778      1.0  0.82931  0.42854  0.62457  1.0000
  C   C779      1.0  0.83658  0.14763  0.94447  1.0000
  H   H949      1.0  0.93883  0.29894  0.87283  1.0000
  H   H950      1.0  0.68522  0.15726  0.80489  1.0000
  H   H951      1.0  0.67342  0.22467  0.58443  1.0000
  C   C780      1.0  0.82704  0.15197  0.97109  1.0000
  H   H952      1.0  0.66741  0.34522  0.49109  1.0000
  C   C781      1.0  0.66802  0.32804  0.48843  1.0000
  H   H953      1.0  0.66727  0.22631  0.53246  1.0000
  H   H954      1.0  0.83032  0.16703  0.98158  1.0000
  C   C782      1.0  0.94613  0.47479  0.74266  1.0000
  H   H955      1.0  0.74277  0.48471  0.53362  1.0000
  Fe  Fe108     1.0  0.74712  0.41148  0.48599  1.0000
  C   C783      1.0  0.96381  0.46180  0.73557  1.0000
  N   N53       1.0  0.79323  0.10166  0.98368  1.0000
  C   C784      1.0  0.81301  0.13727  0.98411  1.0000
  S   S216      1.0  0.65570  0.11168  0.92605  1.0000
  C   C785      1.0  0.72707  0.01981  0.98400  1.0000
  Fe  Fe109     1.0  0.89449  0.57351  0.21576  1.0000
  S   S217      1.0  0.89938  0.58096  0.26231  1.0000
  S   S218      1.0  0.90640  0.54065  0.20167  1.0000
  Fe  Fe110     1.0  0.87948  0.61937  0.20067  1.0000
  S   S219      1.0  0.88240  0.62949  0.24716  1.0000
  S   S220      1.0  0.87172  0.64790  0.17028  1.0000
  Fe  Fe111     1.0  0.91381  0.61157  0.24594  1.0000
  S   S221      1.0  0.94284  0.62797  0.26383  1.0000
  Fe  Fe112     1.0  0.86745  0.59812  0.26027  1.0000
  S   S222      1.0  0.84435  0.58870  0.29754  1.0000
  S   S223      1.0  0.91179  0.60303  0.19940  1.0000
  S   S224      1.0  0.86166  0.58902  0.21381  1.0000
  Fe  Fe113     1.0  0.78376  0.61417  0.44916  1.0000
  S   S225      1.0  0.74974  0.60329  0.44541  1.0000
  S   S226      1.0  0.80201  0.63021  0.41122  1.0000
  Fe  Fe114     1.0  0.87510  0.69982  0.00586  1.0000
  S   S227      1.0  0.87943  0.73368  0.02008  1.0000
  S   S228      1.0  0.87302  0.66961  0.03474  1.0000
  Fe  Fe115     1.0  0.69024  0.87633  0.01369  1.0000
  S   S229      1.0  0.72205  0.89305  0.01768  1.0000
  H   H956      1.0  0.98586  0.64207  0.27218  1.0000
  C   C786      1.0  0.96534  0.74229  0.99003  1.0000
  H   H957      1.0  0.76519  0.69018  0.44253  1.0000
  N   N54       1.0  0.74749  0.67397  0.40977  1.0000
  H   H958      1.0  0.73330  0.64974  0.38321  1.0000
  H   H959      1.0  0.66250  0.91972  0.12619  1.0000
  H   H960      1.0  0.79108  0.72648  0.03905  1.0000
  C   C787      1.0  0.98789  0.68239  0.05781  1.0000
  C   C788      1.0  0.82536  0.49306  0.33450  1.0000
  C   C789      1.0  0.90029  0.49710  0.20289  1.0000
  H   H961      1.0  0.91736  0.49592  0.19865  1.0000
  H   H962      1.0  0.69898  0.72327  0.45151  1.0000
  C   C790      1.0  0.96171  0.65660  0.07516  1.0000
  H   H963      1.0  0.66513  0.61533  0.47100  1.0000
  H   H964      1.0  0.75462  0.64030  0.40522  1.0000
  H   H965      1.0  0.96473  0.61759  0.18484  1.0000
  C   C791      1.0  0.65621  0.56148  0.47138  1.0000
  C   C792      1.0  0.70384  0.71415  0.43271  1.0000
  H   H966      1.0  0.67678  0.90491  0.08006  1.0000
  C   C793      1.0  0.73285  0.98101  0.99081  1.0000
  C   C794      1.0  0.83265  0.60083  0.32881  1.0000
  C   C795      1.0  0.83497  0.62260  0.33489  1.0000
  C   C796      1.0  0.82558  0.63125  0.36020  1.0000
  C   C797      1.0  0.81385  0.61832  0.37986  1.0000
  C   C798      1.0  0.81168  0.59655  0.37386  1.0000
  C   C799      1.0  0.82096  0.58792  0.34852  1.0000
  H   H967      1.0  0.84377  0.63280  0.31995  1.0000
  H   H968      1.0  0.82734  0.64812  0.36450  1.0000
  H   H969      1.0  0.80270  0.58636  0.38865  1.0000
  H   H970      1.0  0.81900  0.57110  0.34416  1.0000
  C   C800      1.0  0.87483  0.65351  0.13256  1.0000
  C   C801      1.0  0.87609  0.63735  0.11197  1.0000
  C   C802      1.0  0.87593  0.64265  0.08222  1.0000
  C   C803      1.0  0.87488  0.66413  0.07257  1.0000
  C   C804      1.0  0.87461  0.68033  0.09314  1.0000
  C   C805      1.0  0.87435  0.67502  0.12287  1.0000
  H   H971      1.0  0.87630  0.62074  0.11895  1.0000
  H   H972      1.0  0.87618  0.62994  0.06659  1.0000
  H   H973      1.0  0.87398  0.69693  0.08630  1.0000
  H   H974      1.0  0.87326  0.68767  0.13855  1.0000
  C   C806      1.0  0.96739  0.61380  0.26426  1.0000
  H   H975      1.0  0.91456  0.69261  0.04326  1.0000
  C   C807      1.0  0.96819  0.59162  0.26055  1.0000
  H   H976      1.0  0.68102  0.82186  0.11691  1.0000
  H   H977      1.0  0.95354  0.58288  0.25721  1.0000
  C   C808      1.0  0.86826  0.51866  0.20992  1.0000
  C   C809      1.0  0.89046  0.51738  0.20527  1.0000
  Fe  Fe116     1.0  0.75880  0.57543  0.47461  1.0000
  H   H978      1.0  0.86047  0.53417  0.21139  1.0000
  C   C810      1.0  0.68151  0.83443  0.13279  1.0000
  C   C811      1.0  0.84192  0.49218  0.28694  1.0000
  H   H979      1.0  0.77347  0.66312  0.43680  1.0000
  C   C812      1.0  0.85603  0.49981  0.21193  1.0000
  H   H980      1.0  0.84861  0.52302  0.26734  1.0000
  H   H981      1.0  0.92294  0.68069  0.07648  1.0000
  C   C813      1.0  0.66409  0.51624  0.46961  1.0000
  H   H982      1.0  0.83882  0.50095  0.21505  1.0000
  S   S230      1.0  0.66810  0.86441  0.05059  1.0000
  H   H983      1.0  0.66190  0.81743  0.16296  1.0000
  H   H984      1.0  0.69932  0.50771  0.43986  1.0000
  H   H985      1.0  0.70033  0.85522  0.10531  1.0000
  H   H986      1.0  0.95164  0.67525  0.00602  1.0000
  C   C814      1.0  0.66998  0.84885  0.17967  1.0000
  C   C815      1.0  0.92691  0.68181  0.05303  1.0000
  H   H987      1.0  0.66890  0.49899  0.46912  1.0000
  H   H988      1.0  0.93590  0.64111  0.16956  1.0000
  C   C816      1.0  0.66445  0.89645  0.09213  1.0000
  C   C817      1.0  0.72848  0.68842  0.40952  1.0000
  H   H989      1.0  0.93636  0.72212  0.05203  1.0000
  H   H990      1.0  0.74258  0.96789  0.99897  1.0000
  H   H991      1.0  0.92448  0.66587  0.04315  1.0000
  H   H992      1.0  0.73023  0.70009  0.45402  1.0000
  C   C818      1.0  0.69256  0.86980  0.14598  1.0000
  C   C819      1.0  0.69750  0.70361  0.38382  1.0000
  H   H993      1.0  0.68207  0.96612  0.02234  1.0000
  N   N55       1.0  0.81330  0.70272  0.05563  1.0000
  C   C820      1.0  0.81202  0.69119  0.02789  1.0000
  C   C821      1.0  0.79354  0.71606  0.05851  1.0000
  C   C822      1.0  0.83205  0.71707  0.05365  1.0000
  C   C823      1.0  0.81564  0.68828  0.08104  1.0000
  C   C824      1.0  0.81560  0.69678  0.10931  1.0000
  C   C825      1.0  0.81903  0.66579  0.07864  1.0000
  C   C826      1.0  0.81847  0.68358  0.13359  1.0000
  C   C827      1.0  0.82179  0.65275  0.10310  1.0000
  C   C828      1.0  0.82151  0.66161  0.13049  1.0000
  H   H994      1.0  0.79843  0.67977  0.02807  1.0000
  H   H995      1.0  0.80957  0.70246  0.00933  1.0000
  H   H996      1.0  0.82719  0.68226  0.02294  1.0000
  H   H997      1.0  0.77911  0.70586  0.06151  1.0000
  H   H998      1.0  0.75864  0.80897  0.00791  1.0000
  H   H999      1.0  0.79415  0.72721  0.07692  1.0000
  H   H1000     1.0  0.84718  0.70760  0.05169  1.0000
  H   H1001     1.0  0.83115  0.72802  0.03453  1.0000
  H   H1002     1.0  0.83344  0.72742  0.07281  1.0000
  H   H1003     1.0  0.81393  0.71378  0.11282  1.0000
  H   H1004     1.0  0.82033  0.65792  0.05810  1.0000
  H   H1005     1.0  0.81895  0.69042  0.15494  1.0000
  H   H1006     1.0  0.82501  0.63575  0.10079  1.0000
  H   H1007     1.0  0.82447  0.65151  0.14928  1.0000
  N   N56       1.0  0.90766  0.60841  0.34523  1.0000
  C   C829      1.0  0.90732  0.61946  0.37337  1.0000
  C   C830      1.0  0.90344  0.62442  0.32205  1.0000
  C   C831      1.0  0.88966  0.59296  0.34580  1.0000
  C   C832      1.0  0.92895  0.59824  0.34011  1.0000
  C   C833      1.0  0.93159  0.57609  0.33397  1.0000
  C   C834      1.0  0.94788  0.61071  0.34061  1.0000
  C   C835      1.0  0.95199  0.56705  0.32947  1.0000
  C   C836      1.0  0.96817  0.60149  0.33619  1.0000
  C   C837      1.0  0.97024  0.57968  0.33082  1.0000
  H   H1008     1.0  0.91876  0.63299  0.37384  1.0000
  H   H1009     1.0  0.89118  0.62646  0.37839  1.0000
  H   H1010     1.0  0.91149  0.60814  0.39122  1.0000
  H   H1011     1.0  0.91513  0.63776  0.32177  1.0000
  H   H1012     1.0  0.88707  0.63164  0.32401  1.0000
  H   H1013     1.0  0.90474  0.61691  0.30054  1.0000
  H   H1014     1.0  0.89185  0.58030  0.36263  1.0000
  H   H1015     1.0  0.87401  0.60096  0.35066  1.0000
  H   H1016     1.0  0.88764  0.58526  0.32451  1.0000
  H   H1017     1.0  0.91815  0.56545  0.33202  1.0000
  H   H1018     1.0  0.94710  0.62783  0.34364  1.0000
  H   H1019     1.0  0.95366  0.55022  0.32436  1.0000
  H   H1020     1.0  0.98237  0.61142  0.33596  1.0000
  H   H1021     1.0  0.98600  0.57274  0.32668  1.0000
  C   C838      1.0  0.95246  0.69131  0.01603  1.0000
  H   H1022     1.0  0.66298  0.81221  0.21175  1.0000
  H   H1023     1.0  0.98103  0.68763  0.13829  1.0000
  H   H1024     1.0  0.68783  0.70462  0.36462  1.0000
  C   C839      1.0  0.67518  0.67003  0.46981  1.0000
  H   H1025     1.0  0.94267  0.51417  0.22816  1.0000
  C   C840      1.0  0.98201  0.74877  0.00810  1.0000
  C   C841      1.0  0.83404  0.52621  0.30928  1.0000
  C   C842      1.0  0.69156  0.71545  0.40794  1.0000
  H   H1026     1.0  0.94900  0.71136  0.08370  1.0000
  H   H1027     1.0  0.94343  0.67605  0.14630  1.0000
  H   H1028     1.0  0.96469  0.72044  0.05304  1.0000
  C   C843      1.0  0.65633  0.90479  0.11836  1.0000
  C   C844      1.0  0.96603  0.67629  0.06048  1.0000
  H   H1029     1.0  0.68536  0.52918  0.42129  1.0000
  H   H1030     1.0  0.83415  0.54358  0.30838  1.0000
  C   C845      1.0  0.71571  0.69033  0.38448  1.0000
  H   H1031     1.0  0.75624  0.67878  0.36476  1.0000
  S   S231      1.0  0.79325  0.58552  0.47590  1.0000
  H   H1032     1.0  0.65951  0.96647  0.10999  1.0000
  S   S232      1.0  0.82382  0.76321  0.99561  1.0000
  C   C846      1.0  0.76294  0.68043  0.38666  1.0000
  H   H1033     1.0  0.96824  0.69834  0.00997  1.0000
  C   C847      1.0  0.84218  0.51457  0.28613  1.0000
  C   C848      1.0  0.68944  0.59102  0.46599  1.0000
  C   C849      1.0  0.72194  0.70076  0.43374  1.0000
  C   C850      1.0  0.74072  0.65166  0.40460  1.0000
  C   C851      1.0  0.75917  0.67397  0.43746  1.0000
  S   S233      1.0  0.71165  0.64459  0.48004  1.0000
  C   C852      1.0  0.94988  0.71181  0.05973  1.0000
  H   H1034     1.0  0.97805  0.75713  0.02778  1.0000
  H   H1035     1.0  0.94023  0.70180  0.00564  1.0000
  C   C853      1.0  0.66545  0.97515  0.09109  1.0000
  H   H1036     1.0  0.75152  0.50109  0.42950  1.0000
  N   N57       1.0  0.94899  0.68993  0.04770  1.0000
  H   H1037     1.0  0.94561  0.65063  0.07832  1.0000
  C   C854      1.0  0.75074  0.51446  0.47212  1.0000
  H   H1038     1.0  0.72878  0.64632  0.42127  1.0000
  C   C855      1.0  0.97779  0.67215  0.14823  1.0000
  H   H1039     1.0  0.77778  0.67025  0.38704  1.0000
  C   C856      1.0  0.66151  0.68831  0.47260  1.0000
  C   C857      1.0  0.95243  0.64590  0.16566  1.0000
  H   H1040     1.0  0.67729  0.72554  0.40765  1.0000
  H   H1041     1.0  0.70052  0.88466  0.14029  1.0000
  Fe  Fe117     1.0  0.90548  0.73514  0.98546  1.0000
  C   C858      1.0  0.82561  0.51549  0.33338  1.0000
  C   C859      1.0  0.96795  0.49039  0.23246  1.0000
  S   S234      1.0  0.75153  0.54143  0.45851  1.0000
  C   C860      1.0  0.66529  0.82740  0.22343  1.0000
  C   C861      1.0  0.96931  0.63246  0.17433  1.0000
  C   C862      1.0  0.95664  0.66567  0.15264  1.0000
  C   C863      1.0  0.78747  0.78946  0.00229  1.0000
  C   C864      1.0  0.75009  0.49755  0.45235  1.0000
  H   H1042     1.0  0.81914  0.52469  0.35124  1.0000
  H   H1043     1.0  0.76786  0.69739  0.38915  1.0000
  H   H1044     1.0  0.74880  0.66819  0.45569  1.0000
  C   C865      1.0  0.67808  0.97493  0.04173  1.0000
  C   C866      1.0  0.78297  0.82649  0.98450  1.0000
  C   C867      1.0  0.67758  0.55360  0.46772  1.0000
  H   H1045     1.0  0.71960  0.68136  0.36532  1.0000
  S   S235      1.0  0.93807  0.74781  0.00048  1.0000
  C   C868      1.0  0.97377  0.52825  0.22354  1.0000
  H   H1046     1.0  0.68134  0.88171  0.18590  1.0000
  H   H1047     1.0  0.96730  0.54427  0.22013  1.0000
  C   C869      1.0  0.68140  0.86782  0.17228  1.0000
  H   H1048     1.0  0.68269  0.82884  0.22804  1.0000
  H   H1049     1.0  0.97470  0.62884  0.09713  1.0000
  C   C870      1.0  0.95987  0.51117  0.22812  1.0000
  N   N58       1.0  0.68306  0.53045  0.46763  1.0000
  C   C871      1.0  0.67070  0.96392  0.06618  1.0000
  C   C872      1.0  0.66844  0.59825  0.46983  1.0000
  C   C873      1.0  0.69496  0.52505  0.44066  1.0000
  H   H1050     1.0  0.71039  0.53369  0.43841  1.0000
  C   C874      1.0  0.69403  0.56911  0.46500  1.0000
  C   C875      1.0  0.69250  0.85321  0.12623  1.0000
  C   C876      1.0  0.98794  0.58061  0.26226  1.0000
  C   C877      1.0  0.67051  0.83216  0.15915  1.0000
  C   C878      1.0  0.97837  0.64382  0.08609  1.0000
  H   H1051     1.0  0.66894  0.94664  0.06575  1.0000
  H   H1052     1.0  0.67057  0.65725  0.45575  1.0000
  H   H1053     1.0  0.78076  0.77579  0.01366  1.0000
  H   H1054     1.0  0.70232  0.60250  0.46408  1.0000
  H   H1055     1.0  0.71071  0.56446  0.46244  1.0000
  C   C879      1.0  0.65710  0.87682  0.08210  1.0000
  N   N59       1.0  0.65743  0.84634  0.20690  1.0000
  C   C880      1.0  0.77476  0.80837  0.99898  1.0000
  H   H1056     1.0  0.67530  0.86831  0.23267  1.0000
  C   C881      1.0  0.65855  0.86515  0.22610  1.0000
  Fe  Fe118     1.0  0.85553  0.74375  0.98566  1.0000
  C   C882      1.0  0.98645  0.62493  0.26907  1.0000
  C   C883      1.0  0.80868  0.78802  0.99111  1.0000
  Fe  Fe119     1.0  0.73453  0.86902  0.98437  1.0000
  H   H1057     1.0  0.98842  0.56339  0.26036  1.0000
  H   H1058     1.0  0.65650  0.82557  0.24447  1.0000
  Fe  Fe120     1.0  0.78334  0.60458  0.51515  1.0000
  S   S236      1.0  0.74866  0.59346  0.51464  1.0000
  S   S237      1.0  0.80887  0.59927  0.55035  1.0000
  H   H1059     1.0  0.66040  0.98292  0.86095  1.0000
  C   C884      1.0  0.66119  0.87035  0.88047  1.0000
  S   S238      1.0  0.84992  0.70921  0.97329  1.0000
  H   H1060     1.0  0.75743  0.85265  0.88112  1.0000
  H   H1061     1.0  0.80696  0.80175  0.85989  1.0000
  C   C885      1.0  0.66203  0.86842  0.85024  1.0000
  Fe  Fe121     1.0  0.87957  0.61003  0.77190  1.0000
  S   S239      1.0  0.88139  0.63374  0.73505  1.0000
  S   S240      1.0  0.87590  0.61765  0.82012  1.0000
  Fe  Fe122     1.0  0.88983  0.57190  0.73158  1.0000
  S   S241      1.0  0.89279  0.59350  0.69253  1.0000
  S   S242      1.0  0.89952  0.53779  0.72031  1.0000
  Fe  Fe123     1.0  0.91098  0.61522  0.72134  1.0000
  S   S243      1.0  0.94126  0.63233  0.70628  1.0000
  Fe  Fe124     1.0  0.86296  0.60955  0.70932  1.0000
  S   S244      1.0  0.83414  0.61865  0.68117  1.0000
  S   S245      1.0  0.91009  0.59266  0.75920  1.0000
  S   S246      1.0  0.85888  0.58691  0.74741  1.0000
  Fe  Fe125     1.0  0.87726  0.71287  0.94136  1.0000
  S   S247      1.0  0.88210  0.74787  0.95213  1.0000
  S   S248      1.0  0.87664  0.70450  0.89315  1.0000
  H   H1062     1.0  0.71360  0.83207  0.92666  1.0000
  H   H1063     1.0  0.95832  0.72667  0.95028  1.0000
  H   H1064     1.0  0.73668  0.82575  0.94767  1.0000
  H   H1065     1.0  0.75658  0.79467  0.94304  1.0000
  C   C886      1.0  0.79979  0.78584  0.90014  1.0000
  H   H1066     1.0  0.83009  0.52867  0.58696  1.0000
  Fe  Fe126     1.0  0.69378  0.87503  0.94691  1.0000
  S   S249      1.0  0.72554  0.89171  0.94773  1.0000
  S   S250      1.0  0.68519  0.86633  0.90046  1.0000
  H   H1067     1.0  0.77440  0.82390  0.86045  1.0000
  H   H1068     1.0  0.78212  0.57384  0.61412  1.0000
  H   H1069     1.0  0.73785  0.82497  0.85545  1.0000
  H   H1070     1.0  0.90569  0.49467  0.70212  1.0000
  H   H1071     1.0  0.69061  0.97481  0.88479  1.0000
  H   H1072     1.0  0.73404  0.85882  0.90209  1.0000
  H   H1073     1.0  0.87845  0.66378  0.67006  1.0000
  H   H1074     1.0  0.93375  0.50703  0.74539  1.0000
  C   C887      1.0  0.90585  0.66672  0.62356  1.0000
  H   H1075     1.0  0.71405  0.83035  0.87597  1.0000
  H   H1076     1.0  0.92551  0.62779  0.64792  1.0000
  C   C888      1.0  0.92740  0.66061  0.88538  1.0000
  H   H1077     1.0  0.94071  0.68624  0.81091  1.0000
  C   C889      1.0  0.65919  0.94801  0.86456  1.0000
  H   H1078     1.0  0.85733  0.55159  0.70711  1.0000
  H   H1079     1.0  0.75871  0.85189  0.91969  1.0000
  C   C890      1.0  0.92445  0.59982  0.62252  1.0000
  C   C891      1.0  0.98431  0.49346  0.72296  1.0000
  C   C892      1.0  0.87546  0.64209  0.83992  1.0000
  C   C893      1.0  0.87618  0.66228  0.82641  1.0000
  C   C894      1.0  0.87635  0.68108  0.84307  1.0000
  C   C895      1.0  0.87564  0.68008  0.87345  1.0000
  C   C896      1.0  0.87463  0.65991  0.88697  1.0000
  C   C897      1.0  0.87461  0.64110  0.87030  1.0000
  H   H1080     1.0  0.87642  0.66349  0.80314  1.0000
  H   H1081     1.0  0.87701  0.69655  0.83233  1.0000
  H   H1082     1.0  0.87402  0.65880  0.91025  1.0000
  H   H1083     1.0  0.87392  0.62563  0.88107  1.0000
  C   C898      1.0  0.96768  0.60501  0.73744  1.0000
  C   C899      1.0  0.96639  0.62284  0.71896  1.0000
  H   H1084     1.0  0.93868  0.59298  0.63238  1.0000
  H   H1085     1.0  0.95344  0.59614  0.74302  1.0000
  C   C900      1.0  0.67545  0.92417  0.90182  1.0000
  C   C901      1.0  0.88628  0.51396  0.73079  1.0000
  C   C902      1.0  0.86975  0.51375  0.75151  1.0000
  H   H1086     1.0  0.98456  0.64749  0.69690  1.0000
  H   H1087     1.0  0.86465  0.52852  0.76155  1.0000
  C   C903      1.0  0.66699  0.70533  0.49051  1.0000
  H   H1088     1.0  0.66038  0.91547  0.90717  1.0000
  C   C904      1.0  0.89555  0.59741  0.58877  1.0000
  H   H1089     1.0  0.74906  0.52228  0.51713  1.0000
  H   H1090     1.0  0.70202  0.95543  0.90843  1.0000
  H   H1091     1.0  0.67714  0.86456  0.83969  1.0000
  H   H1092     1.0  0.65974  0.91970  0.66289  1.0000
  C   C905      1.0  0.81566  0.60542  0.58661  1.0000
  C   C906      1.0  0.83476  0.59676  0.59804  1.0000
  C   C907      1.0  0.84068  0.60056  0.62682  1.0000
  C   C908      1.0  0.82754  0.61313  0.64467  1.0000
  C   C909      1.0  0.80850  0.62186  0.63324  1.0000
  C   C910      1.0  0.80258  0.61808  0.60444  1.0000
  H   H1093     1.0  0.84491  0.58678  0.58458  1.0000
  H   H1094     1.0  0.85539  0.59373  0.63509  1.0000
  H   H1095     1.0  0.79818  0.63166  0.64677  1.0000
  H   H1096     1.0  0.78784  0.62485  0.59612  1.0000
  H   H1097     1.0  0.90092  0.64618  0.67379  1.0000
  C   C911      1.0  0.78532  0.78394  0.92315  1.0000
  H   H1098     1.0  0.91987  0.57308  0.59461  1.0000
  H   H1099     1.0  0.83232  0.52081  0.71770  1.0000
  H   H1100     1.0  0.72255  0.80491  0.92908  1.0000
  N   N60       1.0  0.88967  0.64998  0.62992  1.0000
  H   H1101     1.0  0.92943  0.63028  0.86593  1.0000
  H   H1102     1.0  0.82232  0.55625  0.72845  1.0000
  N   N61       1.0  0.94158  0.64221  0.80892  1.0000
  C   C912      1.0  0.96360  0.64679  0.79807  1.0000
  C   C913      1.0  0.94047  0.61887  0.81548  1.0000
  C   C914      1.0  0.92621  0.64693  0.78554  1.0000
  C   C915      1.0  0.93660  0.65582  0.83413  1.0000
  C   C916      1.0  0.93728  0.67850  0.83141  1.0000
  C   C917      1.0  0.93129  0.64723  0.86188  1.0000
  H   H1103     1.0  0.96743  0.52360  0.72819  1.0000
  C   C918      1.0  0.96654  0.50628  0.73022  1.0000
  H   H1104     1.0  0.71501  0.68430  0.51450  1.0000
  H   H1105     1.0  0.97551  0.64418  0.81539  1.0000
  H   H1106     1.0  0.96826  0.63626  0.77979  1.0000
  H   H1107     1.0  0.96521  0.66347  0.78974  1.0000
  H   H1108     1.0  0.95190  0.61399  0.83261  1.0000
  H   H1109     1.0  0.94468  0.60911  0.79625  1.0000
  H   H1110     1.0  0.92392  0.61409  0.82231  1.0000
  H   H1111     1.0  0.92961  0.63698  0.76626  1.0000
  H   H1112     1.0  0.90949  0.64351  0.79279  1.0000
  H   H1113     1.0  0.92666  0.66387  0.77801  1.0000
  H   H1114     1.0  0.93295  0.70899  0.85233  1.0000
  C   C919      1.0  0.89293  0.49462  0.71820  1.0000
  H   H1115     1.0  0.68470  0.91493  0.88536  1.0000
  C   C920      1.0  0.86915  0.65687  0.61655  1.0000
  C   C921      1.0  0.65852  0.95729  0.91505  1.0000
  S   S251      1.0  0.70316  0.85163  0.98221  1.0000
  C   C922      1.0  0.80500  0.55106  0.59768  1.0000
  H   H1116     1.0  0.85620  0.64504  0.62104  1.0000
  H   H1117     1.0  0.87486  0.63547  0.66726  1.0000
  H   H1118     1.0  0.87093  0.65917  0.59280  1.0000
  H   H1119     1.0  0.81106  0.51597  0.69292  1.0000
  H   H1120     1.0  0.88733  0.58867  0.57224  1.0000
  C   C923      1.0  0.69470  0.66817  0.48479  1.0000
  H   H1121     1.0  0.79981  0.55312  0.57556  1.0000
  C   C924      1.0  0.88589  0.64881  0.66156  1.0000
  C   C925      1.0  0.91668  0.61978  0.63139  1.0000
  C   C926      1.0  0.98533  0.63373  0.71130  1.0000
  H   H1122     1.0  0.66662  0.95589  0.93628  1.0000
  H   H1123     1.0  0.68512  0.92363  0.92185  1.0000
  C   C927      1.0  0.91386  0.58861  0.60132  1.0000
  C   C928      1.0  0.82214  0.53744  0.60414  1.0000
  H   H1124     1.0  0.92273  0.65381  0.90616  1.0000
  H   H1125     1.0  0.90974  0.66756  0.60005  1.0000
  H   H1126     1.0  0.86145  0.54299  0.67120  1.0000
  H   H1127     1.0  0.92433  0.69307  0.89996  1.0000
  C   C929      1.0  0.82939  0.53550  0.63247  1.0000
  C   C930      1.0  0.88761  0.61735  0.59756  1.0000
  C   C931      1.0  0.94750  0.49698  0.73997  1.0000
  H   H1128     1.0  0.72494  0.80355  0.87511  1.0000
  Fe  Fe127     1.0  0.74226  0.62262  0.48535  1.0000
  C   C932      1.0  0.93308  0.69171  0.85499  1.0000
  H   H1129     1.0  0.67459  0.90368  0.63723  1.0000
  S   S252      1.0  0.67827  0.89791  0.97794  1.0000
  N   N62       1.0  0.74230  0.82517  0.90168  1.0000
  C   C933      1.0  0.72825  0.82171  0.92745  1.0000
  C   C934      1.0  0.74842  0.84808  0.90103  1.0000
  C   C935      1.0  0.72930  0.82079  0.87590  1.0000
  C   C936      1.0  0.76187  0.81149  0.90154  1.0000
  C   C937      1.0  0.77690  0.81287  0.87826  1.0000
  C   C938      1.0  0.76669  0.79660  0.92410  1.0000
  C   C939      1.0  0.79558  0.80026  0.87770  1.0000
  H   H1130     1.0  0.90008  0.68284  0.63036  1.0000
  H   H1131     1.0  0.78883  0.77286  0.94073  1.0000
  N   N63       1.0  0.82806  0.54537  0.68488  1.0000
  H   H1132     1.0  0.70166  0.95038  0.87038  1.0000
  H   H1133     1.0  0.81439  0.77623  0.89992  1.0000
  H   H1134     1.0  0.83874  0.51225  0.68234  1.0000
  H   H1135     1.0  0.79864  0.55349  0.70756  1.0000
  H   H1136     1.0  0.86318  0.67240  0.62528  1.0000
  H   H1137     1.0  0.79428  0.57134  0.66336  1.0000
  C   C940      1.0  0.81579  0.55828  0.70633  1.0000
  H   H1138     1.0  0.81668  0.57577  0.70120  1.0000
  C   C941      1.0  0.68653  0.70347  0.50548  1.0000
  C   C942      1.0  0.74877  0.50952  0.50160  1.0000
  H   H1139     1.0  0.92115  0.66361  0.63506  1.0000
  N   N64       1.0  0.67112  0.94654  0.89196  1.0000
  C   C943      1.0  0.97084  0.73171  0.96451  1.0000
  C   C944      1.0  0.85058  0.55274  0.68510  1.0000
  C   C945      1.0  0.81970  0.54734  0.65523  1.0000
  H   H1140     1.0  0.84291  0.52495  0.63638  1.0000
  C   C946      1.0  0.74523  0.48814  0.51090  1.0000
  C   C947      1.0  0.98749  0.59861  0.74897  1.0000
  C   C948      1.0  0.82747  0.52265  0.69476  1.0000
  C   C949      1.0  0.80226  0.56114  0.64786  1.0000
  C   C950      1.0  0.89782  0.62904  0.61954  1.0000
  H   H1141     1.0  0.87326  0.62307  0.58706  1.0000
  C   C951      1.0  0.79501  0.56275  0.61951  1.0000
  H   H1142     1.0  0.85172  0.56973  0.67767  1.0000
  S   S253      1.0  0.90195  0.70079  0.97272  1.0000
  C   C952      1.0  0.71387  0.97664  0.97634  1.0000
  C   C953      1.0  0.92828  0.68277  0.88195  1.0000
  Fe  Fe128     1.0  0.71052  0.91396  0.98029  1.0000
  S   S254      1.0  0.70470  0.94999  0.97049  1.0000
  H   H1143     1.0  0.66900  0.87318  0.67296  1.0000
  H   H1144     1.0  0.69115  0.71631  0.51945  1.0000
  S   S255      1.0  0.76769  0.85117  0.97961  1.0000
  H   H1145     1.0  0.84756  0.49406  0.77610  1.0000
  C   C954      1.0  0.69219  0.95728  0.88862  1.0000
  C   C955      1.0  0.70021  0.68520  0.50266  1.0000
  S   S256      1.0  0.77642  0.63439  0.48828  1.0000
  H   H1146     1.0  0.68847  0.52901  0.51336  1.0000
  C   C956      1.0  0.86015  0.49421  0.75977  1.0000
  H   H1147     1.0  0.83294  0.80552  0.96751  1.0000
  C   C957      1.0  0.80414  0.82503  0.97327  1.0000
  C   C958      1.0  0.81681  0.80608  0.97642  1.0000
  H   H1148     1.0  0.81087  0.83873  0.96198  1.0000
  C   C959      1.0  0.65821  0.90913  0.64383  1.0000
  C   C960      1.0  0.69684  0.52532  0.49263  1.0000
  H   H1149     1.0  0.71189  0.53472  0.49211  1.0000
  H   H1150     1.0  0.65620  0.97469  0.91057  1.0000
  H   H1151     1.0  0.70177  0.50810  0.49317  1.0000
  H   H1152     1.0  0.98818  0.58502  0.76368  1.0000
