data_image0
_chemical_formula_structural       FeS2FeS2FeSFeS3H2SFeSH2CFeSFeH2SH7C4HC6H4C3H2C6H4C6H4NH2CSCSH3SHS2H2CHCH2CH3NHCHCHSCHNC9H11C2HCSH2CHC2H2CNC3H7NC9H3FeH5CHCHFeCH2SHCHC2H2CHCH2FeS2FeS2FeSFeS3C2SFeSH2SFeSH2FeSH2C2HS2H2CHC7H4C3H2C6H4C6H4SHNC3HC2HNH2CH2FeH2NC6HCH13NC2H5NC9H14CSCHNC9H14CFeH4C2HC3H2CHC2HFeS2FeS2FeSFeS3FeHSHSH2SCH2SHSHSHCHNFeC6H4C6H4C6H5CHFeC4H2C3SCH2C2HCNH2C3H6CH4C2SH2CN2C9H14C2HCHCHCH4CH2CH2C4H4CH2FeCHC2NC2H3C2H3FeH5C3HSH4C2HCFeS2FeS2FeSFeS3FeS2HCHS2FeH2SNHFeSC3HC7H4C6H4C6H4CHCH3C2H2NC9H16CHSHNC9H14CSH2CFeH5C2H3CHSH2C3HCH2CHFeHC2NC8SH2CHC2H2CH2SCSCSHFeSFeS2H2SHFeHSHCS2FeSH2SFeC2SCSCFeCFeSFeCHCH2FeHC2HC3HC3H7C6H4C6H3C2SH3C6H4C6H4FeHCH2CHNHC4H2N2HC3H2CNC6H4SH5S2H2SCHC3H4C2HC2HCHCHCH2C2H2NHFeHC3SCH3CSHCHFeSHC2H2C2H2CH2CHCHNCH2CH2C2HCH2C4H5SCSHCHCH2Fe2S2FeSFeS2HFeSH2FeSHCS2FeSHCSH2CSHSFeHCFeSHCH5CH2C3H6CHCHC8HC9H9C6H4C6H5SC3H3SH3FeS2HC3HCFeSHCH2CHFeNH3C2S2HC3HFeNHC2H5NC9H14S2NC9H12CHCHCSH2C2HC3FeCH4S2CHCFeSFeSH2CS2H2CFeSFeH2FeS2FeHCHS2FeSHFeS2FeSCS2HC6H4C7H3C6H3C6H4C6H5CFeH6C2H5CH3CNHSFeHCFeC2H2NH3CHNC9H14CHSHFeHSHSC2HCS2CH2C2HC3H4C3H4SCSCH2SH2CHC2SHSC6HC2HCS2CH2SHNCH2C2HC2HFeSFeSH3S3H3SC2HFeS2HCNHS2CHCFeS2FeSNS2HC6H3C7HSH2C7H2C6H4C6H6CH8NH2C2SFe2HC2HFeC2HFeC2H8CH2SH4C2HCHCH2SNCHC3HCHNC2H2C3HCNC9H14FeH3NC3S2C2H2CH6C2H3CNHC3HC2H2CH3C2H2C2H2SCH2C2HFeCHCHCHC2HSH2C3Fe3S2FeS2FeSFeS3FeS2CSCFeSFeHSCFeHSHS2H2C2H3CHCHC7H4CHC2HC6H4C6H4C2HNCH3CH4CHC2H2C2H3SCSH2C3H2CHCH2C2HCH7NHNC9H16C2H2CHSNC6H6CH3C5H2CSHCHS2FeHC3Fe2S2FeS2FeSFeS3FeSH2SCFeSFeS2HFeS2H2C3HNCHCH2NSHC6H4C3H2C6H4C6H4NC9H15C3NHC4H4C2HCFeCSHSH3CH2CH5CHCH4NHC5H2C2H4C3HCH2CHCH2CH4CHCHFeH2C2HCH5C2HCHNHCH3SH2CH2FeS2FeS2FeSFeS3FeCSFeS2FeHCS3FeHSCS2HCHCHC2NC6H4C6H4C6H4CNCHC3H3CH3CH3CNC3H9CHCH2C2H2CHNC9H14NHCHCHCHFeH12C2H2SCHC2H2CHCH2CFeC3H4C2NHC3HC3H4C2H9NC2HC4FeH2NCH3CH3CHC3H2FeS2FeS2FeSFeS3FeHSFeS2FeS5FeCSHC5H3SHC6H4C6H4C6H4C2H4CH2CH2CH9C2HC4HC2HCHSC2H2SC3NC4HCH2CH12CNH2NC9H15C2HNCH4CH2C4HSH2FeH2SC2H
_chemical_formula_sum              "Fe128 S256 H1152 C960 N64"
_cell_length_a       73.9731
_cell_length_b       37.2717
_cell_length_c       45.737
_cell_angle_alpha    91.1483
_cell_angle_beta     91.399
_cell_angle_gamma    89.631

_space_group_name_H-M_alt    "P 1"
_space_group_IT_number       1

loop_
  _space_group_symop_operation_xyz
  'x, y, z'

loop_
  _atom_site_type_symbol
  _atom_site_label
  _atom_site_symmetry_multiplicity
  _atom_site_fract_x
  _atom_site_fract_y
  _atom_site_fract_z
  _atom_site_occupancy
  Fe  Fe1       1.0  0.16271  0.21095  0.24703  1.0000
  S   S1        1.0  0.19032  0.18673  0.25622  1.0000
  S   S2        1.0  0.15054  0.21037  0.20056  1.0000
  Fe  Fe2       1.0  0.15623  0.22794  0.31229  1.0000
  S   S3        1.0  0.18346  0.20599  0.32600  1.0000
  S   S4        1.0  0.13294  0.24902  0.34016  1.0000
  Fe  Fe3       1.0  0.19432  0.23420  0.28696  1.0000
  S   S5        1.0  0.21743  0.27462  0.28684  1.0000
  Fe  Fe4       1.0  0.17738  0.15980  0.29426  1.0000
  S   S6        1.0  0.18196  0.10326  0.31228  1.0000
  S   S7        1.0  0.16730  0.25971  0.27554  1.0000
  S   S8        1.0  0.14959  0.18035  0.28278  1.0000
  H   H1        1.0  0.11352  0.29573  0.29523  1.0000
  H   H2        1.0  0.08440  0.22999  0.25655  1.0000
  S   S9        1.0  0.13643  0.30567  0.47356  1.0000
  Fe  Fe5       1.0  0.07688  0.34863  0.03122  1.0000
  S   S10       1.0  0.09333  0.38618  0.06036  1.0000
  H   H3        1.0  0.15740  0.42698  0.44023  1.0000
  H   H4        1.0  0.13590  0.47435  0.43535  1.0000
  C   C1        1.0  0.22669  0.00328  0.25636  1.0000
  Fe  Fe6       1.0  0.11145  0.33865  0.07012  1.0000
  S   S11       1.0  0.12267  0.33663  0.11743  1.0000
  Fe  Fe7       1.0  0.11034  0.39474  0.02140  1.0000
  H   H5        1.0  0.16323  0.26306  0.38158  1.0000
  H   H6        1.0  0.05328  0.44691  0.03199  1.0000
  S   S12       1.0  0.30326  0.25535  0.28083  1.0000
  H   H7        1.0  0.07492  0.46684  0.02665  1.0000
  H   H8        1.0  0.22203  0.30675  0.19226  1.0000
  H   H9        1.0  0.00549  0.26511  0.04964  1.0000
  H   H10       1.0  0.22933  0.26381  0.20386  1.0000
  H   H11       1.0  0.03602  0.45840  0.48701  1.0000
  H   H12       1.0  0.16363  0.33221  0.10043  1.0000
  H   H13       1.0  0.10455  0.47003  0.06023  1.0000
  C   C2        1.0  0.02391  0.30790  0.04016  1.0000
  C   C3        1.0  0.02555  0.34374  0.03213  1.0000
  C   C4        1.0  0.22238  0.06045  0.28128  1.0000
  C   C5        1.0  0.12668  0.20647  0.45865  1.0000
  H   H14       1.0  0.10237  0.34035  0.22731  1.0000
  C   C6        1.0  0.24126  0.26843  0.28539  1.0000
  C   C7        1.0  0.25246  0.29885  0.28639  1.0000
  C   C8        1.0  0.27144  0.29543  0.28505  1.0000
  C   C9        1.0  0.27943  0.26144  0.28260  1.0000
  C   C10       1.0  0.26823  0.23100  0.28160  1.0000
  C   C11       1.0  0.24925  0.23442  0.28298  1.0000
  H   H15       1.0  0.24643  0.32528  0.28830  1.0000
  H   H16       1.0  0.27986  0.31907  0.28589  1.0000
  H   H17       1.0  0.27428  0.20458  0.27967  1.0000
  H   H18       1.0  0.24084  0.21078  0.28219  1.0000
  C   C12       1.0  0.17700  0.06073  0.29530  1.0000
  C   C13       1.0  0.17937  0.02930  0.31164  1.0000
  C   C14       1.0  0.17123  0.05735  0.26601  1.0000
  H   H19       1.0  0.18381  0.03148  0.33430  1.0000
  H   H20       1.0  0.16936  0.08113  0.25308  1.0000
  C   C15       1.0  0.14281  0.24599  0.17786  1.0000
  C   C16       1.0  0.13546  0.23761  0.14988  1.0000
  C   C17       1.0  0.12927  0.26484  0.13100  1.0000
  C   C18       1.0  0.13040  0.30090  0.13991  1.0000
  C   C19       1.0  0.13775  0.30926  0.16790  1.0000
  C   C20       1.0  0.14390  0.28207  0.18678  1.0000
  H   H21       1.0  0.13452  0.20983  0.14271  1.0000
  H   H22       1.0  0.12360  0.25795  0.10961  1.0000
  H   H23       1.0  0.13866  0.33705  0.17500  1.0000
  H   H24       1.0  0.14945  0.28923  0.20813  1.0000
  C   C21       1.0  0.13420  0.26420  0.37742  1.0000
  C   C22       1.0  0.11810  0.27222  0.39210  1.0000
  C   C23       1.0  0.11847  0.28484  0.42147  1.0000
  C   C24       1.0  0.13501  0.28983  0.43649  1.0000
  C   C25       1.0  0.15110  0.28188  0.42176  1.0000
  C   C26       1.0  0.15072  0.26892  0.39251  1.0000
  H   H25       1.0  0.10523  0.26867  0.38073  1.0000
  H   H26       1.0  0.10597  0.29070  0.43244  1.0000
  H   H27       1.0  0.16397  0.28557  0.43312  1.0000
  H   H28       1.0  0.08635  0.30394  0.14188  1.0000
  N   N1        1.0  0.14072  0.42426  0.47826  1.0000
  H   H29       1.0  0.21993  0.08916  0.28055  1.0000
  H   H30       1.0  0.12480  0.41872  0.43791  1.0000
  C   C27       1.0  0.19050  0.32067  0.16106  1.0000
  S   S13       1.0  0.12985  0.35028  0.03289  1.0000
  C   C28       1.0  0.29772  0.48456  0.26350  1.0000
  S   S14       1.0  0.04686  0.36457  0.02736  1.0000
  H   H31       1.0  0.07638  0.27374  0.26728  1.0000
  H   H32       1.0  0.31137  0.17957  0.36072  1.0000
  H   H33       1.0  0.32960  0.23368  0.32427  1.0000
  S   S15       1.0  0.33368  0.43284  0.29798  1.0000
  H   H34       1.0  0.17921  0.36724  0.13977  1.0000
  S   S16       1.0  0.33065  0.33454  0.32007  1.0000
  S   S17       1.0  0.09380  0.30010  0.04368  1.0000
  H   H35       1.0  0.09436  0.35273  0.17672  1.0000
  H   H36       1.0  0.11605  0.22062  0.24312  1.0000
  C   C29       1.0  0.12496  0.41008  0.46100  1.0000
  H   H37       1.0  0.31014  0.27584  0.34873  1.0000
  C   C30       1.0  0.17184  0.31861  0.11685  1.0000
  H   H38       1.0  0.19675  0.33708  0.17817  1.0000
  H   H39       1.0  0.12010  0.22290  0.47517  1.0000
  C   C31       1.0  0.17301  0.28131  0.11635  1.0000
  H   H40       1.0  0.16960  0.42571  0.47460  1.0000
  H   H41       1.0  0.22122  0.05910  0.32798  1.0000
  H   H42       1.0  0.09841  0.32373  0.27476  1.0000
  N   N2        1.0  0.32355  0.23137  0.37002  1.0000
  H   H43       1.0  0.16567  0.26619  0.09942  1.0000
  C   C32       1.0  0.19194  0.28265  0.16129  1.0000
  H   H44       1.0  0.18248  0.23445  0.13700  1.0000
  C   C33       1.0  0.18278  0.26339  0.13825  1.0000
  H   H45       1.0  0.32860  0.28831  0.37265  1.0000
  S   S18       1.0  0.11867  0.44858  0.00334  1.0000
  C   C34       1.0  0.18055  0.33826  0.13917  1.0000
  H   H46       1.0  0.08652  0.24105  0.15794  1.0000
  N   N3        1.0  0.15268  0.14495  0.39023  1.0000
  C   C35       1.0  0.14676  0.10699  0.39057  1.0000
  C   C36       1.0  0.14723  0.16031  0.36170  1.0000
  C   C37       1.0  0.17277  0.14504  0.39209  1.0000
  C   C38       1.0  0.14405  0.16578  0.41413  1.0000
  C   C39       1.0  0.12491  0.16794  0.41547  1.0000
  C   C40       1.0  0.15414  0.18498  0.43618  1.0000
  C   C41       1.0  0.11641  0.18805  0.43740  1.0000
  C   C42       1.0  0.14548  0.20490  0.45806  1.0000
  C   C43       1.0  0.22541  0.00613  0.30924  1.0000
  H   H47       1.0  0.13200  0.10414  0.38616  1.0000
  H   H48       1.0  0.15356  0.09042  0.37340  1.0000
  H   H49       1.0  0.14993  0.09483  0.41215  1.0000
  H   H50       1.0  0.13240  0.15945  0.35740  1.0000
  H   H51       1.0  0.15365  0.14570  0.34313  1.0000
  H   H52       1.0  0.15127  0.18893  0.36091  1.0000
  H   H53       1.0  0.17792  0.13305  0.41279  1.0000
  H   H54       1.0  0.17879  0.12912  0.37379  1.0000
  H   H55       1.0  0.17821  0.17271  0.39040  1.0000
  H   H56       1.0  0.11633  0.15464  0.39923  1.0000
  H   H57       1.0  0.16872  0.18570  0.43678  1.0000
  C   C44       1.0  0.15745  0.41534  0.46241  1.0000
  C   C45       1.0  0.10624  0.49384  0.04744  1.0000
  H   H58       1.0  0.09149  0.24903  0.29107  1.0000
  C   C46       1.0  0.33278  0.22119  0.39779  1.0000
  S   S19       1.0  0.33428  0.33768  0.24884  1.0000
  H   H59       1.0  0.09441  0.22645  0.20844  1.0000
  H   H60       1.0  0.15333  0.22033  0.47419  1.0000
  C   C47       1.0  0.16796  0.02305  0.25330  1.0000
  H   H61       1.0  0.10178  0.19001  0.43764  1.0000
  C   C48       1.0  0.00661  0.29287  0.04353  1.0000
  C   C49       1.0  0.06463  0.44878  0.01655  1.0000
  H   H62       1.0  0.29999  0.21626  0.34388  1.0000
  H   H63       1.0  0.12163  0.31730  0.26366  1.0000
  C   C50       1.0  0.22424  0.04048  0.25547  1.0000
  N   N4        1.0  0.20220  0.26470  0.18515  1.0000
  C   C51       1.0  0.22115  0.27767  0.18659  1.0000
  C   C52       1.0  0.19368  0.27321  0.21344  1.0000
  C   C53       1.0  0.20283  0.22496  0.18176  1.0000
  H   H64       1.0  0.22787  0.27313  0.16531  1.0000
  H   H65       1.0  0.17936  0.26434  0.21306  1.0000
  H   H66       1.0  0.19388  0.30233  0.21908  1.0000
  H   H67       1.0  0.20079  0.25957  0.23185  1.0000
  H   H68       1.0  0.20922  0.21651  0.16093  1.0000
  H   H69       1.0  0.21083  0.21236  0.19983  1.0000
  H   H70       1.0  0.18903  0.21314  0.18242  1.0000
  N   N5        1.0  0.10405  0.27246  0.25393  1.0000
  C   C54       1.0  0.11938  0.24664  0.25418  1.0000
  C   C55       1.0  0.10960  0.30383  0.27255  1.0000
  C   C56       1.0  0.08839  0.25557  0.26777  1.0000
  C   C57       1.0  0.09911  0.28177  0.22339  1.0000
  C   C58       1.0  0.09431  0.25440  0.20262  1.0000
  C   C59       1.0  0.09876  0.31770  0.21338  1.0000
  C   C60       1.0  0.08963  0.26242  0.17367  1.0000
  C   C61       1.0  0.09399  0.32537  0.18436  1.0000
  C   C62       1.0  0.08944  0.29784  0.16458  1.0000
  H   H71       1.0  0.13115  0.25773  0.24285  1.0000
  H   H72       1.0  0.12386  0.24024  0.27691  1.0000
  H   H73       1.0  0.07108  0.42181  0.01514  1.0000
  Fe  Fe8       1.0  0.32603  0.29678  0.28195  1.0000
  H   H74       1.0  0.16350  0.02090  0.23064  1.0000
  H   H75       1.0  0.03594  0.29174  0.04367  1.0000
  H   H76       1.0  0.30377  0.46115  0.25307  1.0000
  H   H77       1.0  0.22343  0.05387  0.23466  1.0000
  H   H78       1.0  0.28934  0.45490  0.30055  1.0000
  C   C63       1.0  0.13638  0.48575  0.45724  1.0000
  H   H79       1.0  0.12494  0.38014  0.45997  1.0000
  C   C64       1.0  0.00972  0.36427  0.02758  1.0000
  H   H80       1.0  0.32867  0.24093  0.03516  1.0000
  Fe  Fe9       1.0  0.11145  0.31439  0.00553  1.0000
  C   C65       1.0  0.13905  0.46373  0.48201  1.0000
  H   H81       1.0  0.33180  0.27373  0.42057  1.0000
  H   H82       1.0  0.11204  0.41915  0.47078  1.0000
  S   S20       1.0  0.04655  0.32152  0.50156  1.0000
  H   H83       1.0  0.30724  0.27467  0.38740  1.0000
  C   C66       1.0  0.30757  0.20819  0.36416  1.0000
  H   H84       1.0  0.29805  0.20986  0.38262  1.0000
  C   C67       1.0  0.22313  0.04338  0.30807  1.0000
  C   C68       1.0  0.31711  0.26921  0.36988  1.0000
  H   H85       1.0  0.01079  0.39200  0.02143  1.0000
  H   H86       1.0  0.15915  0.38570  0.45944  1.0000
  C   C69       1.0  0.28958  0.48095  0.29039  1.0000
  H   H87       1.0  0.00985  0.32215  0.47999  1.0000
  C   C70       1.0  0.11329  0.49082  0.01942  1.0000
  H   H88       1.0  0.05852  0.46377  0.50188  1.0000
  H   H89       1.0  0.33328  0.50129  0.32811  1.0000
  Fe  Fe10      1.0  0.17156  0.22023  0.74999  1.0000
  S   S21       1.0  0.19135  0.17497  0.75876  1.0000
  S   S22       1.0  0.16835  0.24600  0.70518  1.0000
  Fe  Fe11      1.0  0.16246  0.23015  0.81508  1.0000
  S   S23       1.0  0.18111  0.18513  0.82854  1.0000
  S   S24       1.0  0.14669  0.27226  0.84156  1.0000
  Fe  Fe12      1.0  0.20103  0.20879  0.79757  1.0000
  S   S25       1.0  0.23025  0.21383  0.81477  1.0000
  Fe  Fe13      1.0  0.17027  0.15433  0.78885  1.0000
  S   S26       1.0  0.15891  0.09707  0.78981  1.0000
  S   S27       1.0  0.18302  0.25528  0.78643  1.0000
  S   S28       1.0  0.14989  0.19798  0.77775  1.0000
  C   C71       1.0  0.01066  0.48567  0.53997  1.0000
  C   C72       1.0  0.30500  0.42890  0.78504  1.0000
  S   S29       1.0  0.12411  0.27071  0.97614  1.0000
  Fe  Fe14      1.0  0.07446  0.32412  0.52344  1.0000
  S   S30       1.0  0.08103  0.34266  0.56942  1.0000
  H   H90       1.0  0.06973  0.47115  0.94562  1.0000
  H   H91       1.0  0.30021  0.42263  0.71133  1.0000
  S   S31       1.0  0.10742  0.43304  0.56785  1.0000
  Fe  Fe15      1.0  0.10245  0.29918  0.56942  1.0000
  S   S32       1.0  0.10462  0.26263  0.60914  1.0000
  H   H92       1.0  0.02251  0.48483  0.97572  1.0000
  H   H93       1.0  0.14874  0.21655  0.88626  1.0000
  Fe  Fe16      1.0  0.32186  0.32626  0.78784  1.0000
  S   S33       1.0  0.29100  0.32664  0.78101  1.0000
  H   H94       1.0  0.16114  0.31760  0.97421  1.0000
  H   H95       1.0  0.03756  0.32171  0.56357  1.0000
  C   C73       1.0  0.17477  0.27036  0.95813  1.0000
  C   C74       1.0  0.30550  0.41625  0.73361  1.0000
  H   H96       1.0  0.16865  0.25324  0.97403  1.0000
  S   S34       1.0  0.09327  0.35963  0.99140  1.0000
  S   S35       1.0  0.09427  0.27779  0.52434  1.0000
  H   H97       1.0  0.30236  0.40000  0.78879  1.0000
  H   H98       1.0  0.31846  0.47344  0.71357  1.0000
  C   C75       1.0  0.02513  0.32241  0.55064  1.0000
  H   H99       1.0  0.31989  0.43281  0.78635  1.0000
  C   C76       1.0  0.10172  0.47387  0.55071  1.0000
  C   C77       1.0  0.24704  0.24488  0.80433  1.0000
  C   C78       1.0  0.26496  0.24049  0.81486  1.0000
  C   C79       1.0  0.27864  0.26483  0.80763  1.0000
  C   C80       1.0  0.27451  0.29420  0.79002  1.0000
  C   C81       1.0  0.25656  0.29872  0.77968  1.0000
  C   C82       1.0  0.24293  0.27416  0.78663  1.0000
  H   H100      1.0  0.26831  0.21798  0.82857  1.0000
  H   H101      1.0  0.29234  0.26098  0.81583  1.0000
  H   H102      1.0  0.25319  0.32128  0.76604  1.0000
  H   H103      1.0  0.22924  0.27797  0.77835  1.0000
  C   C83       1.0  0.16769  0.05310  0.78246  1.0000
  C   C84       1.0  0.18465  0.04717  0.77027  1.0000
  C   C85       1.0  0.15691  0.02316  0.78828  1.0000
  H   H104      1.0  0.19314  0.06980  0.76565  1.0000
  H   H105      1.0  0.14375  0.02733  0.79763  1.0000
  C   C86       1.0  0.15015  0.25093  0.67934  1.0000
  C   C87       1.0  0.15301  0.27089  0.65408  1.0000
  C   C88       1.0  0.13920  0.27511  0.63256  1.0000
  C   C89       1.0  0.12234  0.25917  0.63598  1.0000
  C   C90       1.0  0.11948  0.23913  0.66122  1.0000
  C   C91       1.0  0.13326  0.23507  0.68283  1.0000
  H   H106      1.0  0.16603  0.28318  0.65108  1.0000
  H   H107      1.0  0.14164  0.29049  0.61326  1.0000
  H   H108      1.0  0.10652  0.22647  0.66395  1.0000
  H   H109      1.0  0.13085  0.21918  0.70182  1.0000
  C   C92       1.0  0.14067  0.27130  0.87911  1.0000
  C   C93       1.0  0.13305  0.30221  0.89220  1.0000
  C   C94       1.0  0.12780  0.30253  0.92172  1.0000
  C   C95       1.0  0.12999  0.27175  0.93852  1.0000
  C   C96       1.0  0.13760  0.24083  0.92538  1.0000
  C   C97       1.0  0.14302  0.24062  0.89596  1.0000
  H   H110      1.0  0.13115  0.32612  0.87945  1.0000
  H   H111      1.0  0.12204  0.32654  0.93147  1.0000
  H   H112      1.0  0.13935  0.21685  0.93811  1.0000
  H   H113      1.0  0.12534  0.17558  0.59555  1.0000
  S   S36       1.0  0.09394  0.36199  0.50295  1.0000
  H   H114      1.0  0.04593  0.49338  0.56149  1.0000
  N   N6        1.0  0.03872  0.44819  0.53303  1.0000
  C   C98       1.0  0.04832  0.46401  0.55905  1.0000
  C   C99       1.0  0.07382  0.46122  0.96759  1.0000
  C   C100      1.0  0.19069  0.01179  0.76409  1.0000
  H   H115      1.0  0.30227  0.38751  0.73733  1.0000
  C   C101      1.0  0.17046  0.30676  0.95826  1.0000
  C   C102      1.0  0.04518  0.41055  0.52949  1.0000
  H   H116      1.0  0.27447  0.40530  0.75761  1.0000
  N   N7        1.0  0.05821  0.46081  0.98740  1.0000
  H   H117      1.0  0.12921  0.41040  0.51936  1.0000
  H   H118      1.0  0.20381  0.00762  0.75465  1.0000
  C   C103      1.0  0.09459  0.47453  0.52216  1.0000
  H   H119      1.0  0.27088  0.44856  0.77376  1.0000
  H   H120      1.0  0.08501  0.47844  0.97619  1.0000
  Fe  Fe17      1.0  0.10196  0.37709  0.54912  1.0000
  H   H121      1.0  0.32054  0.41805  0.73389  1.0000
  H   H122      1.0  0.09247  0.44966  0.51005  1.0000
  N   N8        1.0  0.20456  0.26257  0.89089  1.0000
  C   C104      1.0  0.19534  0.26888  0.86233  1.0000
  C   C105      1.0  0.22238  0.28064  0.89120  1.0000
  C   C106      1.0  0.20799  0.22333  0.89285  1.0000
  C   C107      1.0  0.19329  0.27733  0.91470  1.0000
  C   C108      1.0  0.18596  0.25562  0.93671  1.0000
  C   C109      1.0  0.18882  0.31447  0.91579  1.0000
  H   H123      1.0  0.14177  0.46722  0.53007  1.0000
  C   C110      1.0  0.17751  0.32881  0.93719  1.0000
  H   H124      1.0  0.06326  0.46041  0.55782  1.0000
  H   H125      1.0  0.19321  0.29779  0.85790  1.0000
  H   H126      1.0  0.20327  0.25768  0.84386  1.0000
  H   H127      1.0  0.18179  0.25610  0.86149  1.0000
  H   H128      1.0  0.22117  0.30974  0.88673  1.0000
  H   H129      1.0  0.23132  0.26911  0.87400  1.0000
  H   H130      1.0  0.22950  0.27772  0.91274  1.0000
  H   H131      1.0  0.19516  0.20784  0.89120  1.0000
  H   H132      1.0  0.21647  0.21313  0.87458  1.0000
  H   H133      1.0  0.21533  0.21655  0.91354  1.0000
  H   H134      1.0  0.18819  0.22703  0.93746  1.0000
  H   H135      1.0  0.19366  0.33255  0.89960  1.0000
  H   H136      1.0  0.06011  0.40891  0.52709  1.0000
  N   N9        1.0  0.29757  0.44028  0.75630  1.0000
  C   C111      1.0  0.02578  0.32179  0.52009  1.0000
  C   C112      1.0  0.27774  0.43434  0.75553  1.0000
  H   H137      1.0  0.17379  0.35700  0.93709  1.0000
  H   H138      1.0  0.27153  0.44373  0.73461  1.0000
  H   H139      1.0  0.04398  0.45114  0.57947  1.0000
  H   H140      1.0  0.04009  0.44028  0.95335  1.0000
  H   H141      1.0  0.29910  0.44401  0.80367  1.0000
  N   N10       1.0  0.12985  0.31479  0.75481  1.0000
  C   C113      1.0  0.11882  0.33553  0.77597  1.0000
  C   C114      1.0  0.12700  0.27601  0.75940  1.0000
  C   C115      1.0  0.14918  0.32236  0.76195  1.0000
  C   C116      1.0  0.12430  0.32391  0.72449  1.0000
  C   C117      1.0  0.10627  0.31770  0.71426  1.0000
  C   C118      1.0  0.13638  0.33870  0.70426  1.0000
  C   C119      1.0  0.10078  0.32533  0.68556  1.0000
  C   C120      1.0  0.13064  0.34674  0.67574  1.0000
  C   C121      1.0  0.11292  0.33988  0.66637  1.0000
  H   H142      1.0  0.10423  0.32876  0.77403  1.0000
  H   H143      1.0  0.12306  0.32993  0.79905  1.0000
  H   H144      1.0  0.12012  0.36490  0.77265  1.0000
  H   H145      1.0  0.11264  0.26799  0.75638  1.0000
  H   H146      1.0  0.13109  0.26823  0.78202  1.0000
  H   H147      1.0  0.13510  0.25961  0.74384  1.0000
  H   H148      1.0  0.15831  0.30646  0.74749  1.0000
  H   H149      1.0  0.15228  0.35135  0.75998  1.0000
  H   H150      1.0  0.15289  0.31495  0.78485  1.0000
  H   H151      1.0  0.09634  0.30629  0.72823  1.0000
  H   H152      1.0  0.15045  0.34357  0.70962  1.0000
  H   H153      1.0  0.08713  0.31928  0.67785  1.0000
  H   H154      1.0  0.14014  0.35724  0.66043  1.0000
  H   H155      1.0  0.10873  0.34491  0.64390  1.0000
  C   C122      1.0  0.04398  0.46781  0.50666  1.0000
  S   S37       1.0  0.12384  0.33495  0.55219  1.0000
  C   C123      1.0  0.30147  0.47881  0.75226  1.0000
  H   H156      1.0  0.07993  0.43399  0.96471  1.0000
  N   N11       1.0  0.15437  0.11757  0.69343  1.0000
  C   C124      1.0  0.17416  0.11118  0.69164  1.0000
  C   C125      1.0  0.15111  0.14476  0.71673  1.0000
  C   C126      1.0  0.14605  0.08342  0.70245  1.0000
  C   C127      1.0  0.14695  0.13134  0.66542  1.0000
  C   C128      1.0  0.13125  0.11679  0.65117  1.0000
  C   C129      1.0  0.15465  0.16201  0.65274  1.0000
  C   C130      1.0  0.12371  0.13246  0.62606  1.0000
  C   C131      1.0  0.14711  0.17717  0.62750  1.0000
  C   C132      1.0  0.13155  0.16273  0.61440  1.0000
  H   H157      1.0  0.18188  0.13640  0.68922  1.0000
  H   H158      1.0  0.17980  0.09881  0.71196  1.0000
  H   H159      1.0  0.17731  0.09293  0.67287  1.0000
  H   H160      1.0  0.15624  0.13541  0.73831  1.0000
  H   H161      1.0  0.13642  0.15066  0.71876  1.0000
  H   H162      1.0  0.15795  0.17057  0.71254  1.0000
  H   H163      1.0  0.14772  0.06183  0.68555  1.0000
  H   H164      1.0  0.15235  0.07340  0.72321  1.0000
  H   H165      1.0  0.13144  0.08688  0.70712  1.0000
  H   H166      1.0  0.12430  0.09379  0.65929  1.0000
  H   H167      1.0  0.16613  0.17559  0.66292  1.0000
  H   H168      1.0  0.11149  0.12156  0.61588  1.0000
  H   H169      1.0  0.15293  0.20122  0.61876  1.0000
  H   H170      1.0  0.04203  0.39419  0.54881  1.0000
  C   C133      1.0  0.04531  0.43345  0.97557  1.0000
  Fe  Fe18      1.0  0.11422  0.31695  0.50687  1.0000
  H   H171      1.0  0.05181  0.40642  0.97367  1.0000
  H   H172      1.0  0.03375  0.42984  0.99038  1.0000
  H   H173      1.0  0.15363  0.41246  0.51996  1.0000
  H   H174      1.0  0.28670  0.49766  0.79046  1.0000
  C   C134      1.0  0.01891  0.45136  0.53655  1.0000
  C   C135      1.0  0.14150  0.40496  0.50639  1.0000
  H   H175      1.0  0.03910  0.39735  0.50955  1.0000
  C   C136      1.0  0.31218  0.49135  0.72920  1.0000
  C   C137      1.0  0.13996  0.48146  0.50985  1.0000
  C   C138      1.0  0.00723  0.42116  0.53611  1.0000
  H   H176      1.0  0.00796  0.32426  0.58813  1.0000
  H   H177      1.0  0.14234  0.37532  0.50289  1.0000
  C   C139      1.0  0.00832  0.32380  0.56450  1.0000
  H   H178      1.0  0.01214  0.39401  0.53355  1.0000
  C   C140      1.0  0.00948  0.32258  0.50363  1.0000
  C   C141      1.0  0.05035  0.49733  0.99019  1.0000
  H   H179      1.0  0.04194  0.49730  0.50907  1.0000
  Fe  Fe19      1.0  0.19930  0.83207  0.27867  1.0000
  S   S38       1.0  0.17827  0.79042  0.28819  1.0000
  S   S39       1.0  0.23033  0.83150  0.28223  1.0000
  Fe  Fe20      1.0  0.17081  0.89180  0.26884  1.0000
  S   S40       1.0  0.14779  0.85441  0.27720  1.0000
  S   S41       1.0  0.16602  0.94908  0.25223  1.0000
  Fe  Fe21      1.0  0.16460  0.83365  0.31511  1.0000
  S   S42       1.0  0.15315  0.83330  0.36132  1.0000
  Fe  Fe22      1.0  0.16259  0.81360  0.24949  1.0000
  S   S43       1.0  0.14549  0.77711  0.21867  1.0000
  S   S44       1.0  0.18668  0.87396  0.30833  1.0000
  S   S45       1.0  0.18457  0.85225  0.23839  1.0000
  Fe  Fe23      1.0  0.10668  0.73287  0.05165  1.0000
  H   H180      1.0  0.00467  0.70178  0.08520  1.0000
  S   S46       1.0  0.12327  0.77089  0.08213  1.0000
  H   H181      1.0  0.18131  0.73837  0.40848  1.0000
  S   S47       1.0  0.32891  0.67077  0.30779  1.0000
  H   H182      1.0  0.02123  0.75420  0.44446  1.0000
  H   H183      1.0  0.29748  0.74166  0.15608  1.0000
  S   S48       1.0  0.12410  0.70895  0.44258  1.0000
  C   C142      1.0  0.18183  0.79309  0.42383  1.0000
  H   H184      1.0  0.30613  0.51912  0.23058  1.0000
  H   H185      1.0  0.11700  0.61277  0.14670  1.0000
  S   S49       1.0  0.08221  0.69955  0.06100  1.0000
  H   H186      1.0  0.15509  0.61711  0.09355  1.0000
  S   S50       1.0  0.12160  0.68740  0.02939  1.0000
  H   H187      1.0  0.08497  0.50796  0.48696  1.0000
  S   S51       1.0  0.28905  0.70880  0.25586  1.0000
  H   H188      1.0  0.09540  0.52963  0.08033  1.0000
  C   C143      1.0  0.02214  0.71838  0.01859  1.0000
  H   H189      1.0  0.03408  0.71132  0.06145  1.0000
  N   N12       1.0  0.29336  0.58587  0.25256  1.0000
  Fe  Fe24      1.0  0.09652  0.65509  0.03614  1.0000
  C   C144      1.0  0.24624  0.79639  0.27544  1.0000
  C   C145      1.0  0.24133  0.76393  0.26163  1.0000
  C   C146      1.0  0.25459  0.73743  0.25590  1.0000
  C   C147      1.0  0.27284  0.74279  0.26422  1.0000
  C   C148      1.0  0.27774  0.77520  0.27810  1.0000
  C   C149      1.0  0.26453  0.80186  0.28350  1.0000
  H   H190      1.0  0.22735  0.75934  0.25522  1.0000
  H   H191      1.0  0.25062  0.71253  0.24509  1.0000
  H   H192      1.0  0.29169  0.77974  0.28472  1.0000
  H   H193      1.0  0.26849  0.82679  0.29427  1.0000
  C   C150      1.0  0.13939  0.77656  0.18066  1.0000
  C   C151      1.0  0.12520  0.75414  0.17062  1.0000
  C   C152      1.0  0.11992  0.75244  0.14074  1.0000
  C   C153      1.0  0.12905  0.77251  0.12028  1.0000
  C   C154      1.0  0.14318  0.79509  0.13034  1.0000
  C   C155      1.0  0.14837  0.79706  0.16028  1.0000
  H   H194      1.0  0.11809  0.73827  0.18616  1.0000
  H   H195      1.0  0.10849  0.73636  0.13367  1.0000
  H   H196      1.0  0.15029  0.81092  0.11478  1.0000
  H   H197      1.0  0.15958  0.81375  0.16744  1.0000
  C   C156      1.0  0.14392  0.79836  0.38243  1.0000
  C   C157      1.0  0.13560  0.80738  0.40901  1.0000
  C   C158      1.0  0.12897  0.78060  0.42732  1.0000
  C   C159      1.0  0.13082  0.74430  0.41947  1.0000
  C   C160      1.0  0.13900  0.73531  0.39277  1.0000
  C   C161      1.0  0.14542  0.76210  0.37428  1.0000
  H   H198      1.0  0.13436  0.83530  0.41556  1.0000
  H   H199      1.0  0.12258  0.78812  0.44755  1.0000
  H   H200      1.0  0.14050  0.70736  0.38643  1.0000
  H   H201      1.0  0.15181  0.75466  0.35401  1.0000
  H   H202      1.0  0.27603  0.50799  0.32551  1.0000
  C   C162      1.0  0.11045  0.55597  0.01457  1.0000
  H   H203      1.0  0.13201  0.56791  0.49031  1.0000
  Fe  Fe25      1.0  0.10833  0.70362  0.48499  1.0000
  C   C163      1.0  0.10111  0.52767  0.05880  1.0000
  C   C164      1.0  0.01546  0.66648  0.45958  1.0000
  C   C165      1.0  0.28225  0.51093  0.30447  1.0000
  C   C166      1.0  0.13393  0.52289  0.46028  1.0000
  H   H204      1.0  0.17801  0.97121  0.31183  1.0000
  H   H205      1.0  0.15904  0.66393  0.21030  1.0000
  C   C167      1.0  0.30361  0.58664  0.22503  1.0000
  C   C168      1.0  0.11558  0.52208  0.00319  1.0000
  C   C169      1.0  0.01431  0.72893  0.44705  1.0000
  S   S52       1.0  0.08146  0.67574  0.48532  1.0000
  C   C170      1.0  0.13448  0.53927  0.48790  1.0000
  H   H206      1.0  0.17095  0.71452  0.45385  1.0000
  H   H207      1.0  0.27746  0.56719  0.30374  1.0000
  C   C171      1.0  0.17937  0.75640  0.42705  1.0000
  C   C172      1.0  0.32623  0.78941  0.16096  1.0000
  H   H208      1.0  0.07532  0.52239  0.00641  1.0000
  C   C173      1.0  0.02424  0.69881  0.45534  1.0000
  N   N13       1.0  0.31448  0.77543  0.18387  1.0000
  H   H209      1.0  0.31698  0.75915  0.22876  1.0000
  H   H210      1.0  0.09207  0.80062  0.16644  1.0000
  C   C174      1.0  0.30624  0.74012  0.17615  1.0000
  C   C175      1.0  0.22709  0.98483  0.28325  1.0000
  C   C176      1.0  0.11767  0.66604  0.10992  1.0000
  H   H211      1.0  0.11737  0.59380  0.11085  1.0000
  H   H212      1.0  0.30479  0.61444  0.21677  1.0000
  H   H213      1.0  0.21383  0.93668  0.24255  1.0000
  H   H214      1.0  0.23977  0.93972  0.32746  1.0000
  H   H215      1.0  0.33076  0.79650  0.22033  1.0000
  H   H216      1.0  0.31774  0.57670  0.22850  1.0000
  C   C177      1.0  0.00495  0.70607  0.06189  1.0000
  H   H217      1.0  0.22538  0.99468  0.33071  1.0000
  H   H218      1.0  0.10769  0.65289  0.09482  1.0000
  H   H219      1.0  0.14055  0.62840  0.17628  1.0000
  H   H220      1.0  0.13516  0.75967  0.49163  1.0000
  C   C178      1.0  0.29952  0.80115  0.18961  1.0000
  C   C179      1.0  0.02165  0.71142  0.04849  1.0000
  S   S53       1.0  0.09566  0.60032  0.05737  1.0000
  H   H221      1.0  0.13387  0.61762  0.07344  1.0000
  H   H222      1.0  0.15330  0.70263  0.10754  1.0000
  C   C180      1.0  0.32523  0.77084  0.21130  1.0000
  N   N14       1.0  0.13321  0.64214  0.11668  1.0000
  N   N15       1.0  0.12690  0.90000  0.19488  1.0000
  C   C181      1.0  0.14408  0.87996  0.19884  1.0000
  C   C182      1.0  0.13135  0.93687  0.18564  1.0000
  C   C183      1.0  0.11803  0.90343  0.22363  1.0000
  C   C184      1.0  0.11526  0.88003  0.17344  1.0000
  C   C185      1.0  0.11215  0.89166  0.14428  1.0000
  C   C186      1.0  0.10777  0.84647  0.18074  1.0000
  C   C187      1.0  0.10208  0.87093  0.12397  1.0000
  C   C188      1.0  0.09742  0.82639  0.16044  1.0000
  C   C189      1.0  0.09475  0.83837  0.13203  1.0000
  H   H223      1.0  0.14189  0.85288  0.20783  1.0000
  H   H224      1.0  0.15104  0.87617  0.17770  1.0000
  H   H225      1.0  0.15353  0.89423  0.21423  1.0000
  H   H226      1.0  0.13930  0.95180  0.20294  1.0000
  H   H227      1.0  0.11888  0.95284  0.18104  1.0000
  H   H228      1.0  0.13997  0.93653  0.16603  1.0000
  H   H229      1.0  0.11648  0.87722  0.23442  1.0000
  H   H230      1.0  0.12616  0.92017  0.23955  1.0000
  H   H231      1.0  0.10438  0.91592  0.22125  1.0000
  H   H232      1.0  0.11764  0.91629  0.13638  1.0000
  H   H233      1.0  0.11043  0.83468  0.20184  1.0000
  H   H234      1.0  0.10022  0.87972  0.10163  1.0000
  H   H235      1.0  0.30492  0.63701  0.26482  1.0000
  H   H236      1.0  0.08739  0.82192  0.11599  1.0000
  C   C190      1.0  0.16723  0.70145  0.17835  1.0000
  C   C191      1.0  0.17339  0.74302  0.45346  1.0000
  H   H237      1.0  0.18564  0.80341  0.40285  1.0000
  C   C192      1.0  0.15815  0.67120  0.18746  1.0000
  H   H238      1.0  0.26731  0.58309  0.23071  1.0000
  C   C193      1.0  0.14267  0.63329  0.08914  1.0000
  H   H239      1.0  0.13702  0.58919  0.13410  1.0000
  C   C194      1.0  0.10305  0.55882  0.04236  1.0000
  H   H240      1.0  0.29013  0.79083  0.20622  1.0000
  H   H241      1.0  0.12189  0.69113  0.09928  1.0000
  H   H242      1.0  0.27572  0.62807  0.23693  1.0000
  H   H243      1.0  0.29508  0.61459  0.29429  1.0000
  C   C195      1.0  0.22838  0.92992  0.31318  1.0000
  H   H244      1.0  0.25796  0.94688  0.28259  1.0000
  H   H245      1.0  0.17494  0.71772  0.19408  1.0000
  C   C196      1.0  0.17618  0.99499  0.29889  1.0000
  H   H246      1.0  0.30451  0.82740  0.19833  1.0000
  H   H247      1.0  0.29146  0.80632  0.16924  1.0000
  C   C197      1.0  0.14550  0.66104  0.13779  1.0000
  C   C198      1.0  0.16575  0.71168  0.14929  1.0000
  C   C199      1.0  0.14747  0.65107  0.16758  1.0000
  C   C200      1.0  0.15490  0.69213  0.12933  1.0000
  H   H248      1.0  0.20070  0.93668  0.27481  1.0000
  H   H249      1.0  0.26700  0.60382  0.26649  1.0000
  H   H250      1.0  0.11038  0.67371  0.13012  1.0000
  H   H251      1.0  0.31627  0.59886  0.28044  1.0000
  C   C201      1.0  0.30278  0.60998  0.27399  1.0000
  H   H252      1.0  0.21532  0.93622  0.32385  1.0000
  H   H253      1.0  0.14661  0.65753  0.07717  1.0000
  Fe  Fe26      1.0  0.31858  0.70665  0.27184  1.0000
  C   C202      1.0  0.27505  0.60074  0.24637  1.0000
  H   H254      1.0  0.13132  0.53913  0.44120  1.0000
  C   C203      1.0  0.12594  0.60802  0.12777  1.0000
  C   C204      1.0  0.29189  0.54955  0.26484  1.0000
  N   N16       1.0  0.22894  0.94522  0.28344  1.0000
  C   C205      1.0  0.21398  0.92876  0.26580  1.0000
  C   C206      1.0  0.24635  0.93419  0.27050  1.0000
  H   H255      1.0  0.24832  0.90446  0.27114  1.0000
  H   H256      1.0  0.22791  0.98897  0.23572  1.0000
  H   H257      1.0  0.17235  0.73592  0.14250  1.0000
  C   C207      1.0  0.29902  0.51827  0.25086  1.0000
  C   C208      1.0  0.28324  0.54472  0.29187  1.0000
  H   H258      1.0  0.29752  0.73045  0.19392  1.0000
  H   H259      1.0  0.22952  0.90005  0.31247  1.0000
  H   H260      1.0  0.21483  0.89895  0.26564  1.0000
  Fe  Fe27      1.0  0.07132  0.71569  0.01673  1.0000
  H   H261      1.0  0.02325  0.64343  0.46687  1.0000
  H   H262      1.0  0.24713  0.94161  0.24716  1.0000
  H   H263      1.0  0.29692  0.57035  0.20729  1.0000
  H   H264      1.0  0.03873  0.70082  0.45938  1.0000
  H   H265      1.0  0.17991  0.84523  0.44413  1.0000
  C   C209      1.0  0.17268  0.80355  0.47373  1.0000
  C   C210      1.0  0.05432  0.56124  0.00309  1.0000
  C   C211      1.0  0.16989  0.76630  0.47774  1.0000
  H   H266      1.0  0.06306  0.58290  0.01095  1.0000
  S   S54       1.0  0.09460  0.75317  0.00896  1.0000
  H   H267      1.0  0.33377  0.83831  0.18532  1.0000
  H   H268      1.0  0.16982  0.82296  0.49086  1.0000
  H   H269      1.0  0.32354  0.74470  0.12899  1.0000
  H   H270      1.0  0.31680  0.71906  0.17288  1.0000
  C   C212      1.0  0.17850  0.81662  0.44712  1.0000
  C   C213      1.0  0.32941  0.77051  0.13420  1.0000
  H   H271      1.0  0.15181  0.70292  0.48996  1.0000
  C   C214      1.0  0.17042  0.99163  0.26958  1.0000
  Fe  Fe28      1.0  0.19451  0.80811  0.78327  1.0000
  S   S55       1.0  0.16765  0.78013  0.78587  1.0000
  S   S56       1.0  0.22059  0.78372  0.80226  1.0000
  Fe  Fe29      1.0  0.17703  0.88172  0.77092  1.0000
  S   S57       1.0  0.14891  0.85932  0.77323  1.0000
  S   S58       1.0  0.18829  0.93778  0.76168  1.0000
  Fe  Fe30      1.0  0.15872  0.82797  0.81232  1.0000
  S   S59       1.0  0.14290  0.82683  0.85483  1.0000
  Fe  Fe31      1.0  0.15911  0.81215  0.74624  1.0000
  S   S60       1.0  0.13714  0.79009  0.71432  1.0000
  S   S61       1.0  0.18592  0.85431  0.81216  1.0000
  S   S62       1.0  0.18688  0.83640  0.74145  1.0000
  Fe  Fe32      1.0  0.11193  0.70320  0.55261  1.0000
  S   S63       1.0  0.10059  0.74314  0.52047  1.0000
  S   S64       1.0  0.13504  0.72033  0.58450  1.0000
  H   H272      1.0  0.08266  0.74774  0.90477  1.0000
  C   C215      1.0  0.00912  0.66585  0.53291  1.0000
  H   H273      1.0  0.17491  0.70053  0.50390  1.0000
  S   S65       1.0  0.12089  0.66485  0.51675  1.0000
  S   S66       1.0  0.12256  0.70343  0.94375  1.0000
  Fe  Fe33      1.0  0.07465  0.71179  0.52332  1.0000
  H   H274      1.0  0.11083  0.82029  0.76706  1.0000
  H   H275      1.0  0.29372  0.56117  0.78512  1.0000
  S   S67       1.0  0.08534  0.67415  0.55782  1.0000
  N   N17       1.0  0.16285  0.75339  0.50567  1.0000
  H   H276      1.0  0.13176  0.77125  0.80876  1.0000
  Fe  Fe34      1.0  0.32117  0.72270  0.76308  1.0000
  S   S68       1.0  0.29475  0.74174  0.74136  1.0000
  C   C216      1.0  0.14448  0.76835  0.50988  1.0000
  C   C217      1.0  0.02685  0.71971  0.52674  1.0000
  C   C218      1.0  0.02600  0.68268  0.53067  1.0000
  H   H277      1.0  0.08838  0.69856  0.86926  1.0000
  C   C219      1.0  0.01606  0.77048  0.59930  1.0000
  C   C220      1.0  0.24104  0.77221  0.78472  1.0000
  C   C221      1.0  0.24260  0.77281  0.75433  1.0000
  C   C222      1.0  0.25908  0.76299  0.74144  1.0000
  C   C223      1.0  0.27417  0.75268  0.75873  1.0000
  C   C224      1.0  0.27261  0.75228  0.78913  1.0000
  C   C225      1.0  0.25611  0.76193  0.80202  1.0000
  H   H278      1.0  0.23110  0.78031  0.74071  1.0000
  H   H279      1.0  0.26018  0.76334  0.71791  1.0000
  H   H280      1.0  0.28413  0.74456  0.80267  1.0000
  H   H281      1.0  0.25506  0.76137  0.82554  1.0000
  C   C226      1.0  0.13699  0.77127  0.67799  1.0000
  C   C227      1.0  0.12028  0.76245  0.66430  1.0000
  C   C228      1.0  0.11937  0.74709  0.63577  1.0000
  C   C229      1.0  0.13522  0.74012  0.62049  1.0000
  C   C230      1.0  0.15194  0.74898  0.63417  1.0000
  C   C231      1.0  0.15285  0.76450  0.66266  1.0000
  H   H282      1.0  0.10791  0.76754  0.67583  1.0000
  H   H283      1.0  0.10641  0.74050  0.62566  1.0000
  H   H284      1.0  0.16432  0.74365  0.62271  1.0000
  H   H285      1.0  0.16581  0.77094  0.67280  1.0000
  C   C232      1.0  0.13700  0.79185  0.87892  1.0000
  C   C233      1.0  0.12925  0.80112  0.90588  1.0000
  C   C234      1.0  0.12437  0.77452  0.92576  1.0000
  C   C235      1.0  0.12733  0.73821  0.91898  1.0000
  C   C236      1.0  0.13493  0.72893  0.89194  1.0000
  C   C237      1.0  0.13962  0.75545  0.87196  1.0000
  H   H286      1.0  0.12703  0.82911  0.91150  1.0000
  H   H287      1.0  0.11856  0.78213  0.94647  1.0000
  H   H288      1.0  0.13722  0.70093  0.88645  1.0000
  H   H289      1.0  0.14522  0.74748  0.85126  1.0000
  C   C238      1.0  0.06126  0.52641  0.00038  1.0000
  H   H290      1.0  0.12185  0.73070  0.79418  1.0000
  C   C239      1.0  0.10036  0.53954  0.55308  1.0000
  H   H291      1.0  0.15643  0.70490  0.52835  1.0000
  H   H292      1.0  0.10261  0.56447  0.56511  1.0000
  H   H293      1.0  0.09064  0.73182  0.77407  1.0000
  C   C240      1.0  0.13779  0.51868  0.51254  1.0000
  C   C241      1.0  0.02713  0.74021  0.59764  1.0000
  H   H294      1.0  0.20917  0.81300  0.85909  1.0000
  H   H295      1.0  0.15454  0.96519  0.78713  1.0000
  N   N18       1.0  0.19609  0.77206  0.88371  1.0000
  C   C242      1.0  0.18560  0.75894  0.85770  1.0000
  C   C243      1.0  0.20075  0.81017  0.87879  1.0000
  C   C244      1.0  0.21333  0.75151  0.88572  1.0000
  C   C245      1.0  0.18536  0.76689  0.91024  1.0000
  C   C246      1.0  0.17822  0.79601  0.92705  1.0000
  C   C247      1.0  0.18117  0.73176  0.91937  1.0000
  C   C248      1.0  0.16787  0.79004  0.95166  1.0000
  C   C249      1.0  0.17073  0.72614  0.94391  1.0000
  C   C250      1.0  0.16414  0.75521  0.96008  1.0000
  H   H296      1.0  0.04130  0.74289  0.59243  1.0000
  H   H297      1.0  0.19366  0.75968  0.83755  1.0000
  H   H298      1.0  0.18100  0.73083  0.85986  1.0000
  H   H299      1.0  0.00862  0.63719  0.53605  1.0000
  H   H300      1.0  0.09576  0.76757  0.75049  1.0000
  H   H301      1.0  0.20856  0.82188  0.89772  1.0000
  H   H302      1.0  0.21118  0.72204  0.88532  1.0000
  H   H303      1.0  0.22213  0.75676  0.86679  1.0000
  H   H304      1.0  0.22109  0.75877  0.90611  1.0000
  H   H305      1.0  0.18002  0.82366  0.92128  1.0000
  H   H306      1.0  0.18544  0.70830  0.90706  1.0000
  H   H307      1.0  0.16212  0.81253  0.96372  1.0000
  H   H308      1.0  0.16701  0.69916  0.94981  1.0000
  H   H309      1.0  0.01104  0.54574  0.98024  1.0000
  H   H310      1.0  0.17000  0.75462  0.55175  1.0000
  H   H311      1.0  0.09264  0.83022  0.79114  1.0000
  C   C251      1.0  0.16301  0.98780  0.78236  1.0000
  H   H312      1.0  0.18887  0.75608  0.52760  1.0000
  S   S69       1.0  0.04781  0.74209  0.52475  1.0000
  H   H313      1.0  0.13799  0.53156  0.53403  1.0000
  N   N19       1.0  0.24108  0.89094  0.75858  1.0000
  C   C252      1.0  0.23313  0.89501  0.72865  1.0000
  C   C253      1.0  0.22800  0.87054  0.77561  1.0000
  C   C254      1.0  0.24293  0.92744  0.77188  1.0000
  C   C255      1.0  0.25878  0.87207  0.75923  1.0000
  C   C256      1.0  0.26680  0.85719  0.73370  1.0000
  C   C257      1.0  0.26829  0.86707  0.78623  1.0000
  C   C258      1.0  0.28328  0.83860  0.73537  1.0000
  C   C259      1.0  0.28472  0.84836  0.78760  1.0000
  C   C260      1.0  0.29220  0.83418  0.76222  1.0000
  H   H314      1.0  0.23023  0.86846  0.71800  1.0000
  H   H315      1.0  0.21991  0.90960  0.72907  1.0000
  H   H316      1.0  0.24217  0.91055  0.71458  1.0000
  H   H317      1.0  0.22596  0.84327  0.76588  1.0000
  H   H318      1.0  0.21460  0.88419  0.77605  1.0000
  H   H319      1.0  0.23244  0.86702  0.79875  1.0000
  H   H320      1.0  0.25334  0.94314  0.76060  1.0000
  H   H321      1.0  0.22992  0.94277  0.77053  1.0000
  H   H322      1.0  0.24675  0.92682  0.79549  1.0000
  H   H323      1.0  0.26044  0.85864  0.71229  1.0000
  H   H324      1.0  0.26285  0.87680  0.80662  1.0000
  H   H325      1.0  0.28888  0.82607  0.71594  1.0000
  H   H326      1.0  0.29151  0.84389  0.80851  1.0000
  H   H327      1.0  0.30461  0.81851  0.76341  1.0000
  C   C261      1.0  0.29850  0.54158  0.76921  1.0000
  S   S70       1.0  0.32558  0.69960  0.80752  1.0000
  H   H328      1.0  0.09763  0.71139  0.81964  1.0000
  H   H329      1.0  0.17344  0.77597  0.85385  1.0000
  C   C262      1.0  0.01067  0.73968  0.52489  1.0000
  Fe  Fe35      1.0  0.09363  0.63924  0.51928  1.0000
  H   H330      1.0  0.12757  0.76555  0.77010  1.0000
  H   H331      1.0  0.18842  0.82686  0.87471  1.0000
  H   H332      1.0  0.08630  0.81077  0.89043  1.0000
  H   H333      1.0  0.11580  0.82897  0.80487  1.0000
  H   H334      1.0  0.14427  0.79812  0.51078  1.0000
  C   C263      1.0  0.12204  0.76030  0.79203  1.0000
  C   C264      1.0  0.09323  0.54020  0.52451  1.0000
  H   H335      1.0  0.07747  0.77248  0.77565  1.0000
  H   H336      1.0  0.09596  0.82545  0.84197  1.0000
  H   H337      1.0  0.01126  0.76835  0.52188  1.0000
  C   C265      1.0  0.29469  0.50513  0.77213  1.0000
  H   H338      1.0  0.15545  0.75067  0.97840  1.0000
  S   S71       1.0  0.08751  0.58071  0.50688  1.0000
  H   H339      1.0  0.12109  0.51999  0.98152  1.0000
  H   H340      1.0  0.02178  0.79667  0.59561  1.0000
  C   C266      1.0  0.02508  0.54027  0.98594  1.0000
  C   C267      1.0  0.01982  0.70631  0.60126  1.0000
  C   C268      1.0  0.16153  0.71369  0.50689  1.0000
  H   H341      1.0  0.13870  0.75929  0.53072  1.0000
  C   C269      1.0  0.17469  0.76537  0.53062  1.0000
  H   H342      1.0  0.17480  0.79499  0.53358  1.0000
  H   H343      1.0  0.01866  0.50987  0.54044  1.0000
  C   C270      1.0  0.09034  0.50756  0.50917  1.0000
  H   H344      1.0  0.00610  0.72383  0.97893  1.0000
  Fe  Fe36      1.0  0.10797  0.70568  0.98745  1.0000
  H   H345      1.0  0.03836  0.66706  0.53215  1.0000
  C   C271      1.0  0.03628  0.56822  0.99572  1.0000
  C   C272      1.0  0.10457  0.50646  0.56610  1.0000
  N   N20       1.0  0.10399  0.77703  0.79558  1.0000
  C   C273      1.0  0.09138  0.76152  0.77306  1.0000
  C   C274      1.0  0.10581  0.81586  0.78953  1.0000
  C   C275      1.0  0.09747  0.76975  0.82526  1.0000
  C   C276      1.0  0.09397  0.79740  0.84631  1.0000
  C   C277      1.0  0.09500  0.73385  0.83423  1.0000
  C   C278      1.0  0.08840  0.78936  0.87444  1.0000
  C   C279      1.0  0.08962  0.72616  0.86252  1.0000
  C   C280      1.0  0.08634  0.75385  0.88259  1.0000
  S   S72       1.0  0.08409  0.66920  0.99270  1.0000
  H   H346      1.0  0.02841  0.68280  0.59885  1.0000
  H   H347      1.0  0.11011  0.50616  0.58822  1.0000
  C   C281      1.0  0.17996  0.98182  0.77017  1.0000
  H   H348      1.0  0.03106  0.59541  0.99759  1.0000
  C   C282      1.0  0.30895  0.55295  0.74630  1.0000
  C   C283      1.0  0.31570  0.52794  0.72629  1.0000
  H   H349      1.0  0.31231  0.58114  0.74461  1.0000
  H   H350      1.0  0.32429  0.53688  0.70904  1.0000
  C   C284      1.0  0.03191  0.50523  0.98327  1.0000
  H   H351      1.0  0.33452  0.53341  0.83170  1.0000
  H   H352      1.0  0.11202  0.57975  0.00170  1.0000
  S   S73       1.0  0.04252  0.72923  0.00128  1.0000
  C   C285      1.0  0.00582  0.71865  0.00211  1.0000
  S   S74       1.0  0.35390  0.27150  0.28614  1.0000
  C   C286      1.0  0.52517  0.19974  0.01404  1.0000
  S   S75       1.0  0.36960  0.35280  0.29312  1.0000
  H   H353      1.0  0.61735  0.21413  0.30618  1.0000
  Fe  Fe37      1.0  0.36240  0.31453  0.25549  1.0000
  S   S76       1.0  0.38355  0.30953  0.21946  1.0000
  Fe  Fe38      1.0  0.35874  0.31138  0.32308  1.0000
  S   S77       1.0  0.36981  0.30604  0.37019  1.0000
  S   S78       1.0  0.64721  0.32971  0.27633  1.0000
  H   H354      1.0  0.42985  0.26884  0.43868  1.0000
  H   H355      1.0  0.58714  0.07198  0.01504  1.0000
  S   S79       1.0  0.64032  0.26878  0.34137  1.0000
  H   H356      1.0  0.59694  0.20523  0.28568  1.0000
  Fe  Fe39      1.0  0.66679  0.37495  0.28650  1.0000
  H   H357      1.0  0.34820  0.24418  0.34888  1.0000
  S   S80       1.0  0.58503  0.16547  0.06263  1.0000
  H   H358      1.0  0.33493  0.28740  0.03995  1.0000
  C   C287      1.0  0.36323  0.21701  0.02766  1.0000
  S   S81       1.0  0.58767  0.24348  0.03102  1.0000
  S   S82       1.0  0.63473  0.22600  0.47617  1.0000
  Fe  Fe40      1.0  0.60072  0.21686  0.07014  1.0000
  S   S83       1.0  0.60073  0.24678  0.11442  1.0000
  H   H359      1.0  0.35872  0.19267  0.46963  1.0000
  H   H360      1.0  0.55239  0.09854  0.03325  1.0000
  S   S84       1.0  0.62478  0.19799  0.04501  1.0000
  Fe  Fe41      1.0  0.60837  0.14799  0.03506  1.0000
  C   C288      1.0  0.39879  0.00494  0.03216  1.0000
  C   C289      1.0  0.58546  0.20197  0.19849  1.0000
  S   S85       1.0  0.40190  0.18543  0.45512  1.0000
  C   C290      1.0  0.44555  0.23143  0.36388  1.0000
  S   S86       1.0  0.43571  0.17198  0.07493  1.0000
  C   C291      1.0  0.40337  0.39864  0.25483  1.0000
  Fe  Fe42      1.0  0.42827  0.13392  0.03777  1.0000
  C   C292      1.0  0.61132  0.21393  0.23198  1.0000
  Fe  Fe43      1.0  0.40791  0.19629  0.06930  1.0000
  S   S87       1.0  0.38684  0.20743  0.10468  1.0000
  Fe  Fe44      1.0  0.66039  0.30100  0.31446  1.0000
  C   C293      1.0  0.33941  0.18566  0.40148  1.0000
  H   H361      1.0  0.66430  0.23659  0.14949  1.0000
  C   C294      1.0  0.47690  0.22287  0.44446  1.0000
  H   H362      1.0  0.45227  0.26046  0.47381  1.0000
  H   H363      1.0  0.48296  0.15994  0.07903  1.0000
  Fe  Fe45      1.0  0.61085  0.22117  0.00504  1.0000
  H   H364      1.0  0.41648  0.29155  0.39393  1.0000
  C   C295      1.0  0.44993  0.23105  0.47181  1.0000
  C   C296      1.0  0.40839  0.03750  0.03392  1.0000
  H   H365      1.0  0.42566  0.26779  0.34582  1.0000
  C   C297      1.0  0.54133  0.08589  0.04432  1.0000
  C   C298      1.0  0.54390  0.05243  0.05681  1.0000
  C   C299      1.0  0.43217  0.25780  0.36557  1.0000
  H   H366      1.0  0.46400  0.19770  0.38699  1.0000
  C   C300      1.0  0.49123  0.22411  0.03407  1.0000
  C   C301      1.0  0.61558  0.18792  0.18279  1.0000
  C   C302      1.0  0.50742  0.23587  0.04781  1.0000
  H   H367      1.0  0.52340  0.12925  0.03597  1.0000
  H   H368      1.0  0.49333  0.12554  0.01878  1.0000
  H   H369      1.0  0.61264  0.30547  0.44916  1.0000
  H   H370      1.0  0.50834  0.14921  0.49331  1.0000
  H   H371      1.0  0.43518  0.22575  0.47331  1.0000
  H   H372      1.0  0.53668  0.23215  0.04916  1.0000
  H   H373      1.0  0.35403  0.14866  0.42924  1.0000
  C   C303      1.0  0.61960  0.25613  0.13822  1.0000
  C   C304      1.0  0.63679  0.24173  0.13321  1.0000
  C   C305      1.0  0.65114  0.24825  0.15349  1.0000
  C   C306      1.0  0.64857  0.26946  0.17888  1.0000
  C   C307      1.0  0.63147  0.28434  0.18370  1.0000
  C   C308      1.0  0.61706  0.27753  0.16355  1.0000
  H   H374      1.0  0.63895  0.22512  0.11392  1.0000
  H   H375      1.0  0.46014  0.16428  0.46490  1.0000
  H   H376      1.0  0.62933  0.30115  0.20283  1.0000
  H   H377      1.0  0.60383  0.28878  0.16764  1.0000
  C   C309      1.0  0.63894  0.25825  0.37922  1.0000
  C   C310      1.0  0.62322  0.24154  0.38904  1.0000
  C   C311      1.0  0.62156  0.23190  0.41859  1.0000
  C   C312      1.0  0.63573  0.23850  0.43876  1.0000
  C   C313      1.0  0.65147  0.25512  0.42897  1.0000
  C   C314      1.0  0.65306  0.26509  0.39948  1.0000
  H   H378      1.0  0.61220  0.23607  0.37367  1.0000
  H   H379      1.0  0.60937  0.21916  0.42568  1.0000
  H   H380      1.0  0.63428  0.30401  0.48994  1.0000
  C   C315      1.0  0.62139  0.01980  0.04152  1.0000
  C   C316      1.0  0.38933  0.47234  0.26721  1.0000
  S   S88       1.0  0.41644  0.23641  0.03613  1.0000
  H   H381      1.0  0.58289  0.22334  0.24162  1.0000
  H   H382      1.0  0.47957  0.25215  0.44305  1.0000
  H   H383      1.0  0.38403  0.45506  0.28365  1.0000
  C   C317      1.0  0.38419  0.28080  0.18767  1.0000
  C   C318      1.0  0.37011  0.25729  0.17992  1.0000
  C   C319      1.0  0.37121  0.23519  0.15452  1.0000
  C   C320      1.0  0.38639  0.23605  0.13652  1.0000
  C   C321      1.0  0.40043  0.25973  0.14414  1.0000
  C   C322      1.0  0.39930  0.28195  0.16950  1.0000
  H   H384      1.0  0.35839  0.25600  0.19354  1.0000
  H   H385      1.0  0.36026  0.21703  0.14893  1.0000
  H   H386      1.0  0.41221  0.26076  0.13063  1.0000
  H   H387      1.0  0.41031  0.29990  0.17521  1.0000
  C   C323      1.0  0.37860  0.27176  0.39325  1.0000
  C   C324      1.0  0.38249  0.23706  0.38287  1.0000
  C   C325      1.0  0.38968  0.21114  0.40211  1.0000
  C   C326      1.0  0.39312  0.21950  0.43189  1.0000
  C   C327      1.0  0.38939  0.25427  0.44222  1.0000
  C   C328      1.0  0.38218  0.28018  0.42299  1.0000
  H   H388      1.0  0.38020  0.23025  0.36001  1.0000
  H   H389      1.0  0.39261  0.18440  0.39385  1.0000
  H   H390      1.0  0.39190  0.26115  0.46504  1.0000
  H   H391      1.0  0.37930  0.30696  0.43126  1.0000
  Fe  Fe46      1.0  0.34122  0.37388  0.28784  1.0000
  H   H392      1.0  0.48376  0.21334  0.46487  1.0000
  C   C329      1.0  0.61182  0.05121  0.03408  1.0000
  H   H393      1.0  0.39217  0.42157  0.18543  1.0000
  H   H394      1.0  0.47155  0.12826  0.03471  1.0000
  C   C330      1.0  0.34853  0.17556  0.42720  1.0000
  H   H395      1.0  0.39575  0.31002  0.08903  1.0000
  N   N21       1.0  0.35585  0.25345  0.02257  1.0000
  H   H396      1.0  0.43963  0.16988  0.44355  1.0000
  C   C331      1.0  0.52968  0.03626  0.07094  1.0000
  C   C332      1.0  0.33579  0.24586  0.42153  1.0000
  C   C333      1.0  0.44852  0.23069  0.41755  1.0000
  C   C334      1.0  0.39462  0.45846  0.23952  1.0000
  H   H397      1.0  0.64415  0.24576  0.24588  1.0000
  H   H398      1.0  0.64199  0.47050  0.20539  1.0000
  N   N22       1.0  0.39308  0.41957  0.23264  1.0000
  N   N23       1.0  0.45719  0.21570  0.44424  1.0000
  H   H399      1.0  0.59171  0.18127  0.15556  1.0000
  C   C335      1.0  0.39063  0.30826  0.06660  1.0000
  C   C336      1.0  0.45434  0.17632  0.44462  1.0000
  C   C337      1.0  0.62274  0.20022  0.20971  1.0000
  H   H400      1.0  0.44952  0.22106  0.34265  1.0000
  H   H401      1.0  0.62452  0.17869  0.16571  1.0000
  C   C338      1.0  0.39214  0.32552  0.01620  1.0000
  N   N24       1.0  0.49261  0.10812  0.06354  1.0000
  C   C339      1.0  0.47922  0.09020  0.08198  1.0000
  C   C340      1.0  0.49581  0.14443  0.07657  1.0000
  C   C341      1.0  0.65387  0.48730  0.20773  1.0000
  C   C342      1.0  0.50999  0.08833  0.06120  1.0000
  C   C343      1.0  0.51293  0.05375  0.07315  1.0000
  C   C344      1.0  0.52464  0.10347  0.04623  1.0000
  H   H402      1.0  0.36566  0.42421  0.21642  1.0000
  H   H403      1.0  0.63497  0.14979  0.49062  1.0000
  H   H404      1.0  0.37157  0.26833  0.07655  1.0000
  H   H405      1.0  0.48456  0.08646  0.10467  1.0000
  S   S89       1.0  0.65451  0.43170  0.28415  1.0000
  H   H406      1.0  0.46649  0.10626  0.08367  1.0000
  H   H407      1.0  0.50256  0.14280  0.09852  1.0000
  H   H408      1.0  0.36722  0.21292  0.05096  1.0000
  H   H409      1.0  0.50444  0.16117  0.06290  1.0000
  H   H410      1.0  0.57104  0.20322  0.19373  1.0000
  S   S90       1.0  0.59506  0.15422  0.49752  1.0000
  S   S91       1.0  0.43805  0.17001  0.00264  1.0000
  H   H411      1.0  0.50255  0.03972  0.08445  1.0000
  H   H412      1.0  0.59696  0.26683  0.26773  1.0000
  S   S92       1.0  0.62209  0.09362  0.04085  1.0000
  C   C345      1.0  0.62070  0.31307  0.49444  1.0000
  H   H413      1.0  0.45093  0.00340  0.04129  1.0000
  C   C346      1.0  0.59242  0.21378  0.22570  1.0000
  C   C347      1.0  0.34476  0.23532  0.44727  1.0000
  C   C348      1.0  0.52433  0.22345  0.03806  1.0000
  H   H414      1.0  0.46076  0.16197  0.42605  1.0000
  H   H415      1.0  0.63248  0.11058  0.46685  1.0000
  H   H416      1.0  0.45656  0.21903  0.49147  1.0000
  H   H417      1.0  0.53173  0.01003  0.08038  1.0000
  C   C349      1.0  0.60834  0.31358  0.47085  1.0000
  C   C350      1.0  0.59043  0.32357  0.47521  1.0000
  H   H418      1.0  0.37552  0.21219  0.01459  1.0000
  C   C351      1.0  0.34000  0.25929  0.04143  1.0000
  C   C352      1.0  0.63705  0.12025  0.48897  1.0000
  H   H419      1.0  0.48064  0.08545  0.02405  1.0000
  C   C353      1.0  0.33618  0.22665  0.34556  1.0000
  H   H420      1.0  0.38421  0.00543  0.02955  1.0000
  C   C354      1.0  0.37376  0.40925  0.23302  1.0000
  H   H421      1.0  0.63729  0.19970  0.21205  1.0000
  C   C355      1.0  0.42701  0.27118  0.39275  1.0000
  H   H422      1.0  0.64335  0.23936  0.28434  1.0000
  H   H423      1.0  0.39806  0.40240  0.27717  1.0000
  C   C356      1.0  0.45370  0.21814  0.38942  1.0000
  C   C357      1.0  0.43492  0.25785  0.41845  1.0000
  H   H424      1.0  0.61627  0.17647  0.28091  1.0000
  H   H425      1.0  0.50686  0.25425  0.06640  1.0000
  N   N25       1.0  0.61838  0.22774  0.26063  1.0000
  H   H426      1.0  0.33795  0.16562  0.38422  1.0000
  Fe  Fe47      1.0  0.57409  0.19065  0.02149  1.0000
  H   H427      1.0  0.39893  0.37924  0.19951  1.0000
  C   C358      1.0  0.66344  0.14974  0.45228  1.0000
  C   C359      1.0  0.63844  0.22837  0.26281  1.0000
  C   C360      1.0  0.42724  0.03713  0.03710  1.0000
  S   S93       1.0  0.47025  0.23924  0.04767  1.0000
  C   C361      1.0  0.59703  0.18928  0.17703  1.0000
  H   H428      1.0  0.61582  0.28282  0.24792  1.0000
  H   H429      1.0  0.58084  0.32344  0.45691  1.0000
  H   H430      1.0  0.37188  0.38017  0.22805  1.0000
  C   C362      1.0  0.61192  0.20486  0.28433  1.0000
  S   S94       1.0  0.39980  0.15474  0.03470  1.0000
  H   H431      1.0  0.41787  0.40645  0.25572  1.0000
  C   C363      1.0  0.34474  0.48353  0.25791  1.0000
  H   H432      1.0  0.48379  0.20916  0.42600  1.0000
  Fe  Fe48      1.0  0.44387  0.20918  0.03954  1.0000
  S   S95       1.0  0.44007  0.07716  0.03812  1.0000
  H   H433      1.0  0.66255  0.26036  0.44430  1.0000
  C   C364      1.0  0.61186  0.26502  0.26590  1.0000
  C   C365      1.0  0.59459  0.04805  0.02101  1.0000
  H   H434      1.0  0.40273  0.36921  0.24994  1.0000
  H   H435      1.0  0.64441  0.20102  0.26066  1.0000
  C   C366      1.0  0.37004  0.28023  0.02995  1.0000
  C   C367      1.0  0.40005  0.40883  0.20351  1.0000
  H   H436      1.0  0.36764  0.41466  0.25464  1.0000
  H   H437      1.0  0.47497  0.06376  0.07243  1.0000
  C   C368      1.0  0.33957  0.47671  0.28648  1.0000
  H   H438      1.0  0.64957  0.15836  0.44902  1.0000
  H   H439      1.0  0.61757  0.27664  0.28680  1.0000
  C   C369      1.0  0.48426  0.11202  0.03398  1.0000
  H   H440      1.0  0.41460  0.41563  0.20169  1.0000
  C   C370      1.0  0.40060  0.48371  0.21898  1.0000
  H   H441      1.0  0.34532  0.46177  0.24210  1.0000
  N   N26       1.0  0.65616  0.11031  0.49540  1.0000
  C   C371      1.0  0.55020  0.05902  0.49758  1.0000
  H   H442      1.0  0.40121  0.06283  0.03265  1.0000
  H   H443      1.0  0.66525  0.27785  0.39236  1.0000
  C   C372      1.0  0.35116  0.20031  0.45007  1.0000
  H   H444      1.0  0.40480  0.47586  0.19735  1.0000
  H   H445      1.0  0.55693  0.03899  0.05543  1.0000
  C   C373      1.0  0.37669  0.28438  0.05920  1.0000
  C   C374      1.0  0.49211  0.20056  0.00997  1.0000
  H   H446      1.0  0.34734  0.25474  0.46483  1.0000
  C   C375      1.0  0.54897  0.02154  0.49652  1.0000
  H   H447      1.0  0.60600  0.06209  0.49890  1.0000
  H   H448      1.0  0.63474  0.02198  0.05159  1.0000
  C   C376      1.0  0.37819  0.30168  0.00857  1.0000
  C   C377      1.0  0.65727  0.07050  0.49477  1.0000
  C   C378      1.0  0.58722  0.01383  0.01501  1.0000
  C   C379      1.0  0.43636  0.00398  0.03877  1.0000
  H   H449      1.0  0.35336  0.19563  0.02145  1.0000
  H   H450      1.0  0.65441  0.05945  0.47235  1.0000
  H   H451      1.0  0.34321  0.25398  0.06485  1.0000
  H   H452      1.0  0.34115  0.19864  0.34303  1.0000
  H   H453      1.0  0.54409  0.07500  0.48037  1.0000
  S   S96       1.0  0.54458  0.17498  0.50200  1.0000
  C   C380      1.0  0.66388  0.47564  0.28837  1.0000
  S   S97       1.0  0.66708  0.27572  0.20406  1.0000
  H   H454      1.0  0.40945  0.34665  0.05084  1.0000
  C   C381      1.0  0.39838  0.32874  0.04513  1.0000
  H   H455      1.0  0.54201  0.00940  0.47784  1.0000
  C   C382      1.0  0.61043  0.00471  0.49819  1.0000
  H   H456      1.0  0.63789  0.50148  0.28318  1.0000
  H   H457      1.0  0.57407  0.01178  0.00437  1.0000
  Fe  Fe49      1.0  0.40992  0.19388  0.00183  1.0000
  Fe  Fe50      1.0  0.35057  0.38394  0.77918  1.0000
  S   S98       1.0  0.37325  0.34532  0.78934  1.0000
  S   S99       1.0  0.33691  0.34407  0.74829  1.0000
  Fe  Fe51      1.0  0.35842  0.30428  0.76133  1.0000
  S   S100      1.0  0.37634  0.26564  0.73475  1.0000
  Fe  Fe52      1.0  0.35654  0.32609  0.82639  1.0000
  S   S101      1.0  0.37234  0.32223  0.87018  1.0000
  S   S102      1.0  0.65041  0.34804  0.77209  1.0000
  H   H458      1.0  0.47978  0.19169  0.99899  1.0000
  Fe  Fe53      1.0  0.65642  0.31200  0.81086  1.0000
  S   S103      1.0  0.63544  0.28374  0.83855  1.0000
  H   H459      1.0  0.58947  0.23829  0.95531  1.0000
  H   H460      1.0  0.56891  0.23063  0.97402  1.0000
  Fe  Fe54      1.0  0.60451  0.13926  0.54270  1.0000
  S   S104      1.0  0.58165  0.16712  0.56553  1.0000
  H   H461      1.0  0.63197  0.33277  0.59435  1.0000
  C   C383      1.0  0.56735  0.05611  0.54293  1.0000
  S   S105      1.0  0.58929  0.23643  0.52390  1.0000
  S   S106      1.0  0.62567  0.26028  0.97577  1.0000
  Fe  Fe55      1.0  0.59962  0.21580  0.56747  1.0000
  S   S107      1.0  0.60121  0.25351  0.60764  1.0000
  H   H462      1.0  0.59169  0.33956  0.54807  1.0000
  C   C384      1.0  0.59032  0.30695  0.86409  1.0000
  S   S108      1.0  0.62306  0.18661  0.54794  1.0000
  H   H463      1.0  0.57078  0.34023  0.50655  1.0000
  H   H464      1.0  0.65382  0.18487  0.89409  1.0000
  C   C385      1.0  0.57446  0.30051  0.97212  1.0000
  S   S109      1.0  0.39209  0.19759  0.96014  1.0000
  H   H465      1.0  0.37427  0.30015  0.98569  1.0000
  S   S110      1.0  0.42774  0.17719  0.58427  1.0000
  Fe  Fe56      1.0  0.41860  0.13324  0.55275  1.0000
  H   H466      1.0  0.61961  0.01493  0.58156  1.0000
  C   C386      1.0  0.41974  0.03663  0.55003  1.0000
  Fe  Fe57      1.0  0.40339  0.20782  0.56844  1.0000
  S   S111      1.0  0.38559  0.24496  0.59629  1.0000
  H   H467      1.0  0.56791  0.29282  0.99274  1.0000
  C   C387      1.0  0.57750  0.27989  0.86536  1.0000
  H   H468      1.0  0.40550  0.02179  0.96845  1.0000
  H   H469      1.0  0.64057  0.27080  0.53233  1.0000
  H   H470      1.0  0.61003  0.31869  0.58333  1.0000
  H   H471      1.0  0.57005  0.22046  0.93593  1.0000
  H   H472      1.0  0.54257  0.27158  0.96702  1.0000
  C   C388      1.0  0.61308  0.04284  0.54180  1.0000
  H   H473      1.0  0.36219  0.05630  0.61721  1.0000
  H   H474      1.0  0.57336  0.26561  0.84545  1.0000
  C   C389      1.0  0.66073  0.12359  0.52545  1.0000
  C   C390      1.0  0.62171  0.33468  0.57617  1.0000
  C   C391      1.0  0.64511  0.34200  0.54154  1.0000
  H   H475      1.0  0.34055  0.47044  0.81575  1.0000
  H   H476      1.0  0.65276  0.33042  0.52295  1.0000
  H   H477      1.0  0.66395  0.24109  0.64661  1.0000
  H   H478      1.0  0.43084  0.00510  0.58515  1.0000
  H   H479      1.0  0.59518  0.32887  0.93569  1.0000
  H   H480      1.0  0.39838  0.34110  0.99944  1.0000
  C   C392      1.0  0.63427  0.28287  0.55209  1.0000
  H   H481      1.0  0.56089  0.24868  0.89216  1.0000
  C   C393      1.0  0.52927  0.00634  0.99414  1.0000
  H   H482      1.0  0.53539  0.22994  0.54604  1.0000
  C   C394      1.0  0.59622  0.32457  0.88967  1.0000
  C   C395      1.0  0.50781  0.17116  0.50911  1.0000
  C   C396      1.0  0.61936  0.26026  0.63351  1.0000
  C   C397      1.0  0.63657  0.24541  0.62948  1.0000
  C   C398      1.0  0.65071  0.25264  0.65004  1.0000
  C   C399      1.0  0.64782  0.27436  0.67509  1.0000
  C   C400      1.0  0.63059  0.28908  0.67917  1.0000
  C   C401      1.0  0.61652  0.28225  0.65840  1.0000
  H   H483      1.0  0.63898  0.22833  0.61057  1.0000
  C   C402      1.0  0.34404  0.49228  0.80179  1.0000
  C   C403      1.0  0.35185  0.48488  0.77474  1.0000
  C   C404      1.0  0.37501  0.02273  0.58502  1.0000
  C   C405      1.0  0.63374  0.27654  0.87685  1.0000
  C   C406      1.0  0.64188  0.29932  0.89793  1.0000
  C   C407      1.0  0.63933  0.29363  0.92797  1.0000
  C   C408      1.0  0.62865  0.26517  0.93745  1.0000
  C   C409      1.0  0.62069  0.24211  0.91637  1.0000
  C   C410      1.0  0.62315  0.24793  0.88630  1.0000
  H   H484      1.0  0.64983  0.32179  0.89112  1.0000
  H   H485      1.0  0.64558  0.31162  0.94403  1.0000
  H   H486      1.0  0.61268  0.21975  0.92312  1.0000
  H   H487      1.0  0.61667  0.23028  0.87023  1.0000
  H   H488      1.0  0.64888  0.46338  0.79148  1.0000
  H   H489      1.0  0.40875  0.37726  0.69777  1.0000
  H   H490      1.0  0.62782  0.10843  0.50493  1.0000
  H   H491      1.0  0.56015  0.10530  0.52166  1.0000
  H   H492      1.0  0.64458  0.17879  0.94418  1.0000
  C   C411      1.0  0.37821  0.25955  0.69611  1.0000
  C   C412      1.0  0.36783  0.27932  0.67608  1.0000
  C   C413      1.0  0.37002  0.27389  0.64570  1.0000
  C   C414      1.0  0.38254  0.24858  0.63486  1.0000
  C   C415      1.0  0.39283  0.22860  0.65489  1.0000
  C   C416      1.0  0.39068  0.23412  0.68528  1.0000
  H   H493      1.0  0.35815  0.29889  0.68398  1.0000
  H   H494      1.0  0.36201  0.28959  0.63047  1.0000
  H   H495      1.0  0.40246  0.20894  0.64701  1.0000
  H   H496      1.0  0.39873  0.21851  0.70050  1.0000
  C   C417      1.0  0.37727  0.28729  0.89528  1.0000
  C   C418      1.0  0.36954  0.25319  0.89242  1.0000
  C   C419      1.0  0.37428  0.22622  0.91248  1.0000
  C   C420      1.0  0.38665  0.23294  0.93578  1.0000
  C   C421      1.0  0.39410  0.26723  0.93905  1.0000
  C   C422      1.0  0.38942  0.29419  0.91891  1.0000
  H   H497      1.0  0.35983  0.24760  0.87490  1.0000
  H   H498      1.0  0.36831  0.19988  0.90988  1.0000
  H   H499      1.0  0.40363  0.27284  0.95685  1.0000
  H   H500      1.0  0.39542  0.32049  0.92143  1.0000
  H   H501      1.0  0.60328  0.29390  0.66177  1.0000
  S   S112      1.0  0.42083  0.07695  0.57105  1.0000
  C   C423      1.0  0.57044  0.27048  0.89223  1.0000
  C   C424      1.0  0.66592  0.21125  0.96265  1.0000
  C   C425      1.0  0.60935  0.03888  0.51177  1.0000
  H   H502      1.0  0.50955  0.17061  0.98113  1.0000
  H   H503      1.0  0.66037  0.15349  0.52665  1.0000
  H   H504      1.0  0.54269  0.25805  0.92976  1.0000
  S   S113      1.0  0.34243  0.28318  0.79897  1.0000
  H   H505      1.0  0.62232  0.26623  0.55686  1.0000
  H   H506      1.0  0.34385  0.28158  0.98603  1.0000
  H   H507      1.0  0.44213  0.37857  0.69566  1.0000
  Fe  Fe58      1.0  0.40983  0.18617  0.50393  1.0000
  S   S114      1.0  0.33479  0.36795  0.81816  1.0000
  S   S115      1.0  0.43483  0.15368  0.51570  1.0000
  H   H508      1.0  0.57323  0.00485  0.55963  1.0000
  C   C426      1.0  0.61551  0.32269  0.52325  1.0000
  C   C427      1.0  0.57601  0.28811  0.91874  1.0000
  C   C428      1.0  0.50901  0.18875  0.99986  1.0000
  H   H509      1.0  0.36023  0.24737  0.97625  1.0000
  C   C429      1.0  0.41252  0.03561  0.52149  1.0000
  Fe  Fe59      1.0  0.44208  0.19968  0.54602  1.0000
  S   S116      1.0  0.39301  0.16235  0.53924  1.0000
  H   H510      1.0  0.64079  0.48096  0.70719  1.0000
  C   C430      1.0  0.58936  0.31521  0.91669  1.0000
  H   H511      1.0  0.64729  0.05847  0.50960  1.0000
  H   H512      1.0  0.59624  0.31343  0.84337  1.0000
  C   C431      1.0  0.50625  0.22796  0.54955  1.0000
  H   H513      1.0  0.40811  0.06023  0.51132  1.0000
  Fe  Fe60      1.0  0.66766  0.30949  0.74579  1.0000
  N   N27       1.0  0.56855  0.27719  0.94696  1.0000
  H   H514      1.0  0.60675  0.34458  0.88862  1.0000
  H   H515      1.0  0.57476  0.06966  0.56068  1.0000
  H   H516      1.0  0.64407  0.27990  0.57076  1.0000
  C   C432      1.0  0.57449  0.24006  0.95321  1.0000
  C   C433      1.0  0.52310  0.21648  0.53885  1.0000
  S   S117      1.0  0.61463  0.08551  0.55940  1.0000
  S   S118      1.0  0.46915  0.22772  0.55312  1.0000
  H   H517      1.0  0.33834  0.23480  0.98688  1.0000
  C   C434      1.0  0.36300  0.02960  0.60742  1.0000
  C   C435      1.0  0.59709  0.33267  0.52697  1.0000
  C   C436      1.0  0.54846  0.27816  0.94555  1.0000
  H   H518      1.0  0.50573  0.25024  0.56503  1.0000
  Fe  Fe61      1.0  0.57304  0.18525  0.52073  1.0000
  N   N28       1.0  0.62880  0.32079  0.54796  1.0000
  H   H519      1.0  0.54339  0.30517  0.93924  1.0000
  C   C437      1.0  0.55927  0.07625  0.52084  1.0000
  C   C438      1.0  0.49012  0.21091  0.54033  1.0000
  H   H520      1.0  0.57091  0.32913  0.96841  1.0000
  H   H521      1.0  0.43872  0.01844  0.97268  1.0000
  H   H522      1.0  0.38359  0.04410  0.57753  1.0000
  H   H523      1.0  0.66116  0.20911  0.98481  1.0000
  H   H524      1.0  0.64135  0.37009  0.53601  1.0000
  N   N29       1.0  0.40286  0.24215  0.81612  1.0000
  C   C439      1.0  0.38294  0.23812  0.81595  1.0000
  C   C440      1.0  0.40674  0.27947  0.80743  1.0000
  C   C441      1.0  0.41033  0.21765  0.79339  1.0000
  C   C442      1.0  0.41047  0.23304  0.84533  1.0000
  C   C443      1.0  0.41972  0.25837  0.86386  1.0000
  C   C444      1.0  0.40844  0.19793  0.85629  1.0000
  C   C445      1.0  0.42668  0.24875  0.89134  1.0000
  C   C446      1.0  0.41527  0.18877  0.88395  1.0000
  C   C447      1.0  0.42443  0.21408  0.90138  1.0000
  H   H525      1.0  0.37674  0.25733  0.83174  1.0000
  H   H526      1.0  0.37683  0.24351  0.79398  1.0000
  H   H527      1.0  0.37865  0.21075  0.82172  1.0000
  H   H528      1.0  0.40052  0.29952  0.82265  1.0000
  H   H529      1.0  0.40099  0.28525  0.78523  1.0000
  H   H530      1.0  0.42152  0.28443  0.80668  1.0000
  H   H531      1.0  0.40619  0.18937  0.79620  1.0000
  H   H532      1.0  0.40544  0.22504  0.77099  1.0000
  H   H533      1.0  0.42537  0.21852  0.79374  1.0000
  H   H534      1.0  0.42138  0.28605  0.85801  1.0000
  H   H535      1.0  0.40120  0.17750  0.84381  1.0000
  H   H536      1.0  0.43329  0.26866  0.90543  1.0000
  H   H537      1.0  0.41302  0.16222  0.89238  1.0000
  H   H538      1.0  0.42919  0.20716  0.92319  1.0000
  S   S119      1.0  0.41829  0.23366  0.53190  1.0000
  S   S120      1.0  0.35560  0.44016  0.76125  1.0000
  N   N30       1.0  0.44270  0.29540  0.61677  1.0000
  C   C448      1.0  0.46262  0.30021  0.61611  1.0000
  C   C449      1.0  0.43923  0.25742  0.62365  1.0000
  C   C450      1.0  0.43530  0.30247  0.58693  1.0000
  C   C451      1.0  0.43373  0.31895  0.63859  1.0000
  C   C452      1.0  0.41462  0.31922  0.64044  1.0000
  C   C453      1.0  0.44348  0.34105  0.65916  1.0000
  C   C454      1.0  0.40579  0.34005  0.66152  1.0000
  C   C455      1.0  0.43449  0.36194  0.68012  1.0000
  C   C456      1.0  0.41569  0.36134  0.68135  1.0000
  H   H539      1.0  0.46887  0.28277  0.59896  1.0000
  H   H540      1.0  0.46618  0.32834  0.61106  1.0000
  H   H541      1.0  0.46932  0.29250  0.63713  1.0000
  H   H542      1.0  0.42464  0.25053  0.62109  1.0000
  H   H543      1.0  0.44345  0.25138  0.64655  1.0000
  H   H544      1.0  0.44673  0.23874  0.60890  1.0000
  H   H545      1.0  0.43634  0.33139  0.58169  1.0000
  H   H546      1.0  0.44263  0.28671  0.56990  1.0000
  H   H547      1.0  0.42085  0.29463  0.58416  1.0000
  H   H548      1.0  0.40632  0.30292  0.62577  1.0000
  H   H549      1.0  0.45805  0.34255  0.65965  1.0000
  H   H550      1.0  0.39116  0.33935  0.66266  1.0000
  C   C457      1.0  0.66206  0.19804  0.91082  1.0000
  H   H551      1.0  0.62813  0.30589  0.69824  1.0000
  C   C458      1.0  0.49102  0.18205  0.52037  1.0000
  H   H552      1.0  0.58933  0.29823  0.97654  1.0000
  C   C459      1.0  0.65821  0.48558  0.79112  1.0000
  S   S121      1.0  0.66633  0.28293  0.69994  1.0000
  H   H553      1.0  0.61746  0.36328  0.57470  1.0000
  H   H554      1.0  0.65097  0.11370  0.54167  1.0000
  C   C460      1.0  0.52395  0.18827  0.51827  1.0000
  C   C461      1.0  0.42529  0.00440  0.56305  1.0000
  H   H555      1.0  0.47878  0.16836  0.51338  1.0000
  C   C462      1.0  0.61677  0.01213  0.55830  1.0000
  C   C463      1.0  0.56625  0.01863  0.54209  1.0000
  C   C464      1.0  0.65656  0.19417  0.93964  1.0000
  Fe  Fe62      1.0  0.61195  0.20411  0.50400  1.0000
  C   C465      1.0  0.34928  0.25459  0.99162  1.0000
  H   H556      1.0  0.34284  0.00765  0.63477  1.0000
  H   H557      1.0  0.53819  0.02916  0.99234  1.0000
  H   H558      1.0  0.65773  0.21918  0.85207  1.0000
  H   H559      1.0  0.65482  0.34303  0.56054  1.0000
  S   S122      1.0  0.59657  0.16963  0.99311  1.0000
  S   S123      1.0  0.54588  0.18213  0.00127  1.0000
  C   C466      1.0  0.58482  0.33309  0.50318  1.0000
  H   H560      1.0  0.50566  0.03898  0.00109  1.0000
  C   C467      1.0  0.51096  0.01189  0.99914  1.0000
  Fe  Fe63      1.0  0.34975  0.71388  0.31779  1.0000
  S   S124      1.0  0.35408  0.74418  0.36139  1.0000
  Fe  Fe64      1.0  0.35727  0.72553  0.25311  1.0000
  S   S125      1.0  0.37336  0.76656  0.22804  1.0000
  H   H561      1.0  0.63940  0.58923  0.22074  1.0000
  H   H562      1.0  0.41030  0.76385  0.31469  1.0000
  C   C468      1.0  0.52476  0.75361  0.46136  1.0000
  S   S126      1.0  0.37029  0.69023  0.28717  1.0000
  S   S127      1.0  0.64876  0.66864  0.27623  1.0000
  H   H563      1.0  0.39012  0.88120  0.32899  1.0000
  H   H564      1.0  0.64461  0.70443  0.43820  1.0000
  C   C469      1.0  0.46841  0.77996  0.45875  1.0000
  Fe  Fe65      1.0  0.65379  0.71365  0.30940  1.0000
  S   S128      1.0  0.63258  0.74279  0.33659  1.0000
  Fe  Fe66      1.0  0.57493  0.81341  0.02805  1.0000
  H   H565      1.0  0.65372  0.80533  0.46694  1.0000
  H   H566      1.0  0.64970  0.70938  0.13336  1.0000
  Fe  Fe67      1.0  0.60700  0.82615  0.07080  1.0000
  S   S129      1.0  0.62282  0.85605  0.03727  1.0000
  S   S130      1.0  0.61322  0.82020  0.11998  1.0000
  Fe  Fe68      1.0  0.59632  0.88324  0.02502  1.0000
  H   H567      1.0  0.41265  0.87457  0.41562  1.0000
  C   C470      1.0  0.65265  0.52413  0.20270  1.0000
  H   H568      1.0  0.65858  0.62188  0.16723  1.0000
  S   S131      1.0  0.58124  0.85702  0.06090  1.0000
  S   S132      1.0  0.59959  0.78074  0.03990  1.0000
  Fe  Fe69      1.0  0.40910  0.87700  0.03446  1.0000
  S   S133      1.0  0.35320  0.59167  0.25768  1.0000
  H   H569      1.0  0.45453  0.71352  0.45211  1.0000
  Fe  Fe70      1.0  0.40624  0.80341  0.06323  1.0000
  S   S134      1.0  0.42970  0.78115  0.03755  1.0000
  S   S135      1.0  0.38940  0.76603  0.09103  1.0000
  Fe  Fe71      1.0  0.44332  0.83399  0.04782  1.0000
  S   S136      1.0  0.47187  0.84545  0.06571  1.0000
  C   C471      1.0  0.40209  0.82576  0.28864  1.0000
  S   S137      1.0  0.41614  0.75585  0.46121  1.0000
  S   S138      1.0  0.42066  0.85450  0.07618  1.0000
  H   H570      1.0  0.57927  0.95304  0.49432  1.0000
  C   C472      1.0  0.52660  0.80296  0.03364  1.0000
  C   C473      1.0  0.52574  0.82871  0.05621  1.0000
  C   C474      1.0  0.50886  0.84174  0.06541  1.0000
  C   C475      1.0  0.49266  0.82884  0.05248  1.0000
  C   C476      1.0  0.51041  0.78989  0.02080  1.0000
  C   C477      1.0  0.34963  0.81687  0.11855  1.0000
  H   H571      1.0  0.53804  0.83854  0.06669  1.0000
  H   H572      1.0  0.50831  0.86157  0.08298  1.0000
  H   H573      1.0  0.65783  0.59817  0.24586  1.0000
  H   H574      1.0  0.40528  0.53947  0.20977  1.0000
  C   C478      1.0  0.63091  0.74531  0.37532  1.0000
  C   C479      1.0  0.63972  0.72081  0.39365  1.0000
  C   C480      1.0  0.63790  0.72374  0.42424  1.0000
  C   C481      1.0  0.62739  0.75126  0.43691  1.0000
  C   C482      1.0  0.61873  0.77598  0.41860  1.0000
  C   C483      1.0  0.62041  0.77285  0.38799  1.0000
  C   C484      1.0  0.59685  0.98239  0.02227  1.0000
  H   H575      1.0  0.35287  0.52359  0.22747  1.0000
  H   H576      1.0  0.61064  0.79734  0.42801  1.0000
  H   H577      1.0  0.61349  0.79191  0.37405  1.0000
  C   C485      1.0  0.64521  0.73669  0.17461  1.0000
  C   C486      1.0  0.64353  0.73240  0.14399  1.0000
  C   C487      1.0  0.63392  0.75767  0.12687  1.0000
  C   C488      1.0  0.62584  0.78765  0.14019  1.0000
  C   C489      1.0  0.62755  0.79193  0.17082  1.0000
  C   C490      1.0  0.63718  0.76672  0.18793  1.0000
  H   H578      1.0  0.47406  0.78124  0.43655  1.0000
  H   H579      1.0  0.63279  0.75397  0.10336  1.0000
  H   H580      1.0  0.62136  0.81497  0.18140  1.0000
  C   C491      1.0  0.37147  0.74617  0.38901  1.0000
  C   C492      1.0  0.36994  0.77171  0.41191  1.0000
  C   C493      1.0  0.38334  0.77473  0.43429  1.0000
  C   C494      1.0  0.39850  0.75214  0.43408  1.0000
  C   C495      1.0  0.40009  0.72661  0.41113  1.0000
  C   C496      1.0  0.38666  0.72358  0.38871  1.0000
  H   H581      1.0  0.35826  0.78931  0.41239  1.0000
  H   H582      1.0  0.38193  0.79459  0.45167  1.0000
  H   H583      1.0  0.41174  0.70894  0.41074  1.0000
  H   H584      1.0  0.38800  0.70362  0.37139  1.0000
  C   C497      1.0  0.37805  0.76546  0.19000  1.0000
  C   C498      1.0  0.37198  0.73766  0.17132  1.0000
  C   C499      1.0  0.37589  0.73803  0.14127  1.0000
  C   C500      1.0  0.38587  0.76611  0.12945  1.0000
  C   C501      1.0  0.39198  0.79386  0.14817  1.0000
  C   C502      1.0  0.38806  0.79351  0.17824  1.0000
  H   H585      1.0  0.36436  0.71580  0.17998  1.0000
  H   H586      1.0  0.37107  0.71647  0.12699  1.0000
  H   H587      1.0  0.39959  0.81571  0.13942  1.0000
  H   H588      1.0  0.39283  0.81518  0.19243  1.0000
  H   H589      1.0  0.39837  0.81241  0.26727  1.0000
  C   C503      1.0  0.40792  0.97178  0.03359  1.0000
  Fe  Fe72      1.0  0.41697  0.79522  0.50037  1.0000
  H   H590      1.0  0.54658  0.75450  0.49337  1.0000
  H   H591      1.0  0.52939  0.95889  0.49291  1.0000
  H   H592      1.0  0.38525  0.51911  0.29483  1.0000
  H   H593      1.0  0.43393  0.94610  0.03819  1.0000
  H   H594      1.0  0.41699  0.82301  0.29190  1.0000
  H   H595      1.0  0.54884  0.87021  0.02039  1.0000
  C   C504      1.0  0.33767  0.50603  0.30613  1.0000
  C   C505      1.0  0.42676  0.97144  0.03704  1.0000
  H   H596      1.0  0.40827  0.77887  0.36371  1.0000
  H   H597      1.0  0.64983  0.56358  0.28717  1.0000
  H   H598      1.0  0.33702  0.75278  0.20749  1.0000
  H   H599      1.0  0.63958  0.53471  0.19616  1.0000
  H   H600      1.0  0.53274  0.89856  0.03910  1.0000
  C   C506      1.0  0.34152  0.54142  0.29774  1.0000
  H   H601      1.0  0.34384  0.76893  0.09363  1.0000
  H   H602      1.0  0.48113  0.79255  0.02006  1.0000
  H   H603      1.0  0.63826  0.77043  0.21142  1.0000
  C   C507      1.0  0.39569  0.77043  0.31186  1.0000
  N   N31       1.0  0.39237  0.80979  0.31320  1.0000
  H   H604      1.0  0.64771  0.69928  0.38425  1.0000
  S   S139      1.0  0.41142  0.92907  0.50082  1.0000
  Fe  Fe73      1.0  0.66335  0.70323  0.24454  1.0000
  H   H605      1.0  0.55933  0.95551  0.47144  1.0000
  C   C508      1.0  0.39607  0.86462  0.34582  1.0000
  Fe  Fe74      1.0  0.61384  0.81176  0.00541  1.0000
  C   C509      1.0  0.37267  0.81563  0.30846  1.0000
  C   C510      1.0  0.66357  0.81911  0.34625  1.0000
  H   H606      1.0  0.47392  0.69016  0.46709  1.0000
  H   H607      1.0  0.35909  0.82661  0.10279  1.0000
  N   N32       1.0  0.47424  0.74727  0.47452  1.0000
  H   H608      1.0  0.39126  0.75854  0.29032  1.0000
  H   H609      1.0  0.64319  0.86833  0.46783  1.0000
  H   H610      1.0  0.62153  0.96167  0.04143  1.0000
  C   C511      1.0  0.49350  0.80285  0.03007  1.0000
  H   H611      1.0  0.35398  0.86099  0.14860  1.0000
  N   N33       1.0  0.55883  0.76672  0.12259  1.0000
  C   C512      1.0  0.56662  0.79385  0.14351  1.0000
  C   C513      1.0  0.56357  0.73071  0.13376  1.0000
  C   C514      1.0  0.56776  0.77136  0.09424  1.0000
  C   C515      1.0  0.53895  0.76973  0.11841  1.0000
  C   C516      1.0  0.52971  0.74715  0.09768  1.0000
  C   C517      1.0  0.52823  0.79472  0.13445  1.0000
  C   C518      1.0  0.51099  0.74965  0.09310  1.0000
  C   C519      1.0  0.50948  0.79686  0.12974  1.0000
  C   C520      1.0  0.50090  0.77442  0.10912  1.0000
  H   H612      1.0  0.56120  0.79112  0.16582  1.0000
  H   H613      1.0  0.58159  0.79092  0.14600  1.0000
  H   H614      1.0  0.56415  0.82166  0.13578  1.0000
  H   H615      1.0  0.55687  0.72587  0.15485  1.0000
  H   H616      1.0  0.57846  0.72772  0.13753  1.0000
  H   H617      1.0  0.55940  0.70887  0.11816  1.0000
  H   H618      1.0  0.56311  0.79653  0.08377  1.0000
  H   H619      1.0  0.58276  0.77262  0.09698  1.0000
  H   H620      1.0  0.56489  0.74917  0.07824  1.0000
  H   H621      1.0  0.53695  0.72791  0.08432  1.0000
  H   H622      1.0  0.53398  0.81331  0.15043  1.0000
  H   H623      1.0  0.50431  0.73303  0.07642  1.0000
  H   H624      1.0  0.60817  0.00195  0.47479  1.0000
  H   H625      1.0  0.48645  0.77709  0.10484  1.0000
  C   C521      1.0  0.40886  0.86156  0.39494  1.0000
  H   H626      1.0  0.38796  0.75633  0.32877  1.0000
  S   S140      1.0  0.43249  0.85998  0.00698  1.0000
  H   H627      1.0  0.44877  0.74542  0.49667  1.0000
  Fe  Fe75      1.0  0.34859  0.64948  0.27457  1.0000
  H   H628      1.0  0.51050  0.85645  0.48920  1.0000
  S   S141      1.0  0.62568  0.75373  0.47562  1.0000
  H   H629      1.0  0.34034  0.56343  0.31337  1.0000
  S   S142      1.0  0.39539  0.93149  0.03001  1.0000
  C   C522      1.0  0.50605  0.75146  0.45656  1.0000
  C   C523      1.0  0.65932  0.59259  0.17184  1.0000
  H   H630      1.0  0.64794  0.90666  0.42538  1.0000
  C   C524      1.0  0.46945  0.71528  0.45621  1.0000
  S   S143      1.0  0.65744  0.70384  0.19511  1.0000
  S   S144      1.0  0.39269  0.82752  0.02334  1.0000
  C   C525      1.0  0.65904  0.54102  0.28835  1.0000
  H   H631      1.0  0.47578  0.71568  0.43444  1.0000
  H   H632      1.0  0.36489  0.80433  0.32669  1.0000
  C   C526      1.0  0.40622  0.80755  0.36480  1.0000
  C   C527      1.0  0.39560  0.53314  0.25316  1.0000
  H   H633      1.0  0.55299  0.91714  0.02572  1.0000
  C   C528      1.0  0.41144  0.82476  0.39112  1.0000
  C   C529      1.0  0.34722  0.54802  0.26941  1.0000
  C   C530      1.0  0.40124  0.88149  0.37230  1.0000
  H   H634      1.0  0.45342  0.78121  0.45565  1.0000
  H   H635      1.0  0.50154  0.81665  0.14158  1.0000
  H   H636      1.0  0.39538  0.56174  0.25811  1.0000
  H   H637      1.0  0.65098  0.63100  0.21942  1.0000
  C   C531      1.0  0.54224  0.89714  0.02063  1.0000
  C   C532      1.0  0.56473  0.94566  0.49269  1.0000
  C   C533      1.0  0.65297  0.60172  0.22287  1.0000
  H   H638      1.0  0.39922  0.91014  0.37542  1.0000
  H   H639      1.0  0.36901  0.84444  0.30694  1.0000
  H   H640      1.0  0.41722  0.80931  0.40895  1.0000
  H   H641      1.0  0.39891  0.85469  0.28606  1.0000
  S   S145      1.0  0.59531  0.84331  0.48519  1.0000
  C   C534      1.0  0.39830  0.82704  0.34128  1.0000
  S   S146      1.0  0.43861  0.83747  0.49983  1.0000
  C   C535      1.0  0.61393  0.98556  0.03581  1.0000
  H   H642      1.0  0.50104  0.75295  0.43424  1.0000
  H   H643      1.0  0.66137  0.84766  0.34067  1.0000
  S   S147      1.0  0.54752  0.78672  0.02054  1.0000
  H   H644      1.0  0.53368  0.75719  0.44318  1.0000
  H   H645      1.0  0.36773  0.80251  0.28770  1.0000
  C   C536      1.0  0.40101  0.52049  0.22585  1.0000
  H   H646      1.0  0.64546  0.58212  0.16773  1.0000
  C   C537      1.0  0.38994  0.50907  0.27388  1.0000
  C   C538      1.0  0.34861  0.51886  0.24951  1.0000
  S   S148      1.0  0.61743  0.93225  0.49636  1.0000
  H   H647      1.0  0.56413  0.91574  0.49162  1.0000
  S   S149      1.0  0.33768  0.75102  0.28418  1.0000
  C   C539      1.0  0.34095  0.78425  0.11342  1.0000
  C   C540      1.0  0.65277  0.87912  0.42482  1.0000
  C   C541      1.0  0.65009  0.85760  0.44884  1.0000
  C   C542      1.0  0.49405  0.74812  0.48014  1.0000
  C   C543      1.0  0.33525  0.82270  0.16537  1.0000
  C   C544      1.0  0.34679  0.83607  0.14446  1.0000
  H   H648      1.0  0.65006  0.80756  0.35052  1.0000
  C   C545      1.0  0.65606  0.82211  0.44829  1.0000
  C   C546      1.0  0.66135  0.86514  0.40010  1.0000
  H   H649      1.0  0.47272  0.80463  0.47107  1.0000
  C   C547      1.0  0.66443  0.80766  0.42355  1.0000
  S   S150      1.0  0.66618  0.74950  0.27627  1.0000
  S   S151      1.0  0.33729  0.68361  0.23820  1.0000
  C   C548      1.0  0.65226  0.50566  0.28634  1.0000
  H   H650      1.0  0.66303  0.88283  0.38197  1.0000
  H   H651      1.0  0.48542  0.98699  0.00675  1.0000
  S   S152      1.0  0.58703  0.94006  0.01328  1.0000
  H   H652      1.0  0.51000  0.87304  0.00618  1.0000
  N   N34       1.0  0.66605  0.58604  0.20212  1.0000
  C   C549      1.0  0.53210  0.75183  0.48961  1.0000
  H   H653      1.0  0.51095  0.76978  0.00344  1.0000
  H   H654      1.0  0.40453  0.00187  0.48457  1.0000
  C   C550      1.0  0.66735  0.82885  0.39859  1.0000
  C   C551      1.0  0.49960  0.98259  0.00220  1.0000
  H   H655      1.0  0.66805  0.77958  0.42440  1.0000
  C   C552      1.0  0.66784  0.54696  0.20696  1.0000
  C   C553      1.0  0.46359  0.74578  0.50159  1.0000
  H   H656      1.0  0.49701  0.92611  0.00305  1.0000
  Fe  Fe76      1.0  0.35054  0.73395  0.81145  1.0000
  S   S153      1.0  0.35332  0.76495  0.85539  1.0000
  Fe  Fe77      1.0  0.36094  0.71500  0.74800  1.0000
  S   S154      1.0  0.38267  0.72022  0.71329  1.0000
  H   H657      1.0  0.65732  0.71983  0.63297  1.0000
  H   H658      1.0  0.61831  0.63057  0.67581  1.0000
  H   H659      1.0  0.49412  0.74386  0.52812  1.0000
  S   S155      1.0  0.36853  0.69116  0.79201  1.0000
  S   S156      1.0  0.64801  0.69268  0.77838  1.0000
  S   S157      1.0  0.63304  0.77754  0.97746  1.0000
  H   H660      1.0  0.39642  0.92658  0.56457  1.0000
  H   H661      1.0  0.62041  0.95448  0.55777  1.0000
  H   H662      1.0  0.34461  0.94750  0.61363  1.0000
  S   S158      1.0  0.64596  0.76496  0.83949  1.0000
  C   C554      1.0  0.52678  0.83702  0.52534  1.0000
  C   C555      1.0  0.38219  0.62856  0.85510  1.0000
  H   H663      1.0  0.63552  0.65503  0.71814  1.0000
  Fe  Fe78      1.0  0.60838  0.82370  0.56600  1.0000
  S   S159      1.0  0.62922  0.83420  0.53196  1.0000
  S   S160      1.0  0.61344  0.81869  0.61554  1.0000
  H   H664      1.0  0.62263  0.63156  0.92608  1.0000
  C   C556      1.0  0.41135  0.87200  0.92479  1.0000
  N   N35       1.0  0.53281  0.90428  0.99246  1.0000
  H   H665      1.0  0.65675  0.73334  0.94325  1.0000
  S   S161      1.0  0.59130  0.87174  0.55301  1.0000
  S   S162      1.0  0.59192  0.78521  0.53742  1.0000
  C   C557      1.0  0.35214  0.00212  0.61726  1.0000
  H   H666      1.0  0.55874  0.91582  0.97336  1.0000
  C   C558      1.0  0.65361  0.62545  0.67389  1.0000
  Fe  Fe79      1.0  0.40519  0.81828  0.56254  1.0000
  S   S163      1.0  0.42485  0.77680  0.54586  1.0000
  S   S164      1.0  0.38486  0.81766  0.59961  1.0000
  Fe  Fe80      1.0  0.44508  0.82177  0.54605  1.0000
  S   S165      1.0  0.47263  0.81206  0.56775  1.0000
  N   N36       1.0  0.55471  0.96060  0.51788  1.0000
  S   S166      1.0  0.41671  0.78283  0.95257  1.0000
  S   S167      1.0  0.42599  0.86214  0.56571  1.0000
  H   H667      1.0  0.38790  0.96952  0.95267  1.0000
  C   C559      1.0  0.34074  0.52814  0.81089  1.0000
  C   C560      1.0  0.52643  0.82254  0.55329  1.0000
  C   C561      1.0  0.50973  0.81543  0.56619  1.0000
  C   C562      1.0  0.49330  0.82303  0.55140  1.0000
  C   C563      1.0  0.35664  0.51393  0.75731  1.0000
  C   C564      1.0  0.61719  0.97783  0.54489  1.0000
  H   H668      1.0  0.53899  0.81629  0.56475  1.0000
  H   H669      1.0  0.50958  0.80368  0.58761  1.0000
  H   H670      1.0  0.36753  0.59331  0.90004  1.0000
  C   C565      1.0  0.53535  0.95064  0.51424  1.0000
  C   C566      1.0  0.64339  0.76926  0.87811  1.0000
  C   C567      1.0  0.65277  0.74740  0.89792  1.0000
  C   C568      1.0  0.64953  0.75059  0.92817  1.0000
  C   C569      1.0  0.63702  0.77586  0.93913  1.0000
  C   C570      1.0  0.62791  0.79822  0.91938  1.0000
  C   C571      1.0  0.63106  0.79485  0.88909  1.0000
  H   H671      1.0  0.60157  0.63589  0.84323  1.0000
  S   S168      1.0  0.34030  0.60175  0.80579  1.0000
  H   H672      1.0  0.61832  0.81788  0.92741  1.0000
  H   H673      1.0  0.62379  0.81207  0.87403  1.0000
  C   C572      1.0  0.64895  0.74453  0.67357  1.0000
  C   C573      1.0  0.64898  0.74044  0.64288  1.0000
  C   C574      1.0  0.63826  0.76279  0.62475  1.0000
  C   C575      1.0  0.62736  0.78963  0.63712  1.0000
  C   C576      1.0  0.62740  0.79373  0.66782  1.0000
  C   C577      1.0  0.63811  0.77138  0.68596  1.0000
  C   C578      1.0  0.34528  0.55715  0.79325  1.0000
  H   H674      1.0  0.63840  0.75928  0.60121  1.0000
  H   H675      1.0  0.61903  0.81438  0.67765  1.0000
  C   C579      1.0  0.37107  0.76819  0.88242  1.0000
  C   C580      1.0  0.38873  0.75658  0.87710  1.0000
  C   C581      1.0  0.40245  0.76108  0.89887  1.0000
  C   C582      1.0  0.39869  0.77676  0.92635  1.0000
  C   C583      1.0  0.38097  0.78783  0.93184  1.0000
  C   C584      1.0  0.36731  0.78381  0.90993  1.0000
  H   H676      1.0  0.39191  0.74477  0.85603  1.0000
  H   H677      1.0  0.41610  0.75242  0.89434  1.0000
  H   H678      1.0  0.37779  0.79950  0.95295  1.0000
  H   H679      1.0  0.35369  0.79277  0.91434  1.0000
  C   C585      1.0  0.38205  0.74593  0.68079  1.0000
  C   C586      1.0  0.36986  0.77436  0.67665  1.0000
  C   C587      1.0  0.37067  0.79548  0.65140  1.0000
  C   C588      1.0  0.38350  0.78825  0.62978  1.0000
  C   C589      1.0  0.39538  0.75926  0.63354  1.0000
  C   C590      1.0  0.39480  0.73858  0.65905  1.0000
  H   H680      1.0  0.35997  0.78038  0.69313  1.0000
  H   H681      1.0  0.36133  0.81768  0.64875  1.0000
  H   H682      1.0  0.40502  0.75272  0.61684  1.0000
  H   H683      1.0  0.40420  0.71648  0.66189  1.0000
  H   H684      1.0  0.43801  0.90890  0.94414  1.0000
  H   H685      1.0  0.42027  0.87970  0.90676  1.0000
  C   C591      1.0  0.44008  0.96325  0.95788  1.0000
  H   H686      1.0  0.41979  0.86043  0.94280  1.0000
  H   H687      1.0  0.35703  0.89206  0.60367  1.0000
  H   H688      1.0  0.37991  0.91149  0.96798  1.0000
  H   H689      1.0  0.40827  0.65043  0.88774  1.0000
  H   H690      1.0  0.38905  0.90950  0.59876  1.0000
  H   H691      1.0  0.36275  0.50865  0.73640  1.0000
  H   H692      1.0  0.63271  0.61433  0.73849  1.0000
  H   H693      1.0  0.39828  0.88338  0.97879  1.0000
  N   N37       1.0  0.40022  0.90282  0.93521  1.0000
  H   H694      1.0  0.65467  0.63154  0.73282  1.0000
  H   H695      1.0  0.54017  0.91001  0.94746  1.0000
  C   C592      1.0  0.64118  0.62772  0.72216  1.0000
  C   C593      1.0  0.49367  0.83831  0.52377  1.0000
  S   S169      1.0  0.39565  0.83318  0.51697  1.0000
  Fe  Fe81      1.0  0.57646  0.83412  0.52213  1.0000
  Fe  Fe82      1.0  0.34332  0.65772  0.78593  1.0000
  H   H696      1.0  0.61238  0.71377  0.86136  1.0000
  C   C594      1.0  0.61112  0.70242  0.88279  1.0000
  C   C595      1.0  0.39954  0.69316  0.95157  1.0000
  H   H697      1.0  0.35683  0.67652  0.92749  1.0000
  Fe  Fe83      1.0  0.41687  0.80876  0.99855  1.0000
  C   C596      1.0  0.60292  0.71298  0.93313  1.0000
  C   C597      1.0  0.66363  0.55067  0.79248  1.0000
  H   H698      1.0  0.42795  0.94679  0.55798  1.0000
  Fe  Fe84      1.0  0.41780  0.87434  0.51949  1.0000
  C   C598      1.0  0.42360  0.97137  0.54776  1.0000
  C   C599      1.0  0.52501  0.94097  0.99397  1.0000
  H   H699      1.0  0.63740  0.52619  0.79523  1.0000
  H   H700      1.0  0.38124  0.86633  0.95372  1.0000
  H   H701      1.0  0.55071  0.87240  0.96540  1.0000
  H   H702      1.0  0.46664  0.72109  0.51412  1.0000
  H   H703      1.0  0.66682  0.63397  0.68374  1.0000
  H   H704      1.0  0.35705  0.57172  0.75265  1.0000
  H   H705      1.0  0.65186  0.64565  0.84347  1.0000
  H   H706      1.0  0.36541  0.89747  0.52590  1.0000
  C   C600      1.0  0.41587  0.97024  0.51954  1.0000
  H   H707      1.0  0.39057  0.64979  0.84541  1.0000
  H   H708      1.0  0.60983  0.67123  0.96297  1.0000
  S   S170      1.0  0.66273  0.71534  0.69519  1.0000
  H   H709      1.0  0.38787  0.88225  0.56609  1.0000
  H   H710      1.0  0.65322  0.66413  0.88007  1.0000
  H   H711      1.0  0.39529  0.92447  0.89249  1.0000
  H   H712      1.0  0.63597  0.59152  0.85652  1.0000
  C   C601      1.0  0.35914  0.61391  0.88870  1.0000
  C   C602      1.0  0.62377  0.60359  0.68163  1.0000
  H   H713      1.0  0.37497  0.94086  0.52557  1.0000
  C   C603      1.0  0.61721  0.65687  0.91882  1.0000
  H   H714      1.0  0.34865  0.62354  0.90402  1.0000
  C   C604      1.0  0.51896  0.87597  0.98720  1.0000
  H   H715      1.0  0.36663  0.69368  0.85694  1.0000
  H   H716      1.0  0.35172  0.60023  0.87010  1.0000
  S   S171      1.0  0.34484  0.76033  0.76802  1.0000
  N   N38       1.0  0.37050  0.64354  0.87842  1.0000
  C   C605      1.0  0.60982  0.67938  0.94035  1.0000
  H   H717      1.0  0.62133  0.62583  0.82218  1.0000
  C   C606      1.0  0.38074  0.66003  0.90343  1.0000
  C   C607      1.0  0.37142  0.67598  0.92723  1.0000
  C   C608      1.0  0.39997  0.66131  0.90489  1.0000
  H   H718      1.0  0.64284  0.68946  0.85132  1.0000
  C   C609      1.0  0.40913  0.67769  0.92869  1.0000
  H   H719      1.0  0.35109  0.93639  0.53065  1.0000
  N   N39       1.0  0.64230  0.60604  0.69478  1.0000
  C   C610      1.0  0.36541  0.95969  0.58182  1.0000
  C   C611      1.0  0.35470  0.89651  0.57985  1.0000
  H   H720      1.0  0.35658  0.86959  0.56917  1.0000
  H   H721      1.0  0.61486  0.67101  0.82804  1.0000
  C   C612      1.0  0.61450  0.97409  0.51464  1.0000
  C   C613      1.0  0.60340  0.72429  0.90435  1.0000
  C   C614      1.0  0.38073  0.69237  0.95083  1.0000
  H   H722      1.0  0.61404  0.59236  0.69716  1.0000
  C   C615      1.0  0.66680  0.50404  0.71643  1.0000
  N   N40       1.0  0.43751  0.83059  0.65380  1.0000
  C   C616      1.0  0.45199  0.82125  0.67543  1.0000
  C   C617      1.0  0.42004  0.83034  0.66919  1.0000
  C   C618      1.0  0.43670  0.80211  0.63070  1.0000
  C   C619      1.0  0.44157  0.86546  0.64045  1.0000
  C   C620      1.0  0.45807  0.87021  0.62584  1.0000
  C   C621      1.0  0.42939  0.89522  0.64096  1.0000
  C   C622      1.0  0.46210  0.90243  0.61238  1.0000
  C   C623      1.0  0.43362  0.92748  0.62755  1.0000
  C   C624      1.0  0.44992  0.93104  0.61329  1.0000
  H   H723      1.0  0.45385  0.84313  0.69215  1.0000
  H   H724      1.0  0.44881  0.79618  0.68712  1.0000
  H   H725      1.0  0.46524  0.81639  0.66503  1.0000
  H   H726      1.0  0.41987  0.85035  0.68756  1.0000
  H   H727      1.0  0.41726  0.80364  0.67870  1.0000
  H   H728      1.0  0.40844  0.83583  0.65396  1.0000
  H   H729      1.0  0.44957  0.79929  0.61874  1.0000
  H   H730      1.0  0.43388  0.77535  0.63992  1.0000
  H   H731      1.0  0.42582  0.80787  0.61419  1.0000
  H   H732      1.0  0.46789  0.84870  0.62407  1.0000
  H   H733      1.0  0.41646  0.89419  0.65133  1.0000
  H   H734      1.0  0.47464  0.90491  0.60078  1.0000
  H   H735      1.0  0.42415  0.94983  0.62797  1.0000
  H   H736      1.0  0.45307  0.95592  0.60266  1.0000
  Fe  Fe85      1.0  0.61073  0.87893  0.51691  1.0000
  H   H737      1.0  0.38019  0.88897  0.90172  1.0000
  H   H738      1.0  0.42377  0.67930  0.92913  1.0000
  H   H739      1.0  0.63790  0.77497  0.70947  1.0000
  N   N41       1.0  0.36746  0.92333  0.56858  1.0000
  C   C625      1.0  0.35342  0.54981  0.76647  1.0000
  C   C626      1.0  0.38601  0.91000  0.57482  1.0000
  C   C627      1.0  0.55664  0.00018  0.51908  1.0000
  S   S172      1.0  0.58845  0.84071  0.99117  1.0000
  S   S173      1.0  0.54724  0.84521  0.50735  1.0000
  C   C628      1.0  0.38773  0.91272  0.91071  1.0000
  C   C629      1.0  0.53628  0.97149  0.99200  1.0000
  H   H740      1.0  0.45464  0.96161  0.96068  1.0000
  H   H741      1.0  0.37725  0.93242  0.91753  1.0000
  C   C630      1.0  0.38938  0.89047  0.95983  1.0000
  H   H742      1.0  0.64047  0.60608  0.89304  1.0000
  H   H743      1.0  0.66255  0.72811  0.88999  1.0000
  H   H744      1.0  0.37336  0.70529  0.96838  1.0000
  H   H745      1.0  0.55511  0.95348  0.56461  1.0000
  H   H746      1.0  0.40671  0.70677  0.96953  1.0000
  H   H747      1.0  0.55919  0.91338  0.54373  1.0000
  C   C631      1.0  0.41050  0.00250  0.50640  1.0000
  C   C632      1.0  0.40246  0.96712  0.95281  1.0000
  H   H748      1.0  0.64703  0.65087  0.66656  1.0000
  H   H749      1.0  0.34848  0.68240  0.87998  1.0000
  H   H750      1.0  0.57668  0.94609  0.54735  1.0000
  C   C633      1.0  0.52078  0.74747  0.51312  1.0000
  N   N42       1.0  0.62683  0.64566  0.86629  1.0000
  H   H751      1.0  0.59859  0.75098  0.89903  1.0000
  C   C634      1.0  0.50203  0.74588  0.50868  1.0000
  C   C635      1.0  0.61559  0.64460  0.83889  1.0000
  C   C636      1.0  0.61800  0.66773  0.88922  1.0000
  H   H752      1.0  0.34038  0.90459  0.57571  1.0000
  C   C637      1.0  0.36455  0.92467  0.53637  1.0000
  C   C638      1.0  0.64445  0.66191  0.85999  1.0000
  H   H753      1.0  0.52659  0.74660  0.53511  1.0000
  H   H754      1.0  0.48114  0.84480  0.51238  1.0000
  C   C639      1.0  0.35857  0.67090  0.86480  1.0000
  H   H755      1.0  0.40283  0.84945  0.91623  1.0000
  H   H756      1.0  0.61755  0.59468  0.88135  1.0000
  H   H757      1.0  0.35072  0.65953  0.84580  1.0000
  C   C640      1.0  0.43028  0.93305  0.94830  1.0000
  C   C641      1.0  0.41110  0.93426  0.94508  1.0000
  H   H758      1.0  0.53347  0.92097  0.51492  1.0000
  H   H759      1.0  0.52716  0.96303  0.53192  1.0000
  C   C642      1.0  0.64054  0.53815  0.70026  1.0000
  C   C643      1.0  0.56176  0.94284  0.54464  1.0000
  H   H760      1.0  0.59780  0.73088  0.95006  1.0000
  H   H761      1.0  0.46618  0.76964  0.51605  1.0000
  S   S174      1.0  0.65465  0.59521  0.79514  1.0000
  C   C644      1.0  0.63024  0.60788  0.87486  1.0000
  H   H762      1.0  0.62364  0.58690  0.66116  1.0000
  H   H763      1.0  0.37403  0.61659  0.83657  1.0000
  C   C645      1.0  0.54607  0.90069  0.96860  1.0000
  C   C646      1.0  0.35329  0.96756  0.60479  1.0000
  H   H764      1.0  0.39115  0.60675  0.86341  1.0000
  Fe  Fe86      1.0  0.66334  0.72814  0.81076  1.0000
  C   C647      1.0  0.51033  0.84512  0.51078  1.0000
  H   H765      1.0  0.51050  0.88145  0.96733  1.0000
  C   C648      1.0  0.65174  0.52132  0.79320  1.0000
  H   H766      1.0  0.65628  0.60863  0.65407  1.0000
  C   C649      1.0  0.50645  0.94757  0.99981  1.0000
  H   H767      1.0  0.38580  0.98450  0.55518  1.0000
  C   C650      1.0  0.37620  0.98840  0.57235  1.0000
  C   C651      1.0  0.65052  0.57070  0.70154  1.0000
  H   H768      1.0  0.62640  0.53726  0.69403  1.0000
  S   S175      1.0  0.33698  0.67834  0.74078  1.0000
  H   H769      1.0  0.55071  0.96871  0.98937  1.0000
  H   H770      1.0  0.52526  0.84893  0.98404  1.0000
  C   C652      1.0  0.41241  0.99721  0.96206  1.0000
  C   C653      1.0  0.43117  0.99530  0.96457  1.0000
  C   C654      1.0  0.64865  0.50542  0.70769  1.0000
  Fe  Fe87      1.0  0.61202  0.79803  0.50260  1.0000
  Fe  Fe88      1.0  0.66735  0.71110  0.74477  1.0000
  Fe  Fe89      1.0  0.84827  0.21989  0.31627  1.0000
  S   S176      1.0  0.82900  0.17375  0.30915  1.0000
  S   S177      1.0  0.85063  0.25284  0.35899  1.0000
  Fe  Fe90      1.0  0.85609  0.22473  0.25041  1.0000
  S   S178      1.0  0.83713  0.17924  0.23827  1.0000
  S   S179      1.0  0.87549  0.25978  0.22488  1.0000
  Fe  Fe91      1.0  0.81805  0.20478  0.27080  1.0000
  S   S180      1.0  0.78736  0.20466  0.26372  1.0000
  Fe  Fe92      1.0  0.84900  0.15073  0.27746  1.0000
  S   S181      1.0  0.86026  0.09322  0.27516  1.0000
  S   S182      1.0  0.83596  0.25226  0.27973  1.0000
  S   S183      1.0  0.86927  0.19466  0.28768  1.0000
  Fe  Fe93      1.0  0.91885  0.38960  0.04290  1.0000
  S   S184      1.0  0.92813  0.34701  0.07429  1.0000
  S   S185      1.0  0.92135  0.44634  0.06204  1.0000
  C   C655      1.0  0.96500  0.47466  0.02522  1.0000
  S   S186      1.0  0.91807  0.28828  0.02210  1.0000
  C   C656      1.0  0.92419  0.21408  0.12713  1.0000
  Fe  Fe94      1.0  0.90360  0.31611  0.05923  1.0000
  S   S187      1.0  0.88545  0.28120  0.08718  1.0000
  Fe  Fe95      1.0  0.94217  0.32208  0.03580  1.0000
  H   H771      1.0  0.77394  0.26617  0.38552  1.0000
  S   S188      1.0  0.89307  0.36060  0.03042  1.0000
  C   C657      1.0  0.90775  0.19622  0.11941  1.0000
  Fe  Fe96      1.0  0.69828  0.32192  0.29466  1.0000
  H   H772      1.0  0.94052  0.23193  0.16502  1.0000
  S   S189      1.0  0.72893  0.32175  0.30288  1.0000
  H   H773      1.0  0.72089  0.22756  0.23176  1.0000
  S   S190      1.0  0.67864  0.34771  0.32634  1.0000
  S   S191      1.0  0.91190  0.26494  0.45978  1.0000
  H   H774      1.0  0.87252  0.02277  0.25832  1.0000
  H   H775      1.0  0.69157  0.45884  0.29435  1.0000
  C   C658      1.0  0.91753  0.48693  0.04340  1.0000
  C   C659      1.0  0.99078  0.31341  0.03888  1.0000
  H   H776      1.0  0.93950  0.23387  0.05851  1.0000
  H   H777      1.0  0.70063  0.27436  0.16701  1.0000
  H   H778      1.0  0.79126  0.27385  0.33970  1.0000
  C   C660      1.0  0.99245  0.34925  0.03090  1.0000
  H   H779      1.0  0.74146  0.21012  0.16968  1.0000
  C   C661      1.0  0.75555  0.28338  0.21005  1.0000
  H   H780      1.0  0.76471  0.19560  0.35958  1.0000
  C   C662      1.0  0.69420  0.15536  0.43620  1.0000
  C   C663      1.0  0.77138  0.23795  0.27414  1.0000
  C   C664      1.0  0.77656  0.27251  0.28319  1.0000
  C   C665      1.0  0.76340  0.29782  0.29191  1.0000
  C   C666      1.0  0.74493  0.28900  0.29146  1.0000
  C   C667      1.0  0.73976  0.25442  0.28247  1.0000
  C   C668      1.0  0.75291  0.22912  0.27371  1.0000
  H   H781      1.0  0.79069  0.27983  0.28324  1.0000
  H   H782      1.0  0.76753  0.32454  0.29883  1.0000
  H   H783      1.0  0.72564  0.24712  0.28261  1.0000
  H   H784      1.0  0.74879  0.20241  0.26680  1.0000
  C   C669      1.0  0.84925  0.05077  0.27506  1.0000
  H   H785      1.0  0.90296  0.19300  0.09704  1.0000
  C   C670      1.0  0.83161  0.04666  0.28483  1.0000
  C   C671      1.0  0.93006  0.22223  0.07443  1.0000
  H   H786      1.0  0.82398  0.07004  0.29175  1.0000
  C   C672      1.0  0.87752  0.26631  0.18648  1.0000
  C   C673      1.0  0.86651  0.24854  0.16558  1.0000
  C   C674      1.0  0.86901  0.25386  0.13543  1.0000
  C   C675      1.0  0.88245  0.27710  0.12566  1.0000
  C   C676      1.0  0.89325  0.29536  0.14659  1.0000
  C   C677      1.0  0.89084  0.28984  0.17674  1.0000
  H   H787      1.0  0.85620  0.23039  0.17260  1.0000
  H   H788      1.0  0.86054  0.23963  0.11952  1.0000
  H   H789      1.0  0.90345  0.31376  0.13961  1.0000
  H   H790      1.0  0.89937  0.30394  0.19262  1.0000
  C   C678      1.0  0.86767  0.25483  0.38709  1.0000
  C   C679      1.0  0.88346  0.23407  0.38605  1.0000
  C   C680      1.0  0.89677  0.23739  0.40858  1.0000
  C   C681      1.0  0.89445  0.26136  0.43241  1.0000
  C   C682      1.0  0.87853  0.28172  0.43365  1.0000
  C   C683      1.0  0.86523  0.27844  0.41110  1.0000
  H   H791      1.0  0.88546  0.21543  0.36798  1.0000
  H   H792      1.0  0.90899  0.22137  0.40752  1.0000
  H   H793      1.0  0.87654  0.30018  0.45184  1.0000
  H   H794      1.0  0.85307  0.29460  0.41217  1.0000
  C   C684      1.0  0.77417  0.27682  0.20909  1.0000
  C   C685      1.0  0.74294  0.25963  0.19599  1.0000
  H   H795      1.0  0.71583  0.20883  0.19613  1.0000
  N   N43       1.0  0.72311  0.26512  0.19699  1.0000
  C   C686      1.0  0.89649  0.18312  0.14084  1.0000
  H   H796      1.0  0.95429  0.18352  0.10631  1.0000
  H   H797      1.0  0.98195  0.46922  0.06357  1.0000
  H   H798      1.0  0.69987  0.23766  0.21328  1.0000
  C   C687      1.0  0.71460  0.23342  0.21006  1.0000
  H   H799      1.0  0.80761  0.10352  0.36230  1.0000
  H   H800      1.0  0.92016  0.20959  0.20174  1.0000
  H   H801      1.0  0.75142  0.30674  0.22262  1.0000
  H   H802      1.0  0.71768  0.24531  0.15280  1.0000
  C   C688      1.0  0.71554  0.26950  0.16691  1.0000
  H   H803      1.0  0.72317  0.32240  0.20543  1.0000
  C   C689      1.0  0.78077  0.24646  0.19458  1.0000
  C   C690      1.0  0.92846  0.21807  0.15747  1.0000
  H   H804      1.0  0.79518  0.24083  0.19488  1.0000
  H   H805      1.0  0.77680  0.20031  0.32596  1.0000
  C   C691      1.0  0.81029  0.13069  0.37011  1.0000
  C   C692      1.0  0.82992  0.17297  0.39547  1.0000
  H   H806      1.0  0.94321  0.27625  0.13146  1.0000
  H   H807      1.0  0.83575  0.11662  0.39073  1.0000
  H   H808      1.0  0.80435  0.23696  0.32536  1.0000
  S   S192      1.0  0.68744  0.35225  0.25580  1.0000
  C   C693      1.0  0.91697  0.20525  0.17869  1.0000
  S   S193      1.0  0.96926  0.29336  0.04350  1.0000
  H   H809      1.0  0.76463  0.23740  0.34092  1.0000
  H   H810      1.0  0.77404  0.19902  0.16945  1.0000
  C   C694      1.0  0.68243  0.48153  0.29269  1.0000
  C   C695      1.0  0.82617  0.13799  0.38607  1.0000
  C   C696      1.0  0.76881  0.22284  0.18041  1.0000
  H   H811      1.0  0.89190  0.17878  0.18690  1.0000
  H   H812      1.0  0.84249  0.17888  0.40730  1.0000
  C   C697      1.0  0.90103  0.18778  0.17038  1.0000
  H   H813      1.0  0.78354  0.29472  0.22056  1.0000
  C   C698      1.0  0.93754  0.26842  0.10960  1.0000
  H   H814      1.0  0.88377  0.17051  0.13452  1.0000
  H   H815      1.0  0.96123  0.22035  0.12990  1.0000
  C   C699      1.0  0.91170  0.48752  0.01409  1.0000
  C   C700      1.0  0.87534  0.48305  0.06672  1.0000
  H   H816      1.0  0.96314  0.44595  0.02217  1.0000
  C   C701      1.0  0.67022  0.47207  0.21689  1.0000
  H   H817      1.0  0.91662  0.23495  0.06998  1.0000
  H   H818      1.0  0.87660  0.01622  0.35280  1.0000
  H   H819      1.0  0.94640  0.28072  0.09324  1.0000
  H   H820      1.0  0.89851  0.04393  0.38687  1.0000
  H   H821      1.0  0.79519  0.25722  0.40308  1.0000
  H   H822      1.0  0.77710  0.22561  0.40585  1.0000
  H   H823      1.0  0.96392  0.22337  0.09147  1.0000
  N   N44       1.0  0.93631  0.22903  0.10516  1.0000
  H   H824      1.0  0.92392  0.28107  0.10741  1.0000
  N   N45       1.0  0.89207  0.30818  0.31189  1.0000
  C   C702      1.0  0.90458  0.32541  0.29166  1.0000
  C   C703      1.0  0.89407  0.26870  0.30874  1.0000
  C   C704      1.0  0.87331  0.31739  0.30220  1.0000
  C   C705      1.0  0.89653  0.31967  0.34243  1.0000
  C   C706      1.0  0.91364  0.31107  0.35533  1.0000
  C   C707      1.0  0.88431  0.33955  0.36013  1.0000
  C   C708      1.0  0.91806  0.32097  0.38428  1.0000
  C   C709      1.0  0.88901  0.34985  0.38890  1.0000
  C   C710      1.0  0.90579  0.34037  0.40100  1.0000
  H   H825      1.0  0.91888  0.31731  0.29585  1.0000
  H   H826      1.0  0.90129  0.31791  0.26837  1.0000
  H   H827      1.0  0.90381  0.35519  0.29382  1.0000
  H   H828      1.0  0.90808  0.25916  0.31324  1.0000
  H   H829      1.0  0.89053  0.25923  0.28607  1.0000
  H   H830      1.0  0.88508  0.25484  0.32403  1.0000
  H   H831      1.0  0.87098  0.34690  0.30232  1.0000
  H   H832      1.0  0.87030  0.30758  0.27938  1.0000
  H   H833      1.0  0.86317  0.30465  0.31626  1.0000
  H   H834      1.0  0.92367  0.29610  0.34332  1.0000
  H   H835      1.0  0.87088  0.34683  0.35254  1.0000
  H   H836      1.0  0.93091  0.31295  0.39413  1.0000
  H   H837      1.0  0.87939  0.36430  0.40229  1.0000
  H   H838      1.0  0.90912  0.34723  0.42367  1.0000
  H   H839      1.0  0.72184  0.29265  0.15611  1.0000
  H   H840      1.0  0.88088  0.49419  0.11218  1.0000
  C   C711      1.0  0.95470  0.21331  0.10845  1.0000
  C   C712      1.0  0.75018  0.22935  0.18087  1.0000
  H   H841      1.0  0.72226  0.29533  0.23779  1.0000
  H   H842      1.0  0.70280  0.30070  0.21456  1.0000
  C   C713      1.0  0.71774  0.29729  0.21448  1.0000
  H   H843      1.0  0.82165  0.22756  0.39606  1.0000
  S   S194      1.0  0.68093  0.27354  0.28564  1.0000
  N   N46       1.0  0.78973  0.22497  0.36401  1.0000
  C   C714      1.0  0.78375  0.24427  0.39080  1.0000
  C   C715      1.0  0.79976  0.25034  0.34591  1.0000
  C   C716      1.0  0.77325  0.21390  0.34699  1.0000
  C   C717      1.0  0.80173  0.19455  0.37208  1.0000
  C   C718      1.0  0.79817  0.15842  0.36313  1.0000
  C   C719      1.0  0.81785  0.20079  0.38883  1.0000
  H   H844      1.0  0.81197  0.26133  0.35741  1.0000
  H   H845      1.0  0.78644  0.15094  0.34995  1.0000
  H   H846      1.0  0.92914  0.19303  0.06921  1.0000
  H   H847      1.0  0.71429  0.12503  0.45994  1.0000
  H   H848      1.0  0.87918  0.45496  0.06813  1.0000
  H   H849      1.0  0.81036  0.00927  0.29397  1.0000
  C   C720      1.0  0.68766  0.11717  0.47680  1.0000
  H   H850      1.0  0.69286  0.09951  0.49350  1.0000
  H   H851      1.0  0.67094  0.44373  0.22184  1.0000
  H   H852      1.0  0.70382  0.16690  0.42161  1.0000
  C   C721      1.0  0.70005  0.13179  0.45779  1.0000
  C   C722      1.0  0.87014  0.49723  0.03985  1.0000
  C   C723      1.0  0.97549  0.48789  0.04866  1.0000
  C   C724      1.0  0.85892  0.01994  0.26612  1.0000
  C   C725      1.0  0.89436  0.01644  0.39010  1.0000
  H   H853      1.0  0.86995  0.47993  0.02049  1.0000
  H   H854      1.0  0.98042  0.36538  0.02727  1.0000
  C   C726      1.0  0.82393  0.01211  0.28606  1.0000
  S   S195      1.0  0.93607  0.34598  0.49871  1.0000
  H   H855      1.0  0.69790  0.48178  0.22943  1.0000
  C   C727      1.0  0.67595  0.16436  0.43352  1.0000
  H   H856      1.0  0.91151  0.00976  0.42828  1.0000
  S   S196      1.0  0.91153  0.43720  0.49932  1.0000
  S   S197      1.0  0.93463  0.36674  0.00533  1.0000
  Fe  Fe97      1.0  0.91451  0.30348  0.49927  1.0000
  H   H857      1.0  0.67141  0.18314  0.41697  1.0000
  C   C728      1.0  0.68540  0.49360  0.22116  1.0000
  C   C729      1.0  0.95647  0.49839  0.00615  1.0000
  C   C730      1.0  0.66893  0.12554  0.47457  1.0000
  Fe  Fe98      1.0  0.66873  0.30524  0.24851  1.0000
  Fe  Fe99      1.0  0.85592  0.20808  0.81354  1.0000
  S   S198      1.0  0.82700  0.18969  0.80891  1.0000
  S   S199      1.0  0.86729  0.20914  0.86078  1.0000
  Fe  Fe100     1.0  0.85977  0.21020  0.74625  1.0000
  S   S200      1.0  0.83111  0.19189  0.73777  1.0000
  S   S201      1.0  0.88033  0.21642  0.70990  1.0000
  Fe  Fe101     1.0  0.82399  0.23089  0.77407  1.0000
  S   S202      1.0  0.80199  0.27392  0.77041  1.0000
  Fe  Fe102     1.0  0.83660  0.15173  0.77341  1.0000
  S   S203      1.0  0.82475  0.09484  0.77213  1.0000
  S   S204      1.0  0.85247  0.25177  0.78059  1.0000
  S   S205      1.0  0.86566  0.16755  0.77996  1.0000
  Fe  Fe103     1.0  0.91542  0.38225  0.51954  1.0000
  S   S206      1.0  0.92407  0.36870  0.56535  1.0000
  H   H858      1.0  0.87460  0.09944  0.81564  1.0000
  H   H859      1.0  0.90509  0.28097  0.73737  1.0000
  S   S207      1.0  0.92334  0.28373  0.54398  1.0000
  C   C731      1.0  0.93058  0.27058  0.71705  1.0000
  Fe  Fe104     1.0  0.90357  0.32411  0.56205  1.0000
  S   S208      1.0  0.88358  0.31960  0.59960  1.0000
  Fe  Fe105     1.0  0.94331  0.32938  0.54436  1.0000
  S   S209      1.0  0.97126  0.32702  0.56656  1.0000
  S   S210      1.0  0.89333  0.34080  0.51717  1.0000
  H   H860      1.0  0.71216  0.21970  0.88604  1.0000
  Fe  Fe106     1.0  0.69662  0.30365  0.79580  1.0000
  S   S211      1.0  0.89838  0.33356  0.94674  1.0000
  S   S212      1.0  0.71998  0.26689  0.80982  1.0000
  H   H861      1.0  0.83515  0.10746  0.86483  1.0000
  H   H862      1.0  0.67217  0.27639  0.87085  1.0000
  C   C732      1.0  0.82418  0.02080  0.77308  1.0000
  C   C733      1.0  0.76769  0.21137  0.72614  1.0000
  C   C734      1.0  0.91027  0.48023  0.51652  1.0000
  H   H863      1.0  0.88794  0.43021  0.58468  1.0000
  N   N47       1.0  0.94654  0.30813  0.64484  1.0000
  C   C735      1.0  0.67672  0.47870  0.78832  1.0000
  H   H864      1.0  0.91140  0.46195  0.56083  1.0000
  C   C736      1.0  0.93586  0.30175  0.67119  1.0000
  H   H865      1.0  0.88416  0.38477  0.57260  1.0000
  H   H866      1.0  0.93555  0.36073  0.63478  1.0000
  N   N48       1.0  0.86162  0.42045  0.56536  1.0000
  S   S213      1.0  0.68582  0.43440  0.78425  1.0000
  H   H867      1.0  0.95419  0.26306  0.69256  1.0000
  C   C737      1.0  0.77932  0.27142  0.78189  1.0000
  C   C738      1.0  0.77284  0.24175  0.79656  1.0000
  C   C739      1.0  0.75464  0.24083  0.80496  1.0000
  C   C740      1.0  0.74274  0.26943  0.79872  1.0000
  C   C741      1.0  0.74925  0.29915  0.78416  1.0000
  C   C742      1.0  0.76746  0.30014  0.77589  1.0000
  H   H868      1.0  0.78178  0.21939  0.80120  1.0000
  H   H869      1.0  0.74973  0.21770  0.81619  1.0000
  H   H870      1.0  0.74031  0.32152  0.77951  1.0000
  H   H871      1.0  0.77238  0.32328  0.76464  1.0000
  C   C743      1.0  0.83519  0.05149  0.77256  1.0000
  C   C744      1.0  0.87740  0.03441  0.86286  1.0000
  C   C745      1.0  0.85398  0.04679  0.77289  1.0000
  H   H872      1.0  0.83357  0.05240  0.84160  1.0000
  H   H873      1.0  0.86264  0.06995  0.77198  1.0000
  C   C746      1.0  0.87980  0.24360  0.67818  1.0000
  C   C747      1.0  0.86796  0.27282  0.67506  1.0000
  C   C748      1.0  0.86915  0.29539  0.65070  1.0000
  C   C749      1.0  0.88197  0.28883  0.62890  1.0000
  C   C750      1.0  0.89329  0.25878  0.63144  1.0000
  C   C751      1.0  0.89240  0.23671  0.65611  1.0000
  H   H874      1.0  0.85820  0.27853  0.69178  1.0000
  H   H875      1.0  0.86017  0.31829  0.64892  1.0000
  H   H876      1.0  0.90269  0.25243  0.61438  1.0000
  H   H877      1.0  0.90153  0.21406  0.65814  1.0000
  C   C752      1.0  0.87653  0.24396  0.88392  1.0000
  C   C753      1.0  0.88111  0.23626  0.91322  1.0000
  C   C754      1.0  0.88817  0.26301  0.93259  1.0000
  C   C755      1.0  0.89064  0.29800  0.92292  1.0000
  C   C756      1.0  0.88615  0.30562  0.89355  1.0000
  C   C757      1.0  0.87923  0.27880  0.87413  1.0000
  H   H878      1.0  0.87916  0.20945  0.92111  1.0000
  H   H879      1.0  0.89149  0.25669  0.95507  1.0000
  H   H880      1.0  0.88800  0.33255  0.88581  1.0000
  H   H881      1.0  0.87609  0.28509  0.85162  1.0000
  N   N49       1.0  0.82325  0.30903  0.85397  1.0000
  C   C758      1.0  0.83439  0.32063  0.82935  1.0000
  C   C759      1.0  0.82090  0.26959  0.85083  1.0000
  C   C760      1.0  0.80507  0.32583  0.85105  1.0000
  C   C761      1.0  0.83200  0.32031  0.88214  1.0000
  C   C762      1.0  0.83746  0.29555  0.90400  1.0000
  C   C763      1.0  0.83557  0.35715  0.88819  1.0000
  C   C764      1.0  0.84609  0.30718  0.93000  1.0000
  C   C765      1.0  0.84446  0.36837  0.91411  1.0000
  C   C766      1.0  0.84978  0.34340  0.93490  1.0000
  H   H882      1.0  0.83552  0.35025  0.82829  1.0000
  H   H883      1.0  0.84835  0.30945  0.83125  1.0000
  H   H884      1.0  0.82852  0.31154  0.80780  1.0000
  H   H885      1.0  0.81218  0.25898  0.86810  1.0000
  H   H886      1.0  0.83418  0.25529  0.85161  1.0000
  H   H887      1.0  0.81422  0.26206  0.82954  1.0000
  H   H888      1.0  0.80570  0.35557  0.85051  1.0000
  H   H889      1.0  0.79795  0.31702  0.83035  1.0000
  H   H890      1.0  0.79641  0.31854  0.86957  1.0000
  H   H891      1.0  0.83578  0.26691  0.90129  1.0000
  H   H892      1.0  0.83183  0.37752  0.87267  1.0000
  H   H893      1.0  0.85071  0.28783  0.94599  1.0000
  H   H894      1.0  0.84759  0.39647  0.91792  1.0000
  H   H895      1.0  0.85724  0.35194  0.95453  1.0000
  H   H896      1.0  0.69638  0.23673  0.68060  1.0000
  C   C767      1.0  0.67157  0.20723  0.85129  1.0000
  C   C768      1.0  0.75140  0.23032  0.72275  1.0000
  C   C769      1.0  0.85196  0.48386  0.58027  1.0000
  N   N50       1.0  0.86346  0.09590  0.85844  1.0000
  H   H897      1.0  0.70075  0.19119  0.73470  1.0000
  C   C770      1.0  0.91383  0.28747  0.71954  1.0000
  C   C771      1.0  0.94154  0.27756  0.69333  1.0000
  C   C772      1.0  0.85364  0.40898  0.59316  1.0000
  C   C773      1.0  0.94859  0.34725  0.64034  1.0000
  H   H898      1.0  0.87614  0.00878  0.77497  1.0000
  H   H899      1.0  0.68903  0.26640  0.84464  1.0000
  H   H900      1.0  0.83884  0.41451  0.59338  1.0000
  H   H901      1.0  0.69573  0.27623  0.88131  1.0000
  C   C774      1.0  0.73467  0.21212  0.71843  1.0000
  C   C775      1.0  0.76784  0.17403  0.72580  1.0000
  H   H902      1.0  0.67437  0.11468  0.53306  1.0000
  C   C776      1.0  0.84585  0.03828  0.84772  1.0000
  Fe  Fe107     1.0  0.67672  0.37543  0.78562  1.0000
  C   C777      1.0  0.68107  0.23175  0.95708  1.0000
  S   S214      1.0  0.68159  0.34153  0.82578  1.0000
  H   H903      1.0  0.87043  0.45635  0.51567  1.0000
  S   S215      1.0  0.69357  0.33883  0.75690  1.0000
  H   H904      1.0  0.97287  0.29866  0.62650  1.0000
  H   H905      1.0  0.93452  0.26296  0.62204  1.0000
  H   H906      1.0  0.96458  0.26232  0.64662  1.0000
  C   C778      1.0  0.93689  0.29211  0.61908  1.0000
  H   H907      1.0  0.95754  0.35276  0.62171  1.0000
  H   H908      1.0  0.97286  0.30245  0.66563  1.0000
  C   C779      1.0  0.96500  0.29215  0.64621  1.0000
  H   H909      1.0  0.94473  0.29478  0.59884  1.0000
  H   H910      1.0  0.93484  0.25129  0.73329  1.0000
  H   H911      1.0  0.92351  0.30508  0.61491  1.0000
  H   H912      1.0  0.68822  0.24517  0.97510  1.0000
  H   H913      1.0  0.95452  0.36078  0.66022  1.0000
  C   C780      1.0  0.90797  0.31156  0.69843  1.0000
  H   H914      1.0  0.85555  0.37959  0.59655  1.0000
  C   C781      1.0  0.99202  0.32454  0.54802  1.0000
  H   H915      1.0  0.88804  0.41840  0.54643  1.0000
  H   H916      1.0  0.98024  0.32454  0.50453  1.0000
  H   H917      1.0  0.78030  0.22579  0.72950  1.0000
  H   H918      1.0  0.89129  0.09829  0.84473  1.0000
  N   N51       1.0  0.71717  0.23115  0.71419  1.0000
  H   H919      1.0  0.91297  0.33553  0.65775  1.0000
  C   C782      1.0  0.88128  0.41318  0.56735  1.0000
  C   C783      1.0  0.86849  0.10719  0.88884  1.0000
  C   C784      1.0  0.91866  0.31834  0.67440  1.0000
  C   C785      1.0  0.67738  0.21906  0.90431  1.0000
  C   C786      1.0  0.85881  0.45898  0.55922  1.0000
  H   H920      1.0  0.72767  0.28154  0.69954  1.0000
  H   H921      1.0  0.87857  0.13822  0.83888  1.0000
  C   C787      1.0  0.98087  0.45931  0.54180  1.0000
  C   C788      1.0  0.84636  0.11473  0.85034  1.0000
  H   H922      1.0  0.83904  0.40428  0.53772  1.0000
  H   H923      1.0  0.75235  0.25921  0.72395  1.0000
  H   H924      1.0  0.84779  0.14437  0.85226  1.0000
  H   H925      1.0  0.86913  0.13703  0.89125  1.0000
  C   C789      1.0  0.86209  0.05628  0.85636  1.0000
  C   C790      1.0  0.87760  0.10838  0.83860  1.0000
  C   C791      1.0  0.85360  0.39772  0.54141  1.0000
  H   H926      1.0  0.67294  0.47875  0.72284  1.0000
  C   C792      1.0  0.70429  0.22003  0.73661  1.0000
  H   H927      1.0  0.70696  0.20895  0.84869  1.0000
  H   H928      1.0  0.70998  0.22509  0.75906  1.0000
  C   C793      1.0  0.70185  0.20669  0.87132  1.0000
  H   H929      1.0  0.88201  0.09691  0.89581  1.0000
  C   C794      1.0  0.90957  0.48477  0.54691  1.0000
  H   H930      1.0  0.69125  0.23507  0.73470  1.0000
  H   H931      1.0  0.84220  0.10871  0.82722  1.0000
  C   C795      1.0  0.70936  0.22205  0.68481  1.0000
  H   H932      1.0  0.72378  0.27967  0.73850  1.0000
  H   H933      1.0  0.70622  0.19304  0.68221  1.0000
  H   H934      1.0  0.85846  0.09745  0.90457  1.0000
  H   H935      1.0  0.72322  0.15832  0.71451  1.0000
  C   C796      1.0  0.75170  0.15536  0.72163  1.0000
  H   H936      1.0  0.70532  0.28426  0.71296  1.0000
  C   C797      1.0  0.71869  0.27084  0.71641  1.0000
  H   H937      1.0  0.89020  0.04613  0.86957  1.0000
  Fe  Fe108     1.0  0.90930  0.33460  0.99433  1.0000
  H   H938      1.0  0.89468  0.32376  0.70000  1.0000
  H   H939      1.0  0.80963  0.02402  0.77275  1.0000
  C   C798      1.0  0.86424  0.47316  0.53223  1.0000
  C   C799      1.0  0.73535  0.17400  0.71784  1.0000
  H   H940      1.0  0.75190  0.12625  0.72140  1.0000
  C   C800      1.0  0.99267  0.32396  0.51748  1.0000
  H   H941      1.0  0.71882  0.22919  0.66732  1.0000
  H   H942      1.0  0.78051  0.15959  0.72890  1.0000
  H   H943      1.0  0.85474  0.36858  0.54637  1.0000
  H   H944      1.0  0.86029  0.42235  0.61253  1.0000
  H   H945      1.0  0.67648  0.21193  0.82886  1.0000
  C   C801      1.0  0.68524  0.26226  0.86766  1.0000
  C   C802      1.0  0.98852  0.42525  0.53875  1.0000
  H   H946      1.0  0.86056  0.40083  0.52035  1.0000
  C   C803      1.0  0.68686  0.23541  0.92841  1.0000
  H   H947      1.0  0.97989  0.40174  0.53825  1.0000
  N   N52       1.0  0.68376  0.22357  0.87414  1.0000
  H   H948      1.0  0.70148  0.17772  0.87672  1.0000
  C   C804      1.0  0.86160  0.01196  0.77429  1.0000
  H   H949      1.0  0.69875  0.25140  0.92524  1.0000
  H   H950      1.0  0.94803  0.48789  0.98826  1.0000
  H   H951      1.0  0.67062  0.17765  0.85352  1.0000
  S   S216      1.0  0.67177  0.27230  0.78332  1.0000
  H   H952      1.0  0.84776  0.47585  0.60158  1.0000
  H   H953      1.0  0.96632  0.46229  0.54350  1.0000
  C   C805      1.0  0.99192  0.48947  0.54249  1.0000
  H   H954      1.0  0.67069  0.06027  0.50222  1.0000
  H   H955      1.0  0.90961  0.46253  0.00206  1.0000
  Fe  Fe109     1.0  0.83446  0.88031  0.27742  1.0000
  S   S217      1.0  0.86274  0.86064  0.28710  1.0000
  S   S218      1.0  0.82367  0.93818  0.28142  1.0000
  Fe  Fe110     1.0  0.81970  0.80287  0.27267  1.0000
  S   S219      1.0  0.84721  0.77832  0.28193  1.0000
  S   S220      1.0  0.79676  0.76294  0.26382  1.0000
  Fe  Fe111     1.0  0.85040  0.82098  0.31729  1.0000
  S   S221      1.0  0.85708  0.81764  0.36657  1.0000
  Fe  Fe112     1.0  0.85730  0.81939  0.25073  1.0000
  S   S222      1.0  0.87951  0.80917  0.21737  1.0000
  S   S223      1.0  0.82225  0.84292  0.30963  1.0000
  S   S224      1.0  0.82963  0.84156  0.23937  1.0000
  Fe  Fe113     1.0  0.93933  0.70072  0.04439  1.0000
  C   C806      1.0  0.68430  0.53055  0.21656  1.0000
  S   S225      1.0  0.96798  0.70227  0.06383  1.0000
  Fe  Fe114     1.0  0.89990  0.70485  0.06456  1.0000
  S   S226      1.0  0.88909  0.69106  0.01904  1.0000
  S   S227      1.0  0.87914  0.71020  0.10083  1.0000
  Fe  Fe115     1.0  0.91141  0.64968  0.01781  1.0000
  H   H956      1.0  0.96107  0.64819  0.47107  1.0000
  C   C807      1.0  0.99667  0.66411  0.45583  1.0000
  S   S228      1.0  0.90495  0.71172  0.44628  1.0000
  S   S229      1.0  0.92079  0.66055  0.06404  1.0000
  S   S230      1.0  0.91909  0.74585  0.04846  1.0000
  Fe  Fe116     1.0  0.69266  0.72515  0.29088  1.0000
  H   H957      1.0  0.72562  0.83961  0.24423  1.0000
  S   S231      1.0  0.71423  0.76727  0.30178  1.0000
  C   C808      1.0  0.95904  0.61132  0.02045  1.0000
  S   S232      1.0  0.69087  0.68111  0.25681  1.0000
  S   S233      1.0  0.68046  0.69154  0.32562  1.0000
  H   H958      1.0  0.69930  0.80913  0.25148  1.0000
  C   C809      1.0  0.86609  0.53380  0.03752  1.0000
  H   H959      1.0  0.86108  0.93395  0.30763  1.0000
  C   C810      1.0  0.98863  0.70695  0.04548  1.0000
  H   H960      1.0  0.70854  0.73346  0.19979  1.0000
  C   C811      1.0  0.85727  0.91123  0.36107  1.0000
  C   C812      1.0  0.87217  0.54182  0.08952  1.0000
  N   N53       1.0  0.86301  0.59623  0.06086  1.0000
  C   C813      1.0  0.77402  0.76442  0.27538  1.0000
  C   C814      1.0  0.76741  0.79223  0.29321  1.0000
  C   C815      1.0  0.74911  0.79256  0.30123  1.0000
  C   C816      1.0  0.73727  0.76505  0.29172  1.0000
  C   C817      1.0  0.74395  0.73703  0.27422  1.0000
  C   C818      1.0  0.76222  0.73678  0.26610  1.0000
  H   H961      1.0  0.77632  0.81370  0.30045  1.0000
  H   H962      1.0  0.74408  0.81439  0.31475  1.0000
  H   H963      1.0  0.73507  0.71557  0.26686  1.0000
  H   H964      1.0  0.76721  0.71515  0.25232  1.0000
  C   C819      1.0  0.87029  0.78740  0.38819  1.0000
  C   C820      1.0  0.88104  0.76035  0.37581  1.0000
  C   C821      1.0  0.89162  0.73776  0.39395  1.0000
  C   C822      1.0  0.89148  0.74158  0.42467  1.0000
  C   C823      1.0  0.88063  0.76845  0.43705  1.0000
  C   C824      1.0  0.87017  0.79124  0.41890  1.0000
  H   H965      1.0  0.88135  0.75704  0.35228  1.0000
  H   H966      1.0  0.89990  0.71703  0.38408  1.0000
  H   H967      1.0  0.88031  0.77174  0.46059  1.0000
  H   H968      1.0  0.86191  0.81201  0.42876  1.0000
  C   C825      1.0  0.87943  0.73873  0.13269  1.0000
  C   C826      1.0  0.86442  0.73887  0.15107  1.0000
  C   C827      1.0  0.86411  0.76047  0.17681  1.0000
  C   C828      1.0  0.87891  0.78213  0.18466  1.0000
  C   C829      1.0  0.89391  0.78206  0.16623  1.0000
  C   C830      1.0  0.89417  0.76064  0.14037  1.0000
  H   H969      1.0  0.85293  0.72213  0.14540  1.0000
  H   H970      1.0  0.85248  0.76018  0.19067  1.0000
  H   H971      1.0  0.90544  0.79863  0.17209  1.0000
  H   H972      1.0  0.90583  0.76084  0.12657  1.0000
  C   C831      1.0  0.91689  0.55256  0.04511  1.0000
  N   N54       1.0  0.96978  0.58897  0.04115  1.0000
  C   C832      1.0  0.69519  0.81369  0.22822  1.0000
  H   H973      1.0  0.91884  0.57736  0.05730  1.0000
  C   C833      1.0  0.98611  0.69434  0.44722  1.0000
  C   C834      1.0  0.85111  0.98550  0.26682  1.0000
  C   C835      1.0  0.83366  0.98125  0.27732  1.0000
  H   H974      1.0  0.85181  0.60141  0.10407  1.0000
  H   H975      1.0  0.85865  0.96225  0.25935  1.0000
  H   H976      1.0  0.83515  0.95731  0.33880  1.0000
  C   C836      1.0  0.69862  0.79663  0.17785  1.0000
  H   H977      1.0  0.96655  0.86813  0.01624  1.0000
  H   H978      1.0  0.96044  0.64046  0.02581  1.0000
  H   H979      1.0  0.68750  0.76612  0.35295  1.0000
  C   C837      1.0  0.76353  0.80865  0.21273  1.0000
  H   H980      1.0  0.69057  0.77038  0.39164  1.0000
  H   H981      1.0  0.83573  0.59044  0.07521  1.0000
  H   H982      1.0  0.88322  0.92897  0.32407  1.0000
  C   C838      1.0  0.91310  0.83991  0.04644  1.0000
  N   N55       1.0  0.96616  0.69313  0.44340  1.0000
  C   C839      1.0  0.95776  0.71848  0.46451  1.0000
  C   C840      1.0  0.96076  0.70379  0.41332  1.0000
  C   C841      1.0  0.95839  0.65711  0.44822  1.0000
  H   H983      1.0  0.70003  0.82376  0.34721  1.0000
  H   H984      1.0  0.73251  0.75759  0.17622  1.0000
  H   H985      1.0  0.86866  0.60328  0.01523  1.0000
  H   H986      1.0  0.68045  0.80763  0.22640  1.0000
  H   H987      1.0  0.89085  0.60945  0.05594  1.0000
  H   H988      1.0  0.97537  0.77920  0.05151  1.0000
  H   H989      1.0  0.96183  0.74671  0.46128  1.0000
  H   H990      1.0  0.94273  0.71796  0.46255  1.0000
  H   H991      1.0  0.87706  0.64606  0.06847  1.0000
  C   C842      1.0  0.96832  0.54992  0.03486  1.0000
  H   H992      1.0  0.94580  0.70211  0.40963  1.0000
  C   C843      1.0  0.97712  0.80324  0.03779  1.0000
  H   H993      1.0  0.84705  0.90003  0.34510  1.0000
  H   H994      1.0  0.94339  0.65714  0.44495  1.0000
  C   C844      1.0  0.90871  0.51058  0.49885  1.0000
  C   C845      1.0  0.96330  0.59726  0.07102  1.0000
  H   H995      1.0  0.88361  0.61193  0.09314  1.0000
  H   H996      1.0  0.92460  0.51927  0.08148  1.0000
  C   C846      1.0  0.73750  0.77792  0.19147  1.0000
  H   H997      1.0  0.70465  0.77799  0.16148  1.0000
  N   N56       1.0  0.81800  0.71914  0.34690  1.0000
  C   C847      1.0  0.79917  0.70824  0.35254  1.0000
  C   C848      1.0  0.81834  0.75856  0.34329  1.0000
  C   C849      1.0  0.82320  0.70222  0.31859  1.0000
  C   C850      1.0  0.83010  0.70928  0.37182  1.0000
  C   C851      1.0  0.84540  0.68629  0.36868  1.0000
  C   C852      1.0  0.82697  0.72355  0.40029  1.0000
  C   C853      1.0  0.85675  0.67832  0.39263  1.0000
  C   C854      1.0  0.83846  0.71551  0.42403  1.0000
  C   C855      1.0  0.85331  0.69291  0.42021  1.0000
  H   H998      1.0  0.79840  0.67887  0.35630  1.0000
  H   H999      1.0  0.79355  0.72236  0.37194  1.0000
  H   H1000     1.0  0.78987  0.71457  0.33371  1.0000
  H   H1001     1.0  0.81305  0.77363  0.36247  1.0000
  H   H1002     1.0  0.81001  0.76701  0.32398  1.0000
  H   H1003     1.0  0.83240  0.76791  0.34030  1.0000
  H   H1004     1.0  0.82272  0.67243  0.31933  1.0000
  H   H1005     1.0  0.81389  0.71029  0.30029  1.0000
  H   H1006     1.0  0.83696  0.71059  0.31223  1.0000
  H   H1007     1.0  0.84913  0.67458  0.34790  1.0000
  H   H1008     1.0  0.81581  0.74167  0.40430  1.0000
  H   H1009     1.0  0.86862  0.66149  0.38975  1.0000
  H   H1010     1.0  0.83611  0.72743  0.44543  1.0000
  H   H1011     1.0  0.86247  0.68741  0.43850  1.0000
  N   N57       1.0  0.86279  0.94808  0.35339  1.0000
  H   H1012     1.0  0.84090  0.97628  0.37410  1.0000
  C   C856      1.0  0.75218  0.82898  0.23048  1.0000
  H   H1013     1.0  0.84517  0.59438  0.02277  1.0000
  C   C857      1.0  0.87608  0.96440  0.37430  1.0000
  H   H1014     1.0  0.94434  0.60515  0.02120  1.0000
  C   C858      1.0  0.88395  0.94541  0.39815  1.0000
  H   H1015     1.0  0.95839  0.81101  0.08338  1.0000
  Fe  Fe117     1.0  0.90938  0.70324  0.49567  1.0000
  H   H1016     1.0  0.99074  0.63856  0.46057  1.0000
  H   H1017     1.0  0.96444  0.73194  0.40878  1.0000
  H   H1018     1.0  0.90240  0.94682  0.43539  1.0000
  H   H1019     1.0  0.70861  0.74714  0.23764  1.0000
  H   H1020     1.0  0.69041  0.86346  0.36314  1.0000
  H   H1021     1.0  0.77808  0.81207  0.21459  1.0000
  H   H1022     1.0  0.97201  0.58521  0.08837  1.0000
  H   H1023     1.0  0.93242  0.82450  0.11302  1.0000
  H   H1024     1.0  0.94935  0.58712  0.07372  1.0000
  H   H1025     1.0  0.70362  0.52102  0.29741  1.0000
  H   H1026     1.0  0.98828  0.79627  0.02270  1.0000
  H   H1027     1.0  0.88067  0.91781  0.40237  1.0000
  C   C859      1.0  0.98893  0.60020  0.03956  1.0000
  C   C860      1.0  0.72553  0.79787  0.20949  1.0000
  H   H1028     1.0  0.90011  0.84680  0.03647  1.0000
  H   H1029     1.0  0.86888  0.89205  0.36064  1.0000
  S   S234      1.0  0.68725  0.59085  0.29306  1.0000
  C   C861      1.0  0.67763  0.54692  0.29204  1.0000
  H   H1030     1.0  0.75805  0.84825  0.24600  1.0000
  C   C862      1.0  0.70261  0.75290  0.21564  1.0000
  C   C863      1.0  0.87076  0.94589  0.32401  1.0000
  H   H1031     1.0  0.90935  0.50739  0.47534  1.0000
  H   H1032     1.0  0.84467  0.63524  0.07951  1.0000
  C   C864      1.0  0.97726  0.52493  0.05338  1.0000
  H   H1033     1.0  0.70130  0.82451  0.17084  1.0000
  C   C865      1.0  0.90171  0.99722  0.41338  1.0000
  H   H1034     1.0  0.96162  0.71143  0.48734  1.0000
  H   H1035     1.0  0.76516  0.76713  0.17979  1.0000
  C   C866      1.0  0.91098  0.55321  0.01587  1.0000
  Fe  Fe118     1.0  0.67646  0.64867  0.29012  1.0000
  C   C867      1.0  0.75620  0.78320  0.19324  1.0000
  C   C868      1.0  0.73347  0.82368  0.22915  1.0000
  C   C869      1.0  0.89654  0.96180  0.41736  1.0000
  H   H1036     1.0  0.85106  0.91062  0.38295  1.0000
  H   H1037     1.0  0.95243  0.75734  0.01601  1.0000
  H   H1038     1.0  0.69668  0.84265  0.22338  1.0000
  H   H1039     1.0  0.68371  0.79221  0.17619  1.0000
  C   C870      1.0  0.88177  0.00036  0.37077  1.0000
  C   C871      1.0  0.84617  0.97063  0.35191  1.0000
  N   N58       1.0  0.70584  0.79071  0.20795  1.0000
  H   H1040     1.0  0.99780  0.58660  0.05593  1.0000
  C   C872      1.0  0.85763  0.60816  0.03105  1.0000
  C   C873      1.0  0.91480  0.83726  0.07672  1.0000
  C   C874      1.0  0.93130  0.82718  0.08946  1.0000
  H   H1041     1.0  0.68791  0.74680  0.21603  1.0000
  C   C875      1.0  0.92786  0.83231  0.02878  1.0000
  C   C876      1.0  0.84814  0.60612  0.08075  1.0000
  C   C877      1.0  0.94487  0.82168  0.04097  1.0000
  H   H1042     1.0  0.66873  0.80536  0.32625  1.0000
  H   H1043     1.0  0.66867  0.75902  0.37561  1.0000
  H   H1044     1.0  0.96730  0.68613  0.39670  1.0000
  H   H1045     1.0  0.99437  0.59420  0.01752  1.0000
  C   C878      1.0  0.92015  0.51958  0.05878  1.0000
  C   C879      1.0  0.87934  0.61666  0.07007  1.0000
  H   H1046     1.0  0.86285  0.54308  0.01581  1.0000
  H   H1047     1.0  0.70246  0.83230  0.38595  1.0000
  H   H1048     1.0  0.87438  0.97268  0.31572  1.0000
  H   H1049     1.0  0.92559  0.83351  0.00536  1.0000
  H   H1050     1.0  0.90319  0.84229  0.09031  1.0000
  H   H1051     1.0  0.68859  0.60399  0.22937  1.0000
  H   H1052     1.0  0.87343  0.55805  0.10930  1.0000
  H   H1053     1.0  0.96387  0.63661  0.43275  1.0000
  H   H1054     1.0  0.98845  0.75106  0.43682  1.0000
  N   N59       1.0  0.96010  0.81253  0.02163  1.0000
  C   C880      1.0  0.86692  0.55726  0.06244  1.0000
  C   C881      1.0  0.94618  0.81947  0.07201  1.0000
  H   H1055     1.0  0.98191  0.82592  0.05208  1.0000
  C   C882      1.0  0.68087  0.77587  0.37328  1.0000
  C   C883      1.0  0.69293  0.83449  0.36684  1.0000
  C   C884      1.0  0.98916  0.71239  0.01537  1.0000
  C   C885      1.0  0.68330  0.60590  0.20640  1.0000
  Fe  Fe119     1.0  0.90970  0.72935  0.00267  1.0000
  H   H1056     1.0  0.90402  0.56788  0.49735  1.0000
  H   H1057     1.0  0.98540  0.53383  0.07203  1.0000
  N   N60       1.0  0.67603  0.81457  0.37186  1.0000
  C   C886      1.0  0.68923  0.51690  0.29437  1.0000
  H   H1058     1.0  0.96308  0.62670  0.07584  1.0000
  H   H1059     1.0  0.85479  0.63757  0.03067  1.0000
  H   H1060     1.0  0.69381  0.59572  0.19131  1.0000
  C   C887      1.0  0.99554  0.72682  0.44290  1.0000
  H   H1061     1.0  0.84840  0.99666  0.34109  1.0000
  H   H1062     1.0  0.99045  0.62959  0.04392  1.0000
  H   H1063     1.0  0.69640  0.54572  0.22163  1.0000
  C   C888      1.0  0.95797  0.53548  0.01080  1.0000
  H   H1064     1.0  0.68148  0.63509  0.20222  1.0000
  C   C889      1.0  0.87638  0.50530  0.09150  1.0000
  C   C890      1.0  0.95517  0.78121  0.00264  1.0000
  C   C891      1.0  0.96396  0.84338  0.00279  1.0000
  H   H1065     1.0  0.97677  0.71228  0.00236  1.0000
  H   H1066     1.0  0.66836  0.57971  0.15553  1.0000
  Fe  Fe120     1.0  0.84870  0.88178  0.78018  1.0000
  S   S235      1.0  0.86791  0.83397  0.77722  1.0000
  S   S236      1.0  0.86102  0.93817  0.77801  1.0000
  Fe  Fe121     1.0  0.81539  0.83343  0.78252  1.0000
  S   S237      1.0  0.83205  0.78333  0.77917  1.0000
  S   S238      1.0  0.78468  0.83615  0.78643  1.0000
  Fe  Fe122     1.0  0.85108  0.80985  0.81237  1.0000
  S   S239      1.0  0.85924  0.77114  0.84907  1.0000
  Fe  Fe123     1.0  0.84764  0.81106  0.74446  1.0000
  S   S240      1.0  0.85119  0.78128  0.70044  1.0000
  S   S241      1.0  0.83338  0.85902  0.81759  1.0000
  S   S242      1.0  0.82944  0.85986  0.74558  1.0000
  Fe  Fe124     1.0  0.94283  0.68153  0.53303  1.0000
  H   H1067     1.0  0.69582  0.75252  0.66591  1.0000
  S   S243      1.0  0.97221  0.66272  0.53426  1.0000
  Fe  Fe125     1.0  0.91116  0.72213  0.56168  1.0000
  S   S244      1.0  0.89012  0.69415  0.53267  1.0000
  S   S245      1.0  0.90915  0.76408  0.59905  1.0000
  Fe  Fe126     1.0  0.90658  0.64381  0.54117  1.0000
  S   S246      1.0  0.89643  0.59039  0.55714  1.0000
  S   S247      1.0  0.68138  0.75004  0.77594  1.0000
  S   S248      1.0  0.90543  0.77451  0.96981  1.0000
  S   S249      1.0  0.92614  0.67128  0.57219  1.0000
  S   S250      1.0  0.92944  0.73460  0.52403  1.0000
  Fe  Fe127     1.0  0.69976  0.70388  0.78752  1.0000
  C   C892      1.0  0.99294  0.68576  0.53108  1.0000
  S   S251      1.0  0.73061  0.70311  0.78706  1.0000
  H   H1068     1.0  0.88855  0.98078  0.86469  1.0000
  C   C893      1.0  0.88570  0.90501  0.64124  1.0000
  C   C894      1.0  0.86619  0.84466  0.62214  1.0000
  C   C895      1.0  0.71257  0.73838  0.71784  1.0000
  C   C896      1.0  0.74735  0.76710  0.69601  1.0000
  C   C897      1.0  0.90589  0.51893  0.55927  1.0000
  H   H1069     1.0  0.96325  0.72717  0.56781  1.0000
  H   H1070     1.0  0.95034  0.74920  0.64437  1.0000
  H   H1071     1.0  0.95039  0.55210  0.99572  1.0000
  S   S252      1.0  0.68275  0.68430  0.82440  1.0000
  H   H1072     1.0  0.97602  0.83821  0.98915  1.0000
  C   C898      1.0  0.76984  0.79878  0.78638  1.0000
  C   C899      1.0  0.77590  0.76380  0.78053  1.0000
  C   C900      1.0  0.76366  0.73495  0.78049  1.0000
  C   C901      1.0  0.74525  0.74069  0.78616  1.0000
  C   C902      1.0  0.73914  0.77571  0.79168  1.0000
  C   C903      1.0  0.75141  0.80454  0.79190  1.0000
  H   H1073     1.0  0.78997  0.75899  0.77582  1.0000
  H   H1074     1.0  0.76850  0.70797  0.77610  1.0000
  H   H1075     1.0  0.72505  0.78054  0.79629  1.0000
  H   H1076     1.0  0.74659  0.83151  0.79640  1.0000
  C   C904      1.0  0.87208  0.77321  0.88264  1.0000
  C   C905      1.0  0.87346  0.74216  0.89966  1.0000
  C   C906      1.0  0.88347  0.74212  0.92637  1.0000
  C   C907      1.0  0.89232  0.77322  0.93647  1.0000
  C   C908      1.0  0.89088  0.80434  0.91953  1.0000
  C   C909      1.0  0.88082  0.80441  0.89282  1.0000
  H   H1077     1.0  0.86685  0.71781  0.89202  1.0000
  H   H1078     1.0  0.88446  0.71794  0.93901  1.0000
  H   H1079     1.0  0.89764  0.82858  0.92707  1.0000
  H   H1080     1.0  0.87992  0.82850  0.88007  1.0000
  C   C910      1.0  0.89361  0.76576  0.62833  1.0000
  C   C911      1.0  0.87705  0.74783  0.62672  1.0000
  C   C912      1.0  0.86448  0.75238  0.64928  1.0000
  C   C913      1.0  0.86834  0.77438  0.67402  1.0000
  C   C914      1.0  0.88520  0.79127  0.67615  1.0000
  C   C915      1.0  0.89762  0.78737  0.65326  1.0000
  H   H1081     1.0  0.87371  0.73115  0.60774  1.0000
  H   H1082     1.0  0.85155  0.73900  0.64740  1.0000
  H   H1083     1.0  0.88856  0.80772  0.69517  1.0000
  H   H1084     1.0  0.91035  0.80142  0.65480  1.0000
  C   C916      1.0  0.87999  0.85759  0.60520  1.0000
  C   C917      1.0  0.90380  0.54911  0.54150  1.0000
  H   H1085     1.0  0.97295  0.74385  0.65938  1.0000
  H   H1086     1.0  0.99656  0.67526  0.60780  1.0000
  H   H1087     1.0  0.69894  0.72610  0.71591  1.0000
  H   H1088     1.0  0.70030  0.80240  0.73480  1.0000
  C   C918      1.0  0.85058  0.98132  0.77516  1.0000
  H   H1089     1.0  0.86003  0.95128  0.84887  1.0000
  H   H1090     1.0  0.82309  0.96276  0.77489  1.0000
  C   C919      1.0  0.73517  0.82138  0.71818  1.0000
  H   H1091     1.0  0.78118  0.82345  0.71843  1.0000
  H   H1092     1.0  0.89364  0.93506  0.69699  1.0000
  C   C920      1.0  0.85642  0.53353  0.54789  1.0000
  H   H1093     1.0  0.83276  0.98765  0.83840  1.0000
  H   H1094     1.0  0.75507  0.85983  0.73385  1.0000
  H   H1095     1.0  0.67716  0.59202  0.71390  1.0000
  H   H1096     1.0  0.68529  0.78357  0.70763  1.0000
  H   H1097     1.0  0.71556  0.74397  0.74142  1.0000
  H   H1098     1.0  0.77648  0.76410  0.69453  1.0000
  H   H1099     1.0  0.72442  0.83837  0.72612  1.0000
  H   H1100     1.0  0.73223  0.73589  0.87144  1.0000
  H   H1101     1.0  0.96354  0.60760  0.99756  1.0000
  C   C921      1.0  0.96500  0.75194  0.63959  1.0000
  C   C922      1.0  0.70983  0.76294  0.66956  1.0000
  H   H1102     1.0  0.94286  0.78618  0.98881  1.0000
  C   C923      1.0  0.96412  0.69252  0.61876  1.0000
  C   C924      1.0  0.90575  0.54494  0.51128  1.0000
  C   C925      1.0  0.99763  0.76698  0.60473  1.0000
  C   C926      1.0  0.75277  0.83431  0.72258  1.0000
  H   H1103     1.0  0.85902  0.82055  0.61515  1.0000
  C   C927      1.0  0.83179  0.98595  0.77424  1.0000
  C   C928      1.0  0.69889  0.79605  0.71096  1.0000
  H   H1104     1.0  0.71905  0.74185  0.66094  1.0000
  C   C929      1.0  0.87660  0.99698  0.86031  1.0000
  H   H1105     1.0  0.90042  0.89768  0.60134  1.0000
  S   S253      1.0  0.68682  0.66592  0.75445  1.0000
  C   C930      1.0  0.98971  0.73283  0.60860  1.0000
  C   C931      1.0  0.95982  0.74306  0.58775  1.0000
  H   H1106     1.0  0.98150  0.73857  0.52547  1.0000
  H   H1107     1.0  0.88347  0.84357  0.58507  1.0000
  S   S254      1.0  0.90658  0.59410  0.99785  1.0000
  C   C932      1.0  0.76757  0.81377  0.71394  1.0000
  C   C933      1.0  0.73194  0.78715  0.70479  1.0000
  C   C934      1.0  0.68214  0.54380  0.78988  1.0000
  N   N61       1.0  0.86838  0.90739  0.68880  1.0000
  C   C935      1.0  0.84892  0.91666  0.69133  1.0000
  C   C936      1.0  0.87328  0.88038  0.71099  1.0000
  C   C937      1.0  0.87882  0.94046  0.69606  1.0000
  C   C938      1.0  0.87193  0.89196  0.65938  1.0000
  H   H1108     1.0  0.94941  0.69136  0.62342  1.0000
  C   C939      1.0  0.86222  0.86139  0.64885  1.0000
  H   H1109     1.0  0.69090  0.53428  0.72562  1.0000
  H   H1110     1.0  0.90442  0.52197  0.58266  1.0000
  C   C940      1.0  0.84515  0.00082  0.84570  1.0000
  H   H1111     1.0  0.84005  0.89278  0.68919  1.0000
  H   H1112     1.0  0.84599  0.92917  0.71312  1.0000
  H   H1113     1.0  0.84453  0.93590  0.67423  1.0000
  H   H1114     1.0  0.86487  0.85580  0.70869  1.0000
  H   H1115     1.0  0.87146  0.89107  0.73357  1.0000
  H   H1116     1.0  0.88767  0.87186  0.70927  1.0000
  H   H1117     1.0  0.87583  0.96196  0.68008  1.0000
  H   H1118     1.0  0.87540  0.95167  0.71809  1.0000
  H   H1119     1.0  0.90387  0.52082  0.97776  1.0000
  H   H1120     1.0  0.94498  0.74090  0.59057  1.0000
  H   H1121     1.0  0.85200  0.84904  0.66180  1.0000
  H   H1122     1.0  0.71122  0.78712  0.65590  1.0000
  C   C941      1.0  0.88961  0.88788  0.61459  1.0000
  N   N62       1.0  0.71360  0.77173  0.70090  1.0000
  H   H1123     1.0  0.89386  0.92796  0.64738  1.0000
  H   H1124     1.0  0.69150  0.56594  0.78943  1.0000
  N   N63       1.0  0.80442  0.75104  0.86127  1.0000
  C   C942      1.0  0.80776  0.78686  0.84904  1.0000
  C   C943      1.0  0.81372  0.74901  0.89029  1.0000
  C   C944      1.0  0.81294  0.72400  0.84155  1.0000
  C   C945      1.0  0.78472  0.74582  0.86445  1.0000
  C   C946      1.0  0.77519  0.71651  0.85112  1.0000
  C   C947      1.0  0.77444  0.77063  0.88129  1.0000
  C   C948      1.0  0.75652  0.71295  0.85406  1.0000
  C   C949      1.0  0.75573  0.76700  0.88379  1.0000
  C   C950      1.0  0.74678  0.73833  0.87003  1.0000
  H   H1125     1.0  0.80321  0.80932  0.86339  1.0000
  H   H1126     1.0  0.82241  0.79131  0.84574  1.0000
  H   H1127     1.0  0.80068  0.78973  0.82752  1.0000
  H   H1128     1.0  0.80925  0.77062  0.90561  1.0000
  H   H1129     1.0  0.82867  0.75197  0.88850  1.0000
  H   H1130     1.0  0.81118  0.72281  0.90064  1.0000
  H   H1131     1.0  0.80683  0.72473  0.81907  1.0000
  H   H1132     1.0  0.82766  0.72908  0.83917  1.0000
  H   H1133     1.0  0.81188  0.69640  0.85012  1.0000
  H   H1134     1.0  0.78170  0.69636  0.83770  1.0000
  H   H1135     1.0  0.78075  0.79337  0.89231  1.0000
  H   H1136     1.0  0.74943  0.69093  0.84306  1.0000
  H   H1137     1.0  0.74808  0.78676  0.89615  1.0000
  H   H1138     1.0  0.74600  0.74065  0.68616  1.0000
  H   H1139     1.0  0.72233  0.71745  0.71064  1.0000
  C   C951      1.0  0.76487  0.78026  0.70064  1.0000
  C   C952      1.0  0.99377  0.72281  0.52697  1.0000
  H   H1140     1.0  0.96716  0.78105  0.63644  1.0000
  N   N64       1.0  0.97007  0.72985  0.61365  1.0000
  C   C953      1.0  0.86289  0.50982  0.52667  1.0000
  H   H1141     1.0  0.69857  0.82153  0.69867  1.0000
  H   H1142     1.0  0.96615  0.67484  0.59912  1.0000
  H   H1143     1.0  0.97142  0.68072  0.63785  1.0000
  H   H1144     1.0  0.96255  0.77168  0.58337  1.0000
  C   C954      1.0  0.86052  0.98024  0.85163  1.0000
  H   H1145     1.0  0.85627  0.56216  0.54399  1.0000
  H   H1146     1.0  0.96617  0.77380  0.98745  1.0000
  C   C955      1.0  0.90843  0.52057  0.00042  1.0000
  C   C956      1.0  0.67692  0.53540  0.71795  1.0000
  C   C957      1.0  0.85087  0.52058  0.57455  1.0000
  C   C958      1.0  0.68860  0.50809  0.78779  1.0000
  H   H1147     1.0  0.86774  0.52016  0.50631  1.0000
  S   S255      1.0  0.93138  0.68693  0.99787  1.0000
  H   H1148     1.0  0.98588  0.51597  0.54480  1.0000
  H   H1149     1.0  0.95258  0.84920  0.98722  1.0000
  Fe  Fe128     1.0  0.66840  0.64974  0.78996  1.0000
  H   H1150     1.0  0.98956  0.79122  0.60522  1.0000
  H   H1151     1.0  0.84617  0.53937  0.59115  1.0000
  S   S256      1.0  0.92412  0.65071  0.50272  1.0000
  C   C959      1.0  0.66892  0.56832  0.71101  1.0000
  C   C960      1.0  0.00138  0.70243  0.60644  1.0000
  H   H1152     1.0  0.70294  0.50317  0.78565  1.0000
