data_image0
_chemical_formula_structural       H3SC3HSHFe2SH2FeS2H2C2FeC2H2C2H3SHCHFeC2HCHCH2CH2C2SCHSCH2CSCNC2SHFeCHCFeS2CHC2NH2C2HSH2CHNH2C2H2CHCHCHC3H2SHC3H3C2HSH3CH3CHFeH8FeSHSCH4S2FeHCHC2H3C2HC2HCSHCS2H3C3HCHSCHCH2CHCNHCH3C2HC5NCHC2HSNCH3C2H3CH2SC6SHC2HCHNCHCH2C2H2C2HCHFeH2C2HCH3C3FeHSCHSHCFeHC2H2C2H2SHSH5CS2HCH3FeC6H2CHCH3C2HCHCHC4HC2SH2SCHFeHCSC3HCSHFeHNHNC6FeH8CH3SHC2H4C4HCFeHCFeH2FeSC2HCFeCHS2C4HSC5H2SFeCH4C2SNH2C2H2NH2CFeH2CHCHFeSC2H3CH2CHSC2SCHSH4C2HFeCHCHSHCHSHC3FeHSCH4SH2SFeHCH5CH3C2HC2HC4HCHC2NC6HSCH11CFeSNCFeH2CH2C3H3CHSHFeH2CHS2CH2CH4C2HCHC2SFeH2CFeCHC2SHCHNH2CH2CH2CHSCH3C2HSNC8H2FeCH3SHSHC3SH3CH4SH3CH4C4HCFeC2FeHCNSNCH2CSH2SH2C3SFeS2CH2SFeC2H5CSHCHCH2CH2SH2CFeCH4C2H4CNC3H2C2HCHFeH2NH2C2HC2SHNC5HCFeCSC2HC2HCSCFeH6CH2CSH4SCH3C5SHCH3FeCHS2FeH2SH2CFe2CHCS2HSFeCHCHSC2H2CH3CHCH3C2FeC2SH3CH2C2SC6H3SCHNCSH2C2H2NCH2CH3C2SCH2C2HSH2FeH2CNCHC4H8CH3C3SH3NH2CHCH2SC2HCH3CH3C4SC2HCH
_chemical_formula_sum              "H432 S96 C360 Fe48 N24"
_cell_length_a       38.5723
_cell_length_b       38.4452
_cell_length_c       38.5258
_cell_angle_alpha    90.0441
_cell_angle_beta     90.1363
_cell_angle_gamma    96.4779

_space_group_name_H-M_alt    "P 1"
_space_group_IT_number       1

loop_
  _space_group_symop_operation_xyz
  'x, y, z'

loop_
  _atom_site_type_symbol
  _atom_site_label
  _atom_site_symmetry_multiplicity
  _atom_site_fract_x
  _atom_site_fract_y
  _atom_site_fract_z
  _atom_site_occupancy
  H   H1        1.0  0.06963  0.37083  0.30162  1.0000
  H   H2        1.0  0.41605  0.09050  0.09668  1.0000
  H   H3        1.0  0.44684  0.05778  0.13174  1.0000
  S   S1        1.0  0.26347  0.99404  0.46414  1.0000
  C   C1        1.0  0.36057  0.00449  0.36139  1.0000
  C   C2        1.0  0.99949  0.41253  0.24851  1.0000
  C   C3        1.0  0.42655  0.09018  0.07074  1.0000
  H   H4        1.0  0.12211  0.01928  0.49040  1.0000
  S   S2        1.0  0.45108  0.29401  0.01604  1.0000
  H   H5        1.0  0.38979  0.06837  0.41279  1.0000
  Fe  Fe1       1.0  0.44195  0.23605  0.02806  1.0000
  Fe  Fe2       1.0  0.19517  0.05842  0.48976  1.0000
  S   S3        1.0  0.27212  0.41509  0.02145  1.0000
  H   H6        1.0  0.32118  0.00281  0.40123  1.0000
  H   H7        1.0  0.31381  0.36402  0.04870  1.0000
  Fe  Fe3       1.0  0.25312  0.04330  0.43707  1.0000
  S   S4        1.0  0.28306  0.06375  0.38856  1.0000
  S   S5        1.0  0.19444  0.03155  0.43791  1.0000
  H   H8        1.0  0.03596  0.02307  0.44953  1.0000
  H   H9        1.0  0.00204  0.42715  0.27348  1.0000
  C   C4        1.0  0.45314  0.09514  0.00332  1.0000
  C   C5        1.0  0.12395  0.48619  0.10646  1.0000
  Fe  Fe4       1.0  0.24449  0.46170  0.00263  1.0000
  C   C6        1.0  0.36213  0.05226  0.32058  1.0000
  C   C7        1.0  0.33408  0.06487  0.33839  1.0000
  H   H10       1.0  0.37326  0.06593  0.29797  1.0000
  H   H11       1.0  0.32384  0.08828  0.32920  1.0000
  C   C8        1.0  0.45038  0.18163  0.10439  1.0000
  C   C9        1.0  0.99378  0.40251  0.37610  1.0000
  H   H12       1.0  0.16965  0.34479  0.99669  1.0000
  H   H13       1.0  0.41805  0.99784  0.05748  1.0000
  H   H14       1.0  0.40341  0.13723  0.05823  1.0000
  S   S6        1.0  0.99232  0.35020  0.42490  1.0000
  H   H15       1.0  0.02207  0.38112  0.19161  1.0000
  C   C10       1.0  0.37552  0.02190  0.33199  1.0000
  H   H16       1.0  0.27104  0.29248  0.01200  1.0000
  Fe  Fe5       1.0  0.44622  0.01509  0.26353  1.0000
  C   C11       1.0  0.09810  0.47392  0.13086  1.0000
  C   C12       1.0  0.48191  0.13030  0.14241  1.0000
  H   H17       1.0  0.42672  0.14129  0.99859  1.0000
  C   C13       1.0  0.01684  0.36445  0.21514  1.0000
  H   H18       1.0  0.36125  0.02117  0.44980  1.0000
  C   C14       1.0  0.31977  0.36664  0.02133  1.0000
  H   H19       1.0  0.35462  0.09418  0.41741  1.0000
  H   H20       1.0  0.99798  0.30137  0.35937  1.0000
  C   C15       1.0  0.44989  0.14041  0.15306  1.0000
  H   H21       1.0  0.35523  0.32670  0.02201  1.0000
  H   H22       1.0  0.05650  0.33308  0.35140  1.0000
  C   C16       1.0  0.05965  0.40311  0.24555  1.0000
  C   C17       1.0  0.48178  0.17058  0.09305  1.0000
  S   S7        1.0  0.05063  0.19833  0.46139  1.0000
  C   C18       1.0  0.33255  0.01701  0.37909  1.0000
  H   H23       1.0  0.39746  0.11275  0.42956  1.0000
  S   S8        1.0  0.03013  0.29618  0.48923  1.0000
  C   C19       1.0  0.01731  0.36189  0.27808  1.0000
  H   H24       1.0  0.09213  0.15261  0.42530  1.0000
  H   H25       1.0  0.33237  0.10840  0.47141  1.0000
  C   C20       1.0  0.31904  0.04730  0.36768  1.0000
  S   S9        1.0  0.43070  0.21528  0.08280  1.0000
  C   C21       1.0  0.43449  0.16628  0.13438  1.0000
  N   N1        1.0  0.45633  0.03518  0.08178  1.0000
  C   C22       1.0  0.41906  0.11741  0.04887  1.0000
  C   C23       1.0  0.03671  0.06861  0.48198  1.0000
  S   S10       1.0  0.43403  0.02295  0.20677  1.0000
  H   H26       1.0  0.00470  0.43171  0.22701  1.0000
  Fe  Fe6       1.0  0.01681  0.23792  0.48488  1.0000
  C   C24       1.0  0.43235  0.11991  0.01530  1.0000
  H   H27       1.0  0.06336  0.42025  0.22218  1.0000
  C   C25       1.0  0.40553  0.06739  0.48409  1.0000
  Fe  Fe7       1.0  0.48595  0.05648  0.20462  1.0000
  S   S11       1.0  0.04754  0.48040  0.18029  1.0000
  S   S12       1.0  0.41018  0.00384  0.31056  1.0000
  C   C26       1.0  0.03654  0.33553  0.33194  1.0000
  H   H28       1.0  0.43759  0.12923  0.17633  1.0000
  C   C27       1.0  0.12088  0.12629  0.46353  1.0000
  C   C28       1.0  0.34331  0.34539  0.00625  1.0000
  N   N2        1.0  0.37329  0.07471  0.46586  1.0000
  H   H29       1.0  0.13336  0.11115  0.44457  1.0000
  H   H30       1.0  0.06580  0.42048  0.26840  1.0000
  C   C29       1.0  0.09742  0.14986  0.45269  1.0000
  C   C30       1.0  0.08084  0.16996  0.47686  1.0000
  H   H31       1.0  0.03364  0.34277  0.21383  1.0000
  S   S13       1.0  0.18594  0.46070  0.00707  1.0000
  H   H32       1.0  0.32460  0.04647  0.44981  1.0000
  H   H33       1.0  0.01971  0.41045  0.38605  1.0000
  C   C31       1.0  0.46076  0.06770  0.02491  1.0000
  H   H34       1.0  0.40968  0.03108  0.11306  1.0000
  N   N3        1.0  0.02353  0.38509  0.24749  1.0000
  H   H35       1.0  0.09462  0.44642  0.13749  1.0000
  H   H36       1.0  0.07924  0.38406  0.24366  1.0000
  C   C32       1.0  0.44750  0.06422  0.05928  1.0000
  C   C33       1.0  0.35593  0.10123  0.48535  1.0000
  H   H37       1.0  0.22624  0.33167  0.01038  1.0000
  H   H38       1.0  0.41020  0.17465  0.14338  1.0000
  C   C34       1.0  0.34905  0.04205  0.46369  1.0000
  H   H39       1.0  0.19383  0.00751  0.35038  1.0000
  C   C35       1.0  0.46859  0.06283  0.48590  1.0000
  H   H40       1.0  0.00158  0.42103  0.45967  1.0000
  C   C36       1.0  0.04358  0.35740  0.30319  1.0000
  H   H41       1.0  0.14017  0.46825  0.09472  1.0000
  C   C37       1.0  0.00352  0.31745  0.33647  1.0000
  C   C38       1.0  0.37935  0.08809  0.42992  1.0000
  C   C39       1.0  0.43856  0.03398  0.11598  1.0000
  H   H42       1.0  0.23670  0.01974  0.33550  1.0000
  H   H43       1.0  0.99657  0.44372  0.33758  1.0000
  S   S14       1.0  0.25297  0.07482  0.48625  1.0000
  H   H44       1.0  0.44247  0.07801  0.44097  1.0000
  C   C40       1.0  0.02087  0.04280  0.45994  1.0000
  C   C41       1.0  0.99702  0.43812  0.48228  1.0000
  C   C42       1.0  0.30354  0.39089  0.00132  1.0000
  H   H45       1.0  0.28591  0.99913  0.32139  1.0000
  H   H46       1.0  0.47944  0.38632  0.99526  1.0000
  H   H47       1.0  0.46140  0.99758  0.04053  1.0000
  C   C43       1.0  0.43879  0.07025  0.46776  1.0000
  C   C44       1.0  0.21448  0.99869  0.33337  1.0000
  H   H48       1.0  0.47738  0.04942  0.01456  1.0000
  S   S15       1.0  0.48652  0.22259  0.99563  1.0000
  H   H49       1.0  0.20483  0.99819  0.30611  1.0000
  H   H50       1.0  0.20188  0.38223  0.00365  1.0000
  H   H51       1.0  0.44502  0.01132  0.13180  1.0000
  C   C45       1.0  0.44624  0.00094  0.06453  1.0000
  H   H52       1.0  0.06421  0.06916  0.48839  1.0000
  H   H53       1.0  0.37396  0.12559  0.48945  1.0000
  H   H54       1.0  0.34101  0.03157  0.48966  1.0000
  C   C46       1.0  0.03743  0.42642  0.75556  1.0000
  H   H55       1.0  0.29983  0.41268  0.95017  1.0000
  Fe  Fe8       1.0  0.41451  0.28159  0.97098  1.0000
  H   H56       1.0  0.06230  0.45326  0.69346  1.0000
  H   H57       1.0  0.37595  0.45294  0.97327  1.0000
  H   H58       1.0  0.44615  0.17077  0.79861  1.0000
  H   H59       1.0  0.31458  0.99712  0.75873  1.0000
  H   H60       1.0  0.30138  0.05979  0.76684  1.0000
  H   H61       1.0  0.34537  0.06739  0.78336  1.0000
  H   H62       1.0  0.34638  0.09164  0.51122  1.0000
  H   H63       1.0  0.33167  0.09472  0.75012  1.0000
  Fe  Fe9       1.0  0.44745  0.21362  0.95211  1.0000
  S   S16       1.0  0.44929  0.15985  0.92665  1.0000
  H   H64       1.0  0.32609  0.09787  0.69184  1.0000
  S   S17       1.0  0.45712  0.26955  0.93388  1.0000
  C   C47       1.0  0.27692  0.01031  0.66009  1.0000
  H   H65       1.0  0.48938  0.04666  0.53449  1.0000
  H   H66       1.0  0.02060  0.39908  0.53495  1.0000
  H   H67       1.0  0.01582  0.42831  0.73666  1.0000
  H   H68       1.0  0.07559  0.18134  0.53114  1.0000
  S   S18       1.0  0.46323  0.04343  0.69381  1.0000
  S   S19       1.0  0.20247  0.00948  0.52012  1.0000
  Fe  Fe10      1.0  0.26063  0.02462  0.51398  1.0000
  H   H69       1.0  0.01322  0.36846  0.72872  1.0000
  C   C48       1.0  0.09044  0.46289  0.87136  1.0000
  H   H70       1.0  0.04021  0.45116  0.77086  1.0000
  C   C49       1.0  0.26888  0.30500  0.92500  1.0000
  C   C50       1.0  0.32907  0.01690  0.58449  1.0000
  H   H71       1.0  0.45726  0.39805  0.88756  1.0000
  H   H72       1.0  0.45785  0.06853  0.83866  1.0000
  H   H73       1.0  0.39482  0.05633  0.74462  1.0000
  C   C51       1.0  0.17065  0.34872  0.92693  1.0000
  C   C52       1.0  0.45049  0.14484  0.88299  1.0000
  H   H74       1.0  0.12369  0.41676  0.75323  1.0000
  C   C53       1.0  0.45498  0.09590  0.84284  1.0000
  C   C54       1.0  0.45213  0.11794  0.81437  1.0000
  H   H75       1.0  0.37955  0.05247  0.53293  1.0000
  C   C55       1.0  0.44791  0.16694  0.85449  1.0000
  S   S20       1.0  0.30524  0.03839  0.55298  1.0000
  H   H76       1.0  0.07923  0.43929  0.88423  1.0000
  C   C56       1.0  0.99628  0.38922  0.52075  1.0000
  S   S21       1.0  0.45299  0.10252  0.77086  1.0000
  S   S22       1.0  0.02068  0.33093  0.58126  1.0000
  H   H77       1.0  0.28237  0.29831  0.90169  1.0000
  H   H78       1.0  0.11435  0.34784  0.65548  1.0000
  H   H79       1.0  0.14979  0.36660  0.92544  1.0000
  C   C57       1.0  0.37597  0.02131  0.62799  1.0000
  C   C58       1.0  0.45579  0.38026  0.91041  1.0000
  C   C59       1.0  0.43395  0.04877  0.53707  1.0000
  H   H80       1.0  0.02925  0.40506  0.77427  1.0000
  C   C60       1.0  0.08796  0.16606  0.51219  1.0000
  H   H81       1.0  0.12022  0.39799  0.69501  1.0000
  S   S23       1.0  0.14538  0.46032  0.91716  1.0000
  C   C61       1.0  0.09281  0.35250  0.67225  1.0000
  H   H82       1.0  0.44507  0.19429  0.85875  1.0000
  C   C62       1.0  0.45613  0.42966  0.94961  1.0000
  H   H83       1.0  0.05907  0.30866  0.65205  1.0000
  H   H84       1.0  0.43196  0.04029  0.56394  1.0000
  C   C63       1.0  0.31163  0.39396  0.96596  1.0000
  H   H85       1.0  0.25701  0.04124  0.61969  1.0000
  C   C64       1.0  0.33460  0.37223  0.95074  1.0000
  N   N4        1.0  0.19896  0.36244  0.95110  1.0000
  H   H86       1.0  0.42771  0.37139  0.91502  1.0000
  C   C65       1.0  0.21544  0.39640  0.93768  1.0000
  H   H87       1.0  0.33997  0.37436  0.92324  1.0000
  H   H88       1.0  0.22629  0.39435  0.91119  1.0000
  H   H89       1.0  0.03832  0.39744  0.61494  1.0000
  C   C66       1.0  0.46621  0.05228  0.52051  1.0000
  C   C67       1.0  0.42025  0.42669  0.95856  1.0000
  H   H90       1.0  0.10025  0.44243  0.78155  1.0000
  C   C68       1.0  0.22565  0.33767  0.95359  1.0000
  C   C69       1.0  0.31244  0.07301  0.68399  1.0000
  C   C70       1.0  0.09753  0.41870  0.76459  1.0000
  C   C71       1.0  0.06736  0.38888  0.71578  1.0000
  C   C72       1.0  0.08053  0.45216  0.71576  1.0000
  N   N5        1.0  0.07039  0.42085  0.73760  1.0000
  C   C73       1.0  0.07811  0.99917  0.52148  1.0000
  H   H91       1.0  0.08037  0.47697  0.73076  1.0000
  C   C74       1.0  0.40349  0.45607  0.96655  1.0000
  C   C75       1.0  0.42193  0.48936  0.96581  1.0000
  H   H92       1.0  0.29974  0.27569  0.95827  1.0000
  S   S24       1.0  0.37848  0.32034  0.94963  1.0000
  N   N6        1.0  0.47299  0.39791  0.94120  1.0000
  C   C76       1.0  0.32910  0.06719  0.75936  1.0000
  H   H93       1.0  0.00379  0.37348  0.49824  1.0000
  H   H94       1.0  0.46347  0.09751  0.97712  1.0000
  H   H95       1.0  0.11609  0.13913  0.55047  1.0000
  C   C77       1.0  0.06182  0.33016  0.67049  1.0000
  C   C78       1.0  0.27864  0.29208  0.95687  1.0000
  H   H96       1.0  0.04765  0.46312  0.83482  1.0000
  H   H97       1.0  0.40480  0.40147  0.95941  1.0000
  H   H98       1.0  0.39711  0.03689  0.64112  1.0000
  C   C79       1.0  0.31697  0.04172  0.70222  1.0000
  H   H99       1.0  0.23718  0.40718  0.95492  1.0000
  H   H100      1.0  0.18005  0.34629  0.89992  1.0000
  S   S25       1.0  0.40193  0.22460  0.98565  1.0000
  C   C80       1.0  0.24277  0.32741  0.92325  1.0000
  C   C81       1.0  0.03392  0.33608  0.69170  1.0000
  C   C82       1.0  0.09576  0.38128  0.69475  1.0000
  C   C83       1.0  0.45399  0.10927  0.87690  1.0000
  C   C84       1.0  0.40405  0.05605  0.51916  1.0000
  C   C85       1.0  0.01320  0.38655  0.62482  1.0000
  S   S26       1.0  0.15550  0.09138  0.51444  1.0000
  H   H101      1.0  0.23676  0.33744  0.89803  1.0000
  C   C86       1.0  0.12777  0.12216  0.49887  1.0000
  C   C87       1.0  0.47431  0.46402  0.94924  1.0000
  H   H102      1.0  0.37895  0.08181  0.71085  1.0000
  C   C88       1.0  0.29874  0.01017  0.68914  1.0000
  H   H103      1.0  0.00975  0.42872  0.66152  1.0000
  N   N7        1.0  0.34032  0.04272  0.73290  1.0000
  C   C89       1.0  0.27301  0.04149  0.64293  1.0000
  H   H104      1.0  0.28827  0.09678  0.64074  1.0000
  C   C90       1.0  0.37647  0.05512  0.72222  1.0000
  H   H105      1.0  0.08333  0.01936  0.54112  1.0000
  H   H106      1.0  0.00269  0.16014  0.51944  1.0000
  C   C91       1.0  0.12267  0.47981  0.88312  1.0000
  C   C92       1.0  0.35664  0.03661  0.60217  1.0000
  H   H107      1.0  0.46795  0.35631  0.90319  1.0000
  H   H108      1.0  0.38584  0.03721  0.70255  1.0000
  C   C93       1.0  0.07247  0.47633  0.84323  1.0000
  C   C94       1.0  0.99740  0.35446  0.61153  1.0000
  H   H109      1.0  0.36288  0.06406  0.59612  1.0000
  C   C95       1.0  0.99719  0.40425  0.65147  1.0000
  H   H110      1.0  0.19650  0.41616  0.93624  1.0000
  Fe  Fe11      1.0  0.46533  0.04879  0.75201  1.0000
  H   H111      1.0  0.44157  0.36279  0.97568  1.0000
  H   H112      1.0  0.15840  0.32251  0.93539  1.0000
  C   C96       1.0  0.46921  0.37331  0.97093  1.0000
  C   C97       1.0  0.11100  0.14208  0.52307  1.0000
  H   H113      1.0  0.00955  0.31909  0.68961  1.0000
  C   C98       1.0  0.29081  0.07276  0.65477  1.0000
  H   H114      1.0  0.45597  0.09190  0.89872  1.0000
  H   H115      1.0  0.09099  0.39550  0.78158  1.0000
  H   H116      1.0  0.10730  0.45278  0.70511  1.0000
  C   C99       1.0  0.03644  0.36490  0.71410  1.0000
  C   C100      1.0  0.35047  0.34767  0.97069  1.0000
  C   C101      1.0  0.44852  0.15348  0.82041  1.0000
  Fe  Fe12      1.0  0.18785  0.48603  0.95406  1.0000
  H   H117      1.0  0.35834  0.00982  0.77316  1.0000
  S   S27       1.0  0.43496  0.99599  0.76097  1.0000
  C   C102      1.0  0.34101  0.00809  0.74989  1.0000
  H   H118      1.0  0.48350  0.35009  0.96643  1.0000
  S   S28       1.0  0.24581  0.48332  0.94851  1.0000
  H   H119      1.0  0.99659  0.49015  0.52313  1.0000
  C   C103      1.0  0.23647  0.32420  0.98575  1.0000
  Fe  Fe13      1.0  0.99770  0.29438  0.53786  1.0000
  H   H120      1.0  0.03177  0.11392  0.51162  1.0000
  C   C104      1.0  0.26242  0.30157  0.98713  1.0000
  C   C105      1.0  0.18246  0.36930  0.98488  1.0000
  H   H121      1.0  0.16204  0.38745  0.98193  1.0000
  H   H122      1.0  0.02326  0.44896  0.49191  1.0000
  C   C106      1.0  0.01762  0.09442  0.49525  1.0000
  C   C107      1.0  0.10006  0.99923  0.49286  1.0000
  H   H123      1.0  0.13070  0.55736  0.28767  1.0000
  H   H124      1.0  0.11286  0.57247  0.10847  1.0000
  S   S29       1.0  0.17513  0.93514  0.44216  1.0000
  H   H125      1.0  0.32932  0.97856  0.28304  1.0000
  S   S30       1.0  0.16538  0.53971  0.07202  1.0000
  H   H126      1.0  0.26517  0.67400  0.01364  1.0000
  H   H127      1.0  0.45597  0.81206  0.15231  1.0000
  H   H128      1.0  0.06602  0.55044  0.14973  1.0000
  H   H129      1.0  0.45718  0.60904  0.00327  1.0000
  H   H130      1.0  0.20446  0.54977  0.15001  1.0000
  C   C108      1.0  0.00005  0.67670  0.37241  1.0000
  S   S31       1.0  0.44276  0.93795  0.15521  1.0000
  S   S32       1.0  0.39766  0.69727  0.02214  1.0000
  H   H131      1.0  0.11199  0.63670  0.23624  1.0000
  C   C109      1.0  0.18638  0.55588  0.17009  1.0000
  H   H132      1.0  0.06769  0.54872  0.21546  1.0000
  H   H133      1.0  0.22254  0.89879  0.30963  1.0000
  H   H134      1.0  0.03120  0.87810  0.47274  1.0000
  Fe  Fe14      1.0  0.44346  0.73279  0.99919  1.0000
  C   C110      1.0  0.47682  0.82741  0.16629  1.0000
  C   C111      1.0  0.46124  0.86298  0.08469  1.0000
  C   C112      1.0  0.44490  0.88579  0.10644  1.0000
  C   C113      1.0  0.46469  0.91144  0.12655  1.0000
  C   C114      1.0  0.08207  0.53241  0.13803  1.0000
  C   C115      1.0  0.34487  0.64267  0.02206  1.0000
  H   H135      1.0  0.44568  0.84294  0.06994  1.0000
  H   H136      1.0  0.41674  0.88304  0.10821  1.0000
  C   C116      1.0  0.12981  0.52190  0.09851  1.0000
  H   H137      1.0  0.16375  0.62546  0.21449  1.0000
  C   C117      1.0  0.18676  0.59005  0.18221  1.0000
  H   H138      1.0  0.34145  0.64961  0.04895  1.0000
  H   H139      1.0  0.45082  0.97851  0.08173  1.0000
  H   H140      1.0  0.48884  0.89625  0.22105  1.0000
  C   C118      1.0  0.30037  0.92818  0.27433  1.0000
  C   C119      1.0  0.27017  0.90614  0.28207  1.0000
  H   H141      1.0  0.19592  0.91423  0.35876  1.0000
  C   C120      1.0  0.19120  0.93987  0.34724  1.0000
  H   H142      1.0  0.08073  0.83796  0.43853  1.0000
  C   C121      1.0  0.06599  0.94687  0.47108  1.0000
  H   H143      1.0  0.30134  0.60172  0.02223  1.0000
  C   C122      1.0  0.37149  0.66141  0.00245  1.0000
  C   C123      1.0  0.30549  0.96161  0.28864  1.0000
  C   C124      1.0  0.32210  0.61543  0.00700  1.0000
  C   C125      1.0  0.01443  0.65610  0.34690  1.0000
  H   H144      1.0  0.12471  0.88278  0.41264  1.0000
  C   C126      1.0  0.14332  0.90449  0.46179  1.0000
  C   C127      1.0  0.24497  0.91739  0.30427  1.0000
  S   S33       1.0  0.01291  0.60408  0.29713  1.0000
  H   H145      1.0  0.17784  0.93544  0.32175  1.0000
  H   H146      1.0  0.04146  0.66228  0.33955  1.0000
  S   S34       1.0  0.25434  0.51460  0.02868  1.0000
  C   C128      1.0  0.16190  0.52971  0.18288  1.0000
  H   H147      1.0  0.00398  0.90634  0.45026  1.0000
  Fe  Fe15      1.0  0.19564  0.51521  0.02853  1.0000
  H   H148      1.0  0.32006  0.91929  0.25745  1.0000
  C   C129      1.0  0.28039  0.97318  0.31063  1.0000
  S   S35       1.0  0.00890  0.50537  0.26851  1.0000
  C   C130      1.0  0.09682  0.85592  0.45511  1.0000
  C   C131      1.0  0.07722  0.49694  0.14709  1.0000
  C   C132      1.0  0.12182  0.88131  0.44053  1.0000
  H   H149      1.0  0.09196  0.62185  0.27580  1.0000
  C   C133      1.0  0.10855  0.54482  0.11435  1.0000
  S   S36       1.0  0.47338  0.96714  0.25250  1.0000
  H   H150      1.0  0.22232  0.97606  0.39832  1.0000
  Fe  Fe16      1.0  0.46507  0.97781  0.19590  1.0000
  H   H151      1.0  0.07603  0.59296  0.20047  1.0000
  N   N8        1.0  0.22408  0.96385  0.34398  1.0000
  H   H152      1.0  0.05292  0.58341  0.24040  1.0000
  N   N9        1.0  0.10820  0.58063  0.24341  1.0000
  C   C134      1.0  0.10534  0.55657  0.27369  1.0000
  C   C135      1.0  0.11310  0.61698  0.25723  1.0000
  C   C136      1.0  0.07478  0.57622  0.22411  1.0000
  C   C137      1.0  0.13644  0.57233  0.21984  1.0000
  C   C138      1.0  0.16230  0.59835  0.20680  1.0000
  C   C139      1.0  0.13708  0.53773  0.20711  1.0000
  Fe  Fe17      1.0  0.00502  0.50519  0.21004  1.0000
  H   H153      1.0  0.35973  0.75783  0.99979  1.0000
  H   H154      1.0  0.20568  0.61034  0.17176  1.0000
  H   H155      1.0  0.11735  0.51681  0.21444  1.0000
  H   H156      1.0  0.08531  0.56355  0.29257  1.0000
  H   H157      1.0  0.45421  0.55201  0.03348  1.0000
  H   H158      1.0  0.13830  0.62230  0.27145  1.0000
  H   H159      1.0  0.24835  0.94173  0.38791  1.0000
  H   H160      1.0  0.37054  0.98083  0.37028  1.0000
  C   C140      1.0  0.24047  0.96717  0.37875  1.0000
  H   H161      1.0  0.26647  0.88001  0.27106  1.0000
  H   H162      1.0  0.17243  0.95056  0.36528  1.0000
  H   H163      1.0  0.26393  0.98664  0.37903  1.0000
  S   S37       1.0  0.44189  0.79130  0.99691  1.0000
  H   H164      1.0  0.09697  0.52899  0.26620  1.0000
  C   C141      1.0  0.47941  0.56544  0.02627  1.0000
  C   C142      1.0  0.24932  0.95150  0.31917  1.0000
  H   H165      1.0  0.44240  0.85913  0.19215  1.0000
  H   H166      1.0  0.01591  0.69856  0.38422  1.0000
  H   H167      1.0  0.06358  0.92696  0.45118  1.0000
  H   H168      1.0  0.11173  0.97285  0.44595  1.0000
  C   C143      1.0  0.48097  0.59755  0.00919  1.0000
  C   C144      1.0  0.46923  0.85379  0.18886  1.0000
  C   C145      1.0  0.00842  0.89322  0.47533  1.0000
  C   C146      1.0  0.99407  0.62793  0.33068  1.0000
  H   H169      1.0  0.16115  0.50335  0.17262  1.0000
  C   C147      1.0  0.09398  0.97319  0.46773  1.0000
  Fe  Fe18      1.0  0.20461  0.98336  0.46773  1.0000
  H   H170      1.0  0.30714  0.72550  0.00847  1.0000
  C   C148      1.0  0.09364  0.85304  0.49118  1.0000
  Fe  Fe19      1.0  0.01269  0.51349  0.76413  1.0000
  H   H171      1.0  0.33322  0.93914  0.62599  1.0000
  H   H172      1.0  0.16160  0.52357  0.87465  1.0000
  Fe  Fe20      1.0  0.01419  0.78776  0.49306  1.0000
  S   S38       1.0  0.29512  0.57572  0.95049  1.0000
  C   C149      1.0  0.32539  0.60698  0.97192  1.0000
  C   C150      1.0  0.37572  0.65191  0.96776  1.0000
  H   H173      1.0  0.39362  0.76493  0.93088  1.0000
  C   C151      1.0  0.46154  0.85001  0.87176  1.0000
  Fe  Fe21      1.0  0.46669  0.78880  0.94417  1.0000
  C   C152      1.0  0.34771  0.77344  0.97954  1.0000
  H   H174      1.0  0.31487  0.70467  0.89782  1.0000
  S   S39       1.0  0.46397  0.72990  0.94517  1.0000
  S   S40       1.0  0.06765  0.52265  0.78779  1.0000
  C   C153      1.0  0.44293  0.86092  0.84299  1.0000
  C   C154      1.0  0.45671  0.88945  0.82222  1.0000
  C   C155      1.0  0.13678  0.51033  0.86618  1.0000
  C   C156      1.0  0.08703  0.50642  0.82578  1.0000
  H   H175      1.0  0.44224  0.89723  0.80000  1.0000
  S   S41       1.0  0.44312  0.81345  0.89670  1.0000
  C   C157      1.0  0.11928  0.52323  0.83748  1.0000
  C   C158      1.0  0.35253  0.62517  0.95254  1.0000
  C   C159      1.0  0.47685  0.97210  0.56375  1.0000
  C   C160      1.0  0.29978  0.71143  0.98485  1.0000
  C   C161      1.0  0.26566  0.66090  0.95959  1.0000
  H   H176      1.0  0.39649  0.66539  0.95246  1.0000
  H   H177      1.0  0.35536  0.61874  0.92543  1.0000
  S   S42       1.0  0.06395  0.82063  0.51130  1.0000
  Fe  Fe22      1.0  0.43670  0.98954  0.70259  1.0000
  C   C162      1.0  0.32708  0.77634  0.92100  1.0000
  H   H178      1.0  0.11282  0.87428  0.54030  1.0000
  H   H179      1.0  0.27324  0.65241  0.90533  1.0000
  H   H180      1.0  0.45192  0.97351  0.57640  1.0000
  H   H181      1.0  0.37114  0.72773  0.90970  1.0000
  C   C163      1.0  0.28005  0.66960  0.92723  1.0000
  C   C164      1.0  0.37373  0.74199  0.93480  1.0000
  S   S43       1.0  0.19501  0.54081  0.97567  1.0000
  N   N10       1.0  0.34023  0.75276  0.94723  1.0000
  H   H182      1.0  0.41772  0.84714  0.83660  1.0000
  H   H183      1.0  0.30116  0.78395  0.92868  1.0000
  C   C165      1.0  0.01834  0.89854  0.53659  1.0000
  C   C166      1.0  0.31463  0.72138  0.95205  1.0000
  H   H184      1.0  0.03404  0.97387  0.54801  1.0000
  H   H185      1.0  0.04359  0.88705  0.53574  1.0000
  N   N11       1.0  0.01310  0.91865  0.50452  1.0000
  H   H186      1.0  0.30000  0.96599  0.57957  1.0000
  H   H187      1.0  0.32422  0.76404  0.89490  1.0000
  C   C167      1.0  0.13941  0.90227  0.49779  1.0000
  Fe  Fe23      1.0  0.25300  0.53636  0.97462  1.0000
  H   H188      1.0  0.01863  0.91491  0.56035  1.0000
  H   H189      1.0  0.32367  0.78280  0.99028  1.0000
  C   C168      1.0  0.45727  0.49333  0.95725  1.0000
  H   H190      1.0  0.15579  0.91990  0.51444  1.0000
  C   C169      1.0  0.34004  0.96636  0.61921  1.0000
  H   H191      1.0  0.40869  0.51210  0.97174  1.0000
  Fe  Fe24      1.0  0.48730  0.97502  0.76085  1.0000
  S   S44       1.0  0.00101  0.72877  0.49605  1.0000
  C   C170      1.0  0.27548  0.68175  0.98830  1.0000
  C   C171      1.0  0.30408  0.69941  0.92337  1.0000
  H   H192      1.0  0.36667  0.79706  0.97490  1.0000
  H   H193      1.0  0.13090  0.54644  0.82420  1.0000
  H   H194      1.0  0.47146  0.51935  0.95662  1.0000
  C   C172      1.0  0.32113  0.98151  0.59285  1.0000
  H   H195      1.0  0.38459  0.72460  0.95401  1.0000
  H   H196      1.0  0.34534  0.80075  0.91762  1.0000
  C   C173      1.0  0.04996  0.97308  0.52506  1.0000
  H   H197      1.0  0.24794  0.63709  0.96266  1.0000
  S   S45       1.0  0.38903  0.96633  0.67147  1.0000
  C   C174      1.0  0.11498  0.87640  0.51236  1.0000
  C   C175      1.0  0.36740  0.98618  0.63710  1.0000
  S   S46       1.0  0.00613  0.49910  0.70743  1.0000
  C   C176      1.0  0.04292  0.94613  0.49989  1.0000
  H   H198      1.0  0.99740  0.87637  0.54004  1.0000
  S   S47       1.0  0.48707  0.96457  0.70291  1.0000
  H   H199      1.0  0.26390  0.98589  0.65001  1.0000
  H   H200      1.0  0.30154  0.98485  0.70022  1.0000
  H   H201      1.0  0.35148  0.98888  0.73212  1.0000
  H   H202      1.0  0.45392  0.95229  0.51583  1.0000
  C   C177      1.0  0.47809  0.96002  0.52968  1.0000
  C   C178      1.0  0.48944  0.90737  0.82990  1.0000
  H   H203      1.0  0.59705  0.37903  0.11826  1.0000
  Fe  Fe25      1.0  0.52233  0.00457  0.24932  1.0000
  C   C179      1.0  0.55194  0.36952  0.00756  1.0000
  H   H204      1.0  0.84453  0.13311  0.42392  1.0000
  C   C180      1.0  0.84385  0.13782  0.45158  1.0000
  H   H205      1.0  0.58873  0.24529  0.11466  1.0000
  S   S48       1.0  0.93013  0.43311  0.29922  1.0000
  H   H206      1.0  0.52871  0.35878  0.02120  1.0000
  C   C181      1.0  0.98080  0.42135  0.34843  1.0000
  H   H207      1.0  0.54846  0.21735  0.04950  1.0000
  S   S49       1.0  0.96887  0.24382  0.45255  1.0000
  H   H208      1.0  0.83837  0.46494  0.09815  1.0000
  C   C182      1.0  0.56829  0.40312  0.01609  1.0000
  C   C183      1.0  0.94026  0.36331  0.37755  1.0000
  C   C184      1.0  0.97726  0.32127  0.31239  1.0000
  Fe  Fe26      1.0  0.68221  0.00059  0.45207  1.0000
  H   H209      1.0  0.59872  0.10571  0.33531  1.0000
  S   S50       1.0  0.79135  0.08299  0.45217  1.0000
  C   C185      1.0  0.56924  0.00810  0.33959  1.0000
  H   H210      1.0  0.55214  0.26527  0.13111  1.0000
  H   H211      1.0  0.52237  0.13770  0.10372  1.0000
  H   H212      1.0  0.96233  0.34608  0.26635  1.0000
  H   H213      1.0  0.64010  0.39152  0.07114  1.0000
  S   S51       1.0  0.50441  0.10054  0.16671  1.0000
  H   H214      1.0  0.56002  0.32313  0.12037  1.0000
  H   H215      1.0  0.64646  0.34714  0.02606  1.0000
  S   S52       1.0  0.51603  0.01130  0.19160  1.0000
  Fe  Fe27      1.0  0.67100  0.48921  0.99491  1.0000
  H   H216      1.0  0.50316  0.06500  0.10037  1.0000
  C   C186      1.0  0.65705  0.06293  0.29138  1.0000
  H   H217      1.0  0.90868  0.09695  0.49121  1.0000
  H   H218      1.0  0.94058  0.13366  0.44896  1.0000
  H   H219      1.0  0.92450  0.34095  0.38846  1.0000
  H   H220      1.0  0.65874  0.04762  0.26791  1.0000
  H   H221      1.0  0.82180  0.45805  0.00718  1.0000
  C   C187      1.0  0.94750  0.41113  0.33492  1.0000
  H   H222      1.0  0.56603  0.02164  0.39377  1.0000
  H   H223      1.0  0.88418  0.18187  0.44976  1.0000
  H   H224      1.0  0.55716  0.41824  0.03603  1.0000
  C   C188      1.0  0.95593  0.14701  0.47057  1.0000
  C   C189      1.0  0.62609  0.07680  0.29881  1.0000
  H   H225      1.0  0.75457  0.08522  0.33705  1.0000
  C   C190      1.0  0.62442  0.36626  0.07242  1.0000
  C   C191      1.0  0.98389  0.34321  0.28369  1.0000
  H   H226      1.0  0.49396  0.18164  0.06973  1.0000
  C   C192      1.0  0.60711  0.30897  0.04766  1.0000
  C   C193      1.0  0.82012  0.11652  0.47237  1.0000
  C   C194      1.0  0.57904  0.32706  0.09979  1.0000
  C   C195      1.0  0.62804  0.34115  0.04705  1.0000
  H   H227      1.0  0.50201  0.01860  0.10646  1.0000
  C   C196      1.0  0.59935  0.41696  0.99957  1.0000
  H   H228      1.0  0.54487  0.22409  0.11001  1.0000
  C   C197      1.0  0.58195  0.30086  0.07427  1.0000
  C   C198      1.0  0.56127  0.24992  0.10919  1.0000
  N   N12       1.0  0.71176  0.09093  0.37189  1.0000
  C   C199      1.0  0.74301  0.07403  0.36159  1.0000
  C   C200      1.0  0.72307  0.12872  0.37731  1.0000
  C   C201      1.0  0.69945  0.07537  0.40543  1.0000
  C   C202      1.0  0.68298  0.08634  0.34615  1.0000
  C   C203      1.0  0.68517  0.06744  0.31460  1.0000
  C   C204      1.0  0.65112  0.10044  0.35268  1.0000
  H   H229      1.0  0.61048  0.29143  0.02634  1.0000
  S   S53       1.0  0.73684  0.99923  0.43224  1.0000
  C   C205      1.0  0.86644  0.16548  0.46617  1.0000
  H   H230      1.0  0.56193  0.25286  0.02126  1.0000
  H   H231      1.0  0.76402  0.07785  0.38166  1.0000
  H   H232      1.0  0.73672  0.04517  0.35867  1.0000
  H   H233      1.0  0.74541  0.13286  0.39594  1.0000
  H   H234      1.0  0.70201  0.14279  0.38836  1.0000
  H   H235      1.0  0.73152  0.14173  0.35245  1.0000
  H   H236      1.0  0.68998  0.04717  0.40212  1.0000
  H   H237      1.0  0.72063  0.07756  0.42526  1.0000
  H   H238      1.0  0.67765  0.08809  0.41682  1.0000
  H   H239      1.0  0.70802  0.05530  0.30748  1.0000
  H   H240      1.0  0.64735  0.11480  0.37623  1.0000
  C   C206      1.0  0.58204  0.01168  0.37389  1.0000
  Fe  Fe28      1.0  0.95317  0.48091  0.26794  1.0000
  S   S54       1.0  0.95013  0.47756  0.20938  1.0000
  N   N13       1.0  0.55845  0.26758  0.07519  1.0000
  C   C207      1.0  0.56604  0.24234  0.04773  1.0000
  Fe  Fe29      1.0  0.98028  0.30241  0.46059  1.0000
  H   H241      1.0  0.51302  0.29170  0.09149  1.0000
  H   H242      1.0  0.98138  0.15862  0.45964  1.0000
  C   C208      1.0  0.62313  0.09554  0.32938  1.0000
  H   H243      1.0  0.90151  0.37398  0.33957  1.0000
  H   H244      1.0  0.97162  0.40171  0.24600  1.0000
  C   C209      1.0  0.97372  0.37331  0.39075  1.0000
  C   C210      1.0  0.92732  0.38209  0.34975  1.0000
  C   C211      1.0  0.60001  0.35922  0.09879  1.0000
  H   H245      1.0  0.59327  0.23557  0.04972  1.0000
  H   H246      1.0  0.60403  0.07220  0.28121  1.0000
  H   H247      1.0  0.98312  0.45975  0.47190  1.0000
  C   C212      1.0  0.61530  0.00257  0.38263  1.0000
  H   H248      1.0  0.94722  0.38759  0.47037  1.0000
  S   S55       1.0  0.61878  0.45931  0.01153  1.0000
  H   H249      1.0  0.50976  0.03713  0.06420  1.0000
  Fe  Fe30      1.0  0.75361  0.03826  0.47472  1.0000
  H   H250      1.0  0.51931  0.28950  0.04547  1.0000
  H   H251      1.0  0.54368  0.01539  0.33329  1.0000
  C   C213      1.0  0.52197  0.27526  0.07030  1.0000
  H   H252      1.0  0.94171  0.16909  0.47931  1.0000
  S   S56       1.0  0.62957  0.00726  0.42652  1.0000
  S   S57       1.0  0.49629  0.05226  0.26247  1.0000
  C   C214      1.0  0.49767  0.14545  0.11225  1.0000
  H   H253      1.0  0.87897  0.48718  0.14541  1.0000
  H   H254      1.0  0.50329  0.25092  0.06974  1.0000
  C   C215      1.0  0.58953  0.99514  0.31359  1.0000
  H   H255      1.0  0.94004  0.06868  0.45476  1.0000
  H   H256      1.0  0.95128  0.30807  0.31669  1.0000
  H   H257      1.0  0.49372  0.06526  0.47301  1.0000
  H   H258      1.0  0.98924  0.35267  0.21302  1.0000
  C   C216      1.0  0.96668  0.06892  0.46358  1.0000
  C   C217      1.0  0.49446  0.03909  0.08837  1.0000
  H   H259      1.0  0.92670  0.42410  0.48660  1.0000
  C   C218      1.0  0.98179  0.09514  0.48676  1.0000
  H   H260      1.0  0.97383  0.02332  0.43292  1.0000
  C   C219      1.0  0.98593  0.04297  0.45070  1.0000
  C   C220      1.0  0.94295  0.40316  0.49413  1.0000
  S   S58       1.0  0.72457  0.47374  0.98492  1.0000
  Fe  Fe31      1.0  0.95958  0.46343  0.72460  1.0000
  H   H261      1.0  0.92932  0.43130  0.62017  1.0000
  H   H262      1.0  0.92731  0.38499  0.51202  1.0000
  C   C221      1.0  0.56632  0.34959  0.98209  1.0000
  Fe  Fe32      1.0  0.51373  0.01953  0.69748  1.0000
  C   C222      1.0  0.61377  0.39696  0.97422  1.0000
  H   H263      1.0  0.51492  0.10201  0.72790  1.0000
  C   C223      1.0  0.94376  0.44377  0.59853  1.0000
  C   C224      1.0  0.84177  0.15094  0.52258  1.0000
  S   S59       1.0  0.51762  0.02867  0.75512  1.0000
  H   H264      1.0  0.59979  0.07248  0.60447  1.0000
  C   C225      1.0  0.96499  0.34064  0.62471  1.0000
  H   H265      1.0  0.84512  0.43027  0.98061  1.0000
  N   N14       1.0  0.97648  0.41826  0.50986  1.0000
  H   H266      1.0  0.84065  0.15603  0.55016  1.0000
  H   H267      1.0  0.53333  0.18116  0.72077  1.0000
  C   C226      1.0  0.94946  0.35786  0.65198  1.0000
  H   H268      1.0  0.58377  0.01584  0.49468  1.0000
  H   H269      1.0  0.96143  0.16264  0.53919  1.0000
  C   C227      1.0  0.58950  0.02751  0.63786  1.0000
  H   H270      1.0  0.92918  0.08596  0.53130  1.0000
  H   H271      1.0  0.59989  0.01254  0.53805  1.0000
  C   C228      1.0  0.81943  0.12306  0.50805  1.0000
  H   H272      1.0  0.87040  0.45323  0.92364  1.0000
  S   S60       1.0  0.94618  0.40853  0.70212  1.0000
  C   C229      1.0  0.96961  0.43971  0.54056  1.0000
  H   H273      1.0  0.95261  0.31588  0.61498  1.0000
  H   H274      1.0  0.92498  0.34625  0.66280  1.0000
  H   H275      1.0  0.64988  0.05045  0.57422  1.0000
  C   C230      1.0  0.96561  0.38951  0.66585  1.0000
  C   C231      1.0  0.80463  0.49052  0.84454  1.0000
  H   H276      1.0  0.80129  0.10705  0.52439  1.0000
  S   S61       1.0  0.89301  0.20685  0.52192  1.0000
  N   N15       1.0  0.55661  0.13932  0.74622  1.0000
  C   C232      1.0  0.54139  0.11375  0.71995  1.0000
  C   C233      1.0  0.53471  0.16875  0.74676  1.0000
  C   C234      1.0  0.55870  0.12173  0.78027  1.0000
  C   C235      1.0  0.54156  0.13234  0.81052  1.0000
  C   C236      1.0  0.57847  0.09291  0.78390  1.0000
  C   C237      1.0  0.54368  0.11469  0.84205  1.0000
  C   C238      1.0  0.58014  0.07526  0.81549  1.0000
  C   C239      1.0  0.56267  0.08606  0.84447  1.0000
  H   H277      1.0  0.55750  0.09190  0.71587  1.0000
  H   H278      1.0  0.56352  0.07199  0.86877  1.0000
  Fe  Fe33      1.0  0.94106  0.24284  0.50400  1.0000
  C   C240      1.0  0.86536  0.17237  0.50179  1.0000
  H   H279      1.0  0.59205  0.08316  0.76205  1.0000
  H   H280      1.0  0.52562  0.41772  0.95589  1.0000
  H   H281      1.0  0.60914  0.13244  0.73015  1.0000
  S   S62       1.0  0.54749  0.30685  0.97079  1.0000
  H   H282      1.0  0.62361  0.99722  0.50276  1.0000
  S   S63       1.0  0.96790  0.47515  0.78197  1.0000
  H   H283      1.0  0.60519  0.17151  0.75475  1.0000
  C   C241      1.0  0.59214  0.15349  0.73484  1.0000
  C   C242      1.0  0.98176  0.47599  0.54337  1.0000
  C   C243      1.0  0.82971  0.45304  0.98007  1.0000
  S   S64       1.0  0.55323  0.04417  0.65778  1.0000
  H   H284      1.0  0.63764  0.40726  0.96132  1.0000
  H   H285      1.0  0.54525  0.18968  0.76516  1.0000
  H   H286      1.0  0.50728  0.15950  0.75420  1.0000
  C   C244      1.0  0.63609  0.03487  0.59429  1.0000
  H   H287      1.0  0.59450  0.05264  0.81732  1.0000
  H   H288      1.0  0.53883  0.12595  0.69402  1.0000
  H   H289      1.0  0.52566  0.15370  0.81050  1.0000
  H   H290      1.0  0.59150  0.16819  0.70999  1.0000
  S   S65       1.0  0.94820  0.30205  0.50961  1.0000
  H   H291      1.0  0.52981  0.12288  0.86458  1.0000
  H   H292      1.0  0.98538  0.12689  0.55015  1.0000
  H   H293      1.0  0.51569  0.42214  0.91019  1.0000
  C   C245      1.0  0.60772  0.04733  0.61158  1.0000
  H   H294      1.0  0.84418  0.48172  0.80660  1.0000
  H   H295      1.0  0.94082  0.39669  0.56925  1.0000
  H   H296      1.0  0.60881  0.34811  0.94603  1.0000
  H   H297      1.0  0.78789  0.46704  0.83755  1.0000
  C   C246      1.0  0.59732  0.36344  0.96558  1.0000
  C   C247      1.0  0.60017  0.99512  0.64688  1.0000
  C   C248      1.0  0.64666  0.00241  0.60315  1.0000
  C   C249      1.0  0.95042  0.42423  0.56913  1.0000
  H   H298      1.0  0.98087  0.37055  0.53827  1.0000
  C   C250      1.0  0.51086  0.40516  0.93345  1.0000
  Fe  Fe34      1.0  0.49279  0.27933  0.97992  1.0000
  C   C251      1.0  0.95631  0.47910  0.60060  1.0000
  C   C252      1.0  0.97859  0.14384  0.52835  1.0000
  Fe  Fe35      1.0  0.70558  0.99742  0.52812  1.0000
  H   H299      1.0  0.80491  0.44518  0.96573  1.0000
  C   C253      1.0  0.92652  0.10737  0.51241  1.0000
  N   N16       1.0  0.96121  0.12282  0.49952  1.0000
  S   S66       1.0  0.69822  0.04209  0.49218  1.0000
  N   N17       1.0  0.84994  0.48405  0.96405  1.0000
  C   C254      1.0  0.59678  0.99881  0.51278  1.0000
  H   H300      1.0  0.50163  0.46900  0.94275  1.0000
  H   H301      1.0  0.82943  0.46824  0.91350  1.0000
  C   C255      1.0  0.85486  0.47569  0.92684  1.0000
  S   S67       1.0  0.76278  0.99669  0.51427  1.0000
  H   H302      1.0  0.52278  0.38061  0.92788  1.0000
  H   H303      1.0  0.91229  0.12721  0.52575  1.0000
  S   S68       1.0  0.98875  0.23538  0.53603  1.0000
  H   H304      1.0  0.91948  0.49108  0.93954  1.0000
  H   H305      1.0  0.50691  0.99204  0.60809  1.0000
  C   C256      1.0  0.86157  0.50416  0.13395  1.0000
  C   C257      1.0  0.86180  0.53848  0.14611  1.0000
  C   C258      1.0  0.93334  0.62840  0.24003  1.0000
  S   S69       1.0  0.51975  0.83560  0.05819  1.0000
  Fe  Fe36      1.0  0.96214  0.73664  0.45333  1.0000
  S   S70       1.0  0.93091  0.53279  0.26965  1.0000
  S   S71       1.0  0.94386  0.69746  0.41006  1.0000
  C   C259      1.0  0.84507  0.84601  0.46605  1.0000
  H   H306      1.0  0.54660  0.87238  0.26799  1.0000
  H   H307      1.0  0.84957  0.81985  0.45830  1.0000
  S   S72       1.0  0.69154  0.52810  0.03577  1.0000
  Fe  Fe37      1.0  0.74558  0.51581  0.02273  1.0000
  C   C260      1.0  0.51010  0.55083  0.03448  1.0000
  C   C261      1.0  0.83240  0.91373  0.48618  1.0000
  H   H308      1.0  0.60609  0.60511  0.04281  1.0000
  H   H309      1.0  0.60154  0.94523  0.47008  1.0000
  H   H310      1.0  0.52996  0.91343  0.25908  1.0000
  H   H311      1.0  0.87822  0.58338  0.24854  1.0000
  H   H312      1.0  0.89180  0.59840  0.29120  1.0000
  C   C262      1.0  0.55231  0.89807  0.25471  1.0000
  S   S73       1.0  0.98697  0.55878  0.20789  1.0000
  H   H313      1.0  0.56257  0.96413  0.46150  1.0000
  C   C263      1.0  0.93406  0.68426  0.28882  1.0000
  H   H314      1.0  0.93046  0.60663  0.22082  1.0000
  C   C264      1.0  0.51742  0.89179  0.10234  1.0000
  H   H315      1.0  0.63972  0.67453  0.03333  1.0000
  H   H316      1.0  0.56755  0.92562  0.17173  1.0000
  C   C265      1.0  0.60220  0.68697  0.99485  1.0000
  H   H317      1.0  0.59226  0.70696  0.01056  1.0000
  H   H318      1.0  0.51714  0.80250  0.14136  1.0000
  S   S74       1.0  0.67555  0.61890  0.00629  1.0000
  H   H319      1.0  0.56462  0.83764  0.17030  1.0000
  H   H320      1.0  0.94908  0.65066  0.22703  1.0000
  C   C266      1.0  0.93550  0.71051  0.31409  1.0000
  Fe  Fe38      1.0  0.49664  0.79557  0.01779  1.0000
  C   C267      1.0  0.53854  0.84272  0.17702  1.0000
  H   H321      1.0  0.85274  0.65295  0.22613  1.0000
  H   H322      1.0  0.89343  0.67258  0.20857  1.0000
  H   H323      1.0  0.54559  0.89409  0.10099  1.0000
  H   H324      1.0  0.62077  0.53723  0.00802  1.0000
  C   C268      1.0  0.83880  0.56008  0.13083  1.0000
  C   C269      1.0  0.81576  0.54756  0.10387  1.0000
  H   H325      1.0  0.61491  0.89766  0.22955  1.0000
  H   H326      1.0  0.83872  0.58668  0.13993  1.0000
  H   H327      1.0  0.79827  0.56450  0.09247  1.0000
  H   H328      1.0  0.84533  0.66605  0.28436  1.0000
  C   C270      1.0  0.88002  0.64825  0.22029  1.0000
  N   N18       1.0  0.89891  0.63794  0.25155  1.0000
  C   C271      1.0  0.96487  0.66969  0.38167  1.0000
  C   C272      1.0  0.94465  0.64127  0.36566  1.0000
  C   C273      1.0  0.95919  0.62031  0.34065  1.0000
  H   H329      1.0  0.91739  0.63569  0.37242  1.0000
  H   H330      1.0  0.94328  0.59852  0.32886  1.0000
  C   C274      1.0  0.81532  0.51314  0.09194  1.0000
  C   C275      1.0  0.87093  0.67788  0.29203  1.0000
  H   H331      1.0  0.50930  0.94790  0.48715  1.0000
  C   C276      1.0  0.94558  0.51104  0.02156  1.0000
  H   H332      1.0  0.55746  0.49948  0.03845  1.0000
  Fe  Fe39      1.0  0.93219  0.53121  0.21095  1.0000
  H   H333      1.0  0.58505  0.58603  0.08073  1.0000
  H   H334      1.0  0.82148  0.52006  0.99271  1.0000
  N   N19       1.0  0.55985  0.89339  0.21725  1.0000
  H   H335      1.0  0.58312  0.94676  0.21136  1.0000
  H   H336      1.0  0.95887  0.67740  0.27973  1.0000
  C   C277      1.0  0.51137  0.82200  0.16026  1.0000
  C   C278      1.0  0.53169  0.86971  0.20052  1.0000
  H   H337      1.0  0.53734  0.94000  0.20249  1.0000
  C   C279      1.0  0.50104  0.91480  0.12382  1.0000
  C   C280      1.0  0.54347  0.56835  0.02586  1.0000
  S   S75       1.0  0.88994  0.55569  0.18034  1.0000
  H   H338      1.0  0.56070  0.92086  0.48090  1.0000
  N   N20       1.0  0.57664  0.55433  0.03467  1.0000
  C   C281      1.0  0.63569  0.98972  0.35662  1.0000
  C   C282      1.0  0.90158  0.66675  0.27732  1.0000
  C   C283      1.0  0.87121  0.86733  0.48362  1.0000
  C   C284      1.0  0.90499  0.71997  0.32877  1.0000
  C   C285      1.0  0.88262  0.50047  0.01932  1.0000
  H   H339      1.0  0.85182  0.60955  0.27260  1.0000
  C   C286      1.0  0.49617  0.87492  0.20546  1.0000
  Fe  Fe40      1.0  0.74351  0.95816  0.47271  1.0000
  C   C287      1.0  0.87274  0.70392  0.31756  1.0000
  S   S76       1.0  0.91796  0.74422  0.49052  1.0000
  C   C288      1.0  0.56210  0.92793  0.19995  1.0000
  C   C289      1.0  0.62276  0.98586  0.32234  1.0000
  H   H340      1.0  0.63872  0.97589  0.30244  1.0000
  C   C290      1.0  0.57190  0.52078  0.05413  1.0000
  C   C291      1.0  0.62921  0.66853  0.00768  1.0000
  H   H341      1.0  0.87831  0.62739  0.19998  1.0000
  C   C292      1.0  0.81278  0.85850  0.45869  1.0000
  S   S77       1.0  0.49689  0.73697  0.02398  1.0000
  C   C293      1.0  0.57500  0.94766  0.48062  1.0000
  Fe  Fe41      1.0  0.98654  0.55711  0.26654  1.0000
  H   H342      1.0  0.59406  0.85362  0.22585  1.0000
  H   H343      1.0  0.90649  0.73921  0.34950  1.0000
  H   H344      1.0  0.51646  0.93489  0.13849  1.0000
  H   H345      1.0  0.57454  0.91327  0.26851  1.0000
  H   H346      1.0  0.62393  0.57022  0.06359  1.0000
  H   H347      1.0  0.60425  0.88040  0.18768  1.0000
  C   C294      1.0  0.59871  0.57996  0.05644  1.0000
  H   H348      1.0  0.94856  0.61930  0.26218  1.0000
  H   H349      1.0  0.96942  0.51789  0.03622  1.0000
  C   C295      1.0  0.87936  0.60608  0.26669  1.0000
  S   S78       1.0  0.97839  0.79517  0.44793  1.0000
  H   H350      1.0  0.98549  0.87328  0.47945  1.0000
  H   H351      1.0  0.55818  0.52357  0.07917  1.0000
  H   H352      1.0  0.85832  0.49980  0.03328  1.0000
  H   H353      1.0  0.84910  0.71129  0.32925  1.0000
  S   S79       1.0  0.78713  0.49559  0.05788  1.0000
  C   C296      1.0  0.59469  0.88049  0.21492  1.0000
  H   H354      1.0  0.79267  0.84175  0.44521  1.0000
  H   H355      1.0  0.66125  0.98247  0.36294  1.0000
  H   H356      1.0  0.91211  0.51476  0.06573  1.0000
  C   C297      1.0  0.80617  0.89239  0.46871  1.0000
  C   C298      1.0  0.54393  0.60069  0.00802  1.0000
  C   C299      1.0  0.83843  0.49161  0.10712  1.0000
  C   C300      1.0  0.59585  0.54814  0.00236  1.0000
  C   C301      1.0  0.91338  0.50921  0.03814  1.0000
  S   S80       1.0  0.76455  0.90627  0.45961  1.0000
  H   H357      1.0  0.59748  0.51139  0.06061  1.0000
  C   C302      1.0  0.49767  0.86551  0.08287  1.0000
  H   H358      1.0  0.96053  0.72251  0.32362  1.0000
  H   H359      1.0  0.97592  0.95130  0.48455  1.0000
  H   H360      1.0  0.50698  0.52598  0.04778  1.0000
  Fe  Fe42      1.0  0.93688  0.80173  0.48778  1.0000
  C   C303      1.0  0.51320  0.61504  0.99993  1.0000
  H   H361      1.0  0.56822  0.61529  0.00035  1.0000
  S   S81       1.0  0.68718  0.95622  0.48886  1.0000
  S   S82       1.0  0.57486  0.99071  0.26980  1.0000
  Fe  Fe43      1.0  0.69712  0.56735  0.99209  1.0000
  H   H362      1.0  0.53374  0.87857  0.76440  1.0000
  H   H363      1.0  0.96014  0.65126  0.55481  1.0000
  S   S83       1.0  0.94367  0.71679  0.58666  1.0000
  H   H364      1.0  0.88043  0.74197  0.56125  1.0000
  H   H365      1.0  0.76510  0.87208  0.59190  1.0000
  C   C304      1.0  0.81646  0.81202  0.62206  1.0000
  Fe  Fe44      1.0  0.93440  0.51903  0.77358  1.0000
  Fe  Fe45      1.0  0.95771  0.73881  0.53246  1.0000
  C   C305      1.0  0.79041  0.83464  0.62163  1.0000
  H   H366      1.0  0.86585  0.54534  0.70108  1.0000
  C   C306      1.0  0.62876  0.98282  0.62979  1.0000
  S   S84       1.0  0.55533  0.70311  0.94343  1.0000
  S   S85       1.0  0.97343  0.79667  0.53221  1.0000
  H   H367      1.0  0.51043  0.79264  0.88874  1.0000
  S   S86       1.0  0.52167  0.79636  0.96461  1.0000
  Fe  Fe46      1.0  0.73071  0.51647  0.94460  1.0000
  C   C307      1.0  0.54224  0.96698  0.53137  1.0000
  H   H368      1.0  0.89167  0.58233  0.66018  1.0000
  C   C308      1.0  0.56468  0.86429  0.80748  1.0000
  H   H369      1.0  0.58794  0.75235  0.82653  1.0000
  S   S87       1.0  0.67488  0.52887  0.95164  1.0000
  C   C309      1.0  0.58863  0.67994  0.96154  1.0000
  C   C310      1.0  0.86464  0.90122  0.49363  1.0000
  H   H370      1.0  0.86505  0.77586  0.53638  1.0000
  H   H371      1.0  0.95901  0.63554  0.68286  1.0000
  C   C311      1.0  0.86690  0.76287  0.62334  1.0000
  H   H372      1.0  0.90324  0.82148  0.56445  1.0000
  H   H373      1.0  0.85146  0.66541  0.60564  1.0000
  H   H374      1.0  0.49828  0.75755  0.85922  1.0000
  C   C312      1.0  0.51951  0.76904  0.87664  1.0000
  H   H375      1.0  0.94853  0.69273  0.65708  1.0000
  C   C313      1.0  0.98018  0.93501  0.50771  1.0000
  H   H376      1.0  0.51449  0.64007  0.98660  1.0000
  H   H377      1.0  0.90471  0.82563  0.61079  1.0000
  H   H378      1.0  0.92227  0.78967  0.58980  1.0000
  C   C314      1.0  0.96409  0.61029  0.63363  1.0000
  C   C315      1.0  0.56317  0.74641  0.84122  1.0000
  Fe  Fe47      1.0  0.96944  0.54052  0.70321  1.0000
  C   C316      1.0  0.62878  0.63506  0.95460  1.0000
  C   C317      1.0  0.60224  0.65399  0.94149  1.0000
  S   S88       1.0  0.91172  0.85254  0.49563  1.0000
  H   H379      1.0  0.84845  0.82931  0.54055  1.0000
  H   H380      1.0  0.63883  0.61515  0.93886  1.0000
  H   H381      1.0  0.59210  0.64836  0.91564  1.0000
  C   C318      1.0  0.95982  0.64802  0.58271  1.0000
  H   H382      1.0  0.58167  0.76798  0.90509  1.0000
  H   H383      1.0  0.86782  0.49864  0.91238  1.0000
  C   C319      1.0  0.79422  0.51214  0.87124  1.0000
  C   C320      1.0  0.85384  0.55893  0.72263  1.0000
  S   S89       1.0  0.98010  0.55832  0.75828  1.0000
  C   C321      1.0  0.86121  0.76155  0.56140  1.0000
  C   C322      1.0  0.49413  0.86813  0.87962  1.0000
  C   C323      1.0  0.95361  0.67610  0.60404  1.0000
  C   C324      1.0  0.95318  0.67120  0.64028  1.0000
  C   C325      1.0  0.95891  0.63868  0.65504  1.0000
  C   C326      1.0  0.51794  0.82593  0.78164  1.0000
  H   H384      1.0  0.80393  0.50838  0.95098  1.0000
  H   H385      1.0  0.50873  0.86031  0.90173  1.0000
  H   H386      1.0  0.86449  0.57456  0.86873  1.0000
  S   S90       1.0  0.92210  0.50383  0.71793  1.0000
  C   C327      1.0  0.83253  0.82987  0.56349  1.0000
  H   H387      1.0  0.53327  0.91019  0.86501  1.0000
  N   N21       1.0  0.57683  0.96367  0.51580  1.0000
  C   C328      1.0  0.96472  0.61530  0.59743  1.0000
  S   S91       1.0  0.89869  0.54173  0.81366  1.0000
  H   H388      1.0  0.60632  0.79469  0.87397  1.0000
  H   H389      1.0  0.97221  0.50610  0.97321  1.0000
  C   C329      1.0  0.85847  0.52911  0.83547  1.0000
  C   C330      1.0  0.84791  0.55091  0.86195  1.0000
  H   H390      1.0  0.96883  0.59365  0.58056  1.0000
  H   H391      1.0  0.54288  0.73488  0.82272  1.0000
  N   N22       1.0  0.86606  0.78522  0.59195  1.0000
  C   C331      1.0  0.90049  0.80644  0.58914  1.0000
  H   H392      1.0  0.58157  0.91548  0.54303  1.0000
  H   H393      1.0  0.58650  0.97959  0.66706  1.0000
  C   C332      1.0  0.83821  0.80878  0.59270  1.0000
  H   H394      1.0  0.81904  0.79749  0.64568  1.0000
  H   H395      1.0  0.82323  0.60897  0.75428  1.0000
  H   H396      1.0  0.84175  0.74608  0.62688  1.0000
  C   C333      1.0  0.57984  0.78901  0.88541  1.0000
  C   C334      1.0  0.82883  0.51392  0.96568  1.0000
  S   S92       1.0  0.75389  0.49978  0.89301  1.0000
  C   C335      1.0  0.51023  0.95754  0.51350  1.0000
  H   H397      1.0  0.87311  0.77884  0.64712  1.0000
  H   H398      1.0  0.63689  0.95779  0.63706  1.0000
  C   C336      1.0  0.81615  0.54245  0.87985  1.0000
  C   C337      1.0  0.78530  0.85459  0.59225  1.0000
  H   H399      1.0  0.50626  0.77568  0.80432  1.0000
  S   S93       1.0  0.50951  0.94182  0.80321  1.0000
  H   H400      1.0  0.97976  0.95185  0.53108  1.0000
  H   H401      1.0  0.57329  0.81239  0.90006  1.0000
  Fe  Fe48      1.0  0.51767  0.73742  0.96937  1.0000
  H   H402      1.0  0.85763  0.59607  0.78062  1.0000
  H   H403      1.0  0.57988  0.88980  0.80852  1.0000
  C   C338      1.0  0.85371  0.65117  0.62967  1.0000
  N   N23       1.0  0.86816  0.59629  0.72552  1.0000
  C   C339      1.0  0.85214  0.61083  0.75661  1.0000
  H   H404      1.0  0.82362  0.68414  0.65949  1.0000
  C   C340      1.0  0.90629  0.59853  0.73189  1.0000
  C   C341      1.0  0.86181  0.61476  0.69279  1.0000
  C   C342      1.0  0.87622  0.60414  0.66113  1.0000
  C   C343      1.0  0.84231  0.64401  0.69128  1.0000
  H   H405      1.0  0.88479  0.61429  0.60667  1.0000
  H   H406      1.0  0.95710  0.91492  0.50999  1.0000
  H   H407      1.0  0.77406  0.83682  0.64421  1.0000
  H   H408      1.0  0.83460  0.74697  0.56100  1.0000
  H   H409      1.0  0.88763  0.74491  0.62148  1.0000
  H   H410      1.0  0.86285  0.63853  0.76139  1.0000
  H   H411      1.0  0.52190  0.74936  0.89741  1.0000
  H   H412      1.0  0.80843  0.55961  0.89999  1.0000
  C   C344      1.0  0.53860  0.85803  0.78249  1.0000
  H   H413      1.0  0.91835  0.62622  0.73233  1.0000
  H   H414      1.0  0.91230  0.58674  0.75723  1.0000
  H   H415      1.0  0.92010  0.58457  0.71181  1.0000
  C   C345      1.0  0.80633  0.85219  0.56325  1.0000
  C   C346      1.0  0.57000  0.83866  0.83211  1.0000
  C   C347      1.0  0.87234  0.62224  0.63019  1.0000
  S   S94       1.0  0.96805  0.56760  0.65022  1.0000
  H   H416      1.0  0.80233  0.86779  0.54041  1.0000
  H   H417      1.0  0.83014  0.65382  0.71391  1.0000
  H   H418      1.0  0.82519  0.55618  0.71790  1.0000
  N   N24       1.0  0.55310  0.77825  0.85845  1.0000
  H   H419      1.0  0.62215  0.93704  0.52686  1.0000
  H   H420      1.0  0.85857  0.54414  0.74680  1.0000
  C   C348      1.0  0.54909  0.80570  0.83222  1.0000
  H   H421      1.0  0.49721  0.82151  0.76256  1.0000
  C   C349      1.0  0.83839  0.66181  0.66006  1.0000
  H   H422      1.0  0.56704  0.72551  0.86052  1.0000
  H   H423      1.0  0.59006  0.84572  0.85121  1.0000
  S   S95       1.0  0.68168  0.98494  0.58169  1.0000
  C   C350      1.0  0.52321  0.79999  0.80589  1.0000
  C   C351      1.0  0.59658  0.94150  0.53837  1.0000
  H   H424      1.0  0.98486  0.52277  0.57509  1.0000
  C   C352      1.0  0.50793  0.89656  0.85881  1.0000
  H   H425      1.0  0.60309  0.95366  0.56404  1.0000
  H   H426      1.0  0.84330  0.53804  0.95458  1.0000
  H   H427      1.0  0.60316  0.57255  0.98748  1.0000
  C   C353      1.0  0.91637  0.49556  0.96698  1.0000
  H   H428      1.0  0.82770  0.93977  0.49419  1.0000
  H   H429      1.0  0.88449  0.91787  0.50751  1.0000
  H   H430      1.0  0.58025  0.52921  0.98500  1.0000
  C   C354      1.0  0.83661  0.49876  0.82692  1.0000
  C   C355      1.0  0.97518  0.49519  0.57310  1.0000
  C   C356      1.0  0.53991  0.97993  0.56571  1.0000
  C   C357      1.0  0.64253  0.64227  0.98782  1.0000
  S   S96       1.0  0.75354  0.55814  0.98199  1.0000
  C   C358      1.0  0.50774  0.98237  0.58161  1.0000
  C   C359      1.0  0.94707  0.50432  0.98607  1.0000
  H   H431      1.0  0.95160  0.49404  0.62370  1.0000
  C   C360      1.0  0.88308  0.49310  0.98322  1.0000
  H   H432      1.0  0.56308  0.98803  0.58072  1.0000
