data_image0
_chemical_formula_structural       FeC2FeS2FeH2S2H8CNCHC2HCHC2SHCHCFeH2SFeS2FeSCHCFeC2HCHC2HCH3CSC2HCH3NCHFeHSCHSFeCHFeS2FeSFeS3FeHCSC2SFeS2FeS2FeSFeS3FeS2FeS2FeSFeS3Fe2SFeS2FeS2C6H4C2H2CH4C6H4C2FeHC2H3CHCSH2CSH2C6H4C6H4C6H4C6H4C6H4FeCH3NC9HCH5CH6SCHC2H2C2H3CH3C2H2NC9H14CHNC9H15C2SHCH3C2HCHNHNC2H3C2HC2HCS2HC2HSCH3SFeC2H2CH2CHSHSHC3SH3C2SHC2H2C2HC2H2C2H3CH4CHNC2NHC2H2CH2CNH2CHCH8SHCH2CH2CHC2NHCH4CNH2CH3CHCH2CHCH4FeS2FeS2FeSFeS3CSCFeS2FeSCFeSFeS3FeS2FeS2FeSFeS3HFeSFeS2FeS2H3CHC6H4C6H4CH2C2H2C9H6C6H3C6H4C6H4C5H3C7H3C2NC6H6C2H4CHC2H6NC9H14C5H3CHSHNCS2FeCHC3H3C3H2C3HC2H2C4H2CHC4H3CHNCHNHC2H4CHNH2CH3FeH8CHCHC2H2SH2CHNHCHCHC2HC2SHFeHFeCSHCH6C2H5C2H2CHC3H2SHC2H10NCHSC3S2H2CH2NCH3CSH2CSCHC2NH3SHC2H2CH5CHNH2FeC2H4CH2CH2C3HCNCHCH5CH2SH5CHC4HC3H2CH2CH2C2SH2C3H3C3HNCH4C2H2C3HSCH2C6H6NCH2CH2CHC2HC2HCFeSHFeS2FeCFeS3FeSFeS2FeS2FeS2FeSFeS5FeSCFeHS2C6H4C2HC3HFeH2C6H4C6H4C6H4C6H4SFeCHSC2H3NCHNHCHCHCH4C2HCH5CH2C2HCHCH2C2HNC9H15CH2C6H3CHNHC2H8FeH2C6FeNHC2H2CH4CHCHSHSFeS2CNH3SCH2CSCH3SH2CHCFeH2SC2HNH3C2HCNH2CHCH3C2HC3H3CHCH3CH2SCH2SCHCH2FeSH2CH2CH4CH2CHC5HFeS2FeS2FeSCHSCFeS2FeS2FeS2FeS2Fe2S6H2C6H4C6H4C6H5C6H4C6H4C5NH5NHCHCH2FeHCHSFeHCNC6H11NC9H16SHCH2CHFeH2CHSHC2NCHNCHC2H2CFeHCH2C2FeCH3CHCHC3H2CH2FeHCHCHCHCSH2CNH2C2S2CHS3H2CS2C2HCHFeHFeSH3C4SH3SCFeCHCFeCNH2C2SHC2HCHC2H3C2HFeCH2C4H2CHCHC2H4SCH2CH3NH4CH3CHC3SH4CH2CH2CHC2H2CFeS2HFeHFeSFeS2FeS2FeSFeS4HCHCSHFeSHFeS2FeSFeS4CHCHC3HC6H4C6H4CSHC6H4C6H5CNH3C2HC2H2FeCH5CHC2H2NH2CHC2H2CH3CH2NC9H15NC9H18C2H2CHCSC2H2CFeC3HC5HFeC2FeH2C2HSH2C2HNH4C2H2NHC2H9CHC2H2FeS2HN2CFeSHFeS2FeSHFeSFeS4CH3CSCFeS2FeS2FeHFeS3C6H2C6H3CH3C2HC6H4C6H2NH2FeCSC9H4SH2FeNC9H16FeHCH2CH5C2HCH3CH2C3HCH2SH2C2H6CSH2CH8FeCHC2HCH2CSNH4CHC2HCHC4NHNC2H2C3H3C3NHC2SH3CHCHC2H2C2H2C2H2C3HSH3SCH2CHC2HC2H3CHCHCH2CH2C2HCFeS2FeS2FeSFeS3FeS2FeS2FeSFeS3CFeSFeS2FeCFeS3FeSCFeS2FeSFeHS2FeS2FeS2FeSCS2H4SCH2C6H4C6H2CH3CNHC6H5CHFeC6H4C3H4CH2C6H4C6H4CNHC5H2CH2C6H8SH5CH5CH3NC9H16C6HCH2CSH2CHC5NCHC2H4CH12CHNC9H16C2NH4CFeHFeSHCNC8H6NCHS3CH2CHCH2CH2CHNCH3C2H3CH2C2H4C6HCHC6HCNH5C3H3SHC3H2CHCHCHCH2C2HNHC2SC2H10C2HCSH3CHC2HCFeS2FeS2FeHFeS3FeS2FeS2NFeS3FeS2FeS2FeCFeS3FeS2FeS2FeSFeS2FeS2FeS2FeSFeS3CSCH2C6H3C7H3C3SCNHCH4C6H2C6H4C4H4C6H4C6H4C6H4CH4C2H3C6H4CH2C2H3CH4CH5CHC2H2CSH2C3NC9H16C2HCHCHNCH2C2HNC5H10CH2CH2C2HC2NHCH3CH4CSHCH2C2NFeH4CH3C2HCHCH8FeCHSHCHNCH2CH2C3H2SCHCH2FeHCHNHCH2CHCHC2H2SHCH2CH2C2HCH2NCH2CHCH5CH3NHC3SC2HCSHCH5SH4C2SC2H6C3FeS2FeS2FeSFeS3FeS2FeS2FeSFeS3H2FeS2FeS2FeSFeS3H6CH4C2H2C3H2C6H4C3NH4C4H2FeH2C6H4CHSHC2H2C2H2C2H4C6H7C2HC4H3C2H4CSFeHCHCH3C4H3CHCH2CNSH4CHCHC2HC2HCH3C3H8C5NCNCH2C2HNCH2SC2HC2HCHCH2CHC2HCHCS2CHNC2H6C3HCH2SHCHCHCHC4HCFeHC2H5C2H2NCH5FeCHC2H3CHC2H2C4H3CH2C2HCH2C3SCHFeS2FeS2FeSFeS3FeSFeS2FeSFeCS2HCSCHFeS2FeS2FeSFeS3CHCHCH2CH4C4NHCH2SHC2H2C6H4CNCHC2H4C6H4CHCHC4H2C6H4C4H2SH3NHCHCHC2H2C2HC3HCHCHC2H3CH2C4H2C3H3FeH3CHC3H3NHSCH2CHCH4CHCHCHC4FeH5C2H6SCHC2H6FeH3C4HC3H2CSH3NCH5NH4C2HCH2CNSH4CHCHCH2C2HC10H3CHCHC2SH2CHCH2CH2C3HCHNC2H3SCHCHNHC5H3CHC2H3CH2C2HC2H3SCHCH2CHCHCHFeH3C2HCHCHCH2CHCHSNCHCH2CHSC3HCH3CHCH9CH2SH2C5SCFeS2H2CH3SCHFeSH2C2HSC2SHCFeS2FeS2FeSFeS3FeS2FeS2FeHFeS3FeS2FeS2FeSFeS3FeS2FeS2FeSFeS3C3H3CHC6H4C6H4CH3C4H3C9NCHC6H4C3H7CSC2H4CHC8H3C2H3C2H3CHCHCNHNC2H3FeCHC2NC9H15C3HCHCHCHCHCHCHCH2FeHCHNC4HCH2NH5CH7CNH2C2SHCNH2C2H6C2HCHC4H4SC3H4CH6NH5SH2CH2FeC3H2CH3CH2CHCHCNH5C2HCH2C2HC3H2CSHFeH3C3HSHC2H3C2HSCH2CHCHC4HCHCSH2NSC4HCH4CH3C2HS2H2FeSCFeS2Fe2S3H4FeS2FeS2FeSFeS3FeS2FeS2FeSFeS3FeS2FeS2FeSFeS3H2C6H7C2HCH2C7H4C4H3C4H2C4H2CH3CH5CH2C2H2C6H9CH2C8H4CHCNC9H14CHCHC2HCFeCHSHC2H2CNC9H14SH4NHCHC3HC2H3C2H6NCHCH2C2H2SCHC2HFeCHC2H5NCHCHC2H2CHC2H2CHC2HCH2CH4C2HCH2C3H2CNHC2H2C2SH3NHCHSC2NC3H2C2H2CH3CHSCHC3HCH2C4H3CH3CHCHC2H9CH2CHC3HC3HCH2CH2C2H2SFeCS2FeSFeCHCH2SH4CSCH2CSCFeC2H3C3HCHNC4NH6C2H2CH4C2H3CHFe3S3HNSCH2CHNH2CSFeHCSCHC2HCH3C5HC2HSHC2HC3H3CH6C3HCH8CH2NH2C4H2CH2C3H
_chemical_formula_sum              "Fe240 C1800 S480 H2160 N120"
_cell_length_a       107.876
_cell_length_b       108.117
_cell_length_c       37.852
_cell_angle_alpha    79.137
_cell_angle_beta     78.9707
_cell_angle_gamma    102.446

_space_group_name_H-M_alt    "P 1"
_space_group_IT_number       1

loop_
  _space_group_symop_operation_xyz
  'x, y, z'

loop_
  _atom_site_type_symbol
  _atom_site_label
  _atom_site_symmetry_multiplicity
  _atom_site_fract_x
  _atom_site_fract_y
  _atom_site_fract_z
  _atom_site_occupancy
  Fe  Fe1       1.0  0.04205  0.48659  0.10839  1.0000
  C   C1        1.0  0.01672  0.47169  0.25254  1.0000
  C   C2        1.0  0.03583  0.44174  0.23385  1.0000
  Fe  Fe2       1.0  0.01351  0.46961  0.12872  1.0000
  S   S1        1.0  0.00685  0.48432  0.09178  1.0000
  S   S2        1.0  0.00030  0.45231  0.17422  1.0000
  Fe  Fe3       1.0  0.02553  0.48647  0.04925  1.0000
  H   H1        1.0  0.00619  0.47007  0.26023  1.0000
  H   H2        1.0  0.02063  0.48982  0.26924  1.0000
  S   S3        1.0  0.03156  0.47061  0.08508  1.0000
  S   S4        1.0  0.02455  0.48429  0.15403  1.0000
  H   H3        1.0  0.02704  0.45216  0.17628  1.0000
  H   H4        1.0  0.04166  0.46486  0.15406  1.0000
  H   H5        1.0  0.04033  0.43445  0.22293  1.0000
  H   H6        1.0  0.05964  0.45045  0.18965  1.0000
  H   H7        1.0  0.04189  0.44811  0.15898  1.0000
  H   H8        1.0  0.06069  0.46739  0.18154  1.0000
  H   H9        1.0  0.03746  0.44158  0.26208  1.0000
  H   H10       1.0  0.05442  0.47845  0.22385  1.0000
  C   C3        1.0  0.03588  0.46459  0.22610  1.0000
  N   N1        1.0  0.04134  0.45503  0.20911  1.0000
  C   C4        1.0  0.02212  0.46274  0.23689  1.0000
  H   H11       1.0  0.02513  0.43811  0.23679  1.0000
  C   C5        1.0  0.03835  0.48495  0.24717  1.0000
  C   C6        1.0  0.04387  0.47602  0.23171  1.0000
  H   H12       1.0  0.01542  0.45450  0.23244  1.0000
  C   C7        1.0  0.05584  0.45788  0.20193  1.0000
  H   H13       1.0  0.05921  0.45808  0.22788  1.0000
  C   C8        1.0  0.03781  0.45500  0.17317  1.0000
  C   C9        1.0  0.02482  0.48280  0.25757  1.0000
  S   S5        1.0  0.06254  0.48785  0.11880  1.0000
  H   H14       1.0  0.08844  0.49180  0.13205  1.0000
  C   C10       1.0  0.08319  0.49699  0.14878  1.0000
  H   H15       1.0  0.04468  0.49370  0.25062  1.0000
  C   C11       1.0  0.07014  0.49671  0.14779  1.0000
  Fe  Fe4       1.0  0.01918  0.49892  0.11405  1.0000
  H   H16       1.0  0.07159  0.49460  0.75848  1.0000
  H   H17       1.0  0.05631  0.47643  0.74921  1.0000
  S   S6        1.0  0.01522  0.48643  0.70093  1.0000
  Fe  Fe5       1.0  0.01897  0.47182  0.79958  1.0000
  S   S7        1.0  0.02014  0.46114  0.75343  1.0000
  S   S8        1.0  0.02198  0.46320  0.85633  1.0000
  Fe  Fe6       1.0  0.03265  0.48070  0.71703  1.0000
  S   S9        1.0  0.05201  0.48435  0.67451  1.0000
  C   C12       1.0  0.06134  0.48169  0.81259  1.0000
  H   H18       1.0  0.04275  0.46767  0.78760  1.0000
  C   C13       1.0  0.02243  0.49045  0.91832  1.0000
  Fe  Fe7       1.0  0.01413  0.49481  0.75067  1.0000
  C   C14       1.0  0.02229  0.47127  0.89323  1.0000
  C   C15       1.0  0.02149  0.48419  0.88905  1.0000
  H   H19       1.0  0.02450  0.45468  0.93081  1.0000
  C   C16       1.0  0.02389  0.46468  0.92720  1.0000
  H   H20       1.0  0.02029  0.48939  0.86312  1.0000
  C   C17       1.0  0.07497  0.46974  0.78151  1.0000
  C   C18       1.0  0.05300  0.46811  0.77410  1.0000
  H   H21       1.0  0.07637  0.49341  0.61839  1.0000
  C   C19       1.0  0.02411  0.48390  0.95226  1.0000
  H   H22       1.0  0.05028  0.49347  0.88753  1.0000
  H   H23       1.0  0.05278  0.45907  0.76389  1.0000
  H   H24       1.0  0.07867  0.47710  0.75452  1.0000
  C   C20       1.0  0.02476  0.47093  0.95659  1.0000
  S   S10       1.0  0.03245  0.49067  0.76360  1.0000
  C   C21       1.0  0.05507  0.49362  0.85943  1.0000
  C   C22       1.0  0.05530  0.48187  0.84928  1.0000
  H   H25       1.0  0.05042  0.47306  0.87058  1.0000
  C   C23       1.0  0.06699  0.49397  0.78694  1.0000
  H   H26       1.0  0.05712  0.44854  0.82172  1.0000
  H   H27       1.0  0.07551  0.46025  0.77475  1.0000
  H   H28       1.0  0.08190  0.47198  0.79919  1.0000
  N   N2        1.0  0.06146  0.46944  0.80046  1.0000
  C   C24       1.0  0.05658  0.45755  0.83147  1.0000
  H   H29       1.0  0.06233  0.45806  0.85286  1.0000
  Fe  Fe8       1.0  0.00254  0.46785  0.74077  1.0000
  H   H30       1.0  0.04606  0.45602  0.84502  1.0000
  S   S11       1.0  0.00061  0.47692  0.79012  1.0000
  C   C25       1.0  0.06611  0.49746  0.66786  1.0000
  H   H31       1.0  0.02607  0.46574  0.98241  1.0000
  S   S12       1.0  0.02605  0.49265  0.98725  1.0000
  Fe  Fe9       1.0  0.24355  0.59740  0.01849  1.0000
  C   C26       1.0  0.17731  0.69508  0.27694  1.0000
  H   H32       1.0  0.20429  0.56729  0.09865  1.0000
  Fe  Fe10      1.0  0.23091  0.59095  0.10093  1.0000
  S   S13       1.0  0.24194  0.61034  0.10757  1.0000
  S   S14       1.0  0.21604  0.57820  0.15339  1.0000
  Fe  Fe11      1.0  0.23629  0.61841  0.05604  1.0000
  S   S15       1.0  0.22946  0.63677  0.05129  1.0000
  Fe  Fe12      1.0  0.25961  0.60774  0.07008  1.0000
  S   S16       1.0  0.28129  0.61727  0.06181  1.0000
  S   S17       1.0  0.22447  0.59934  0.05060  1.0000
  S   S18       1.0  0.24930  0.58750  0.06834  1.0000
  Fe  Fe13      1.0  0.26275  0.72597  0.03798  1.0000
  H   H33       1.0  0.07617  0.55938  0.09637  1.0000
  C   C27       1.0  0.19879  0.70439  0.28514  1.0000
  S   S19       1.0  0.27438  0.68278  0.06512  1.0000
  C   C28       1.0  0.18209  0.52908  0.25662  1.0000
  C   C29       1.0  0.14022  0.56943  0.43460  1.0000
  S   S20       1.0  0.25050  0.70624  0.07214  1.0000
  Fe  Fe14      1.0  0.14104  0.53819  0.21074  1.0000
  S   S21       1.0  0.12740  0.51845  0.24195  1.0000
  S   S22       1.0  0.15946  0.54216  0.16477  1.0000
  Fe  Fe15      1.0  0.12424  0.55254  0.25076  1.0000
  S   S23       1.0  0.10947  0.53439  0.28494  1.0000
  S   S24       1.0  0.12100  0.57211  0.25335  1.0000
  Fe  Fe16      1.0  0.12694  0.52705  0.29228  1.0000
  S   S25       1.0  0.12756  0.51606  0.34925  1.0000
  Fe  Fe17      1.0  0.11083  0.52740  0.23203  1.0000
  S   S26       1.0  0.09053  0.52033  0.22074  1.0000
  S   S27       1.0  0.14169  0.54581  0.26145  1.0000
  S   S28       1.0  0.12457  0.54644  0.19746  1.0000
  Fe  Fe18      1.0  0.13882  0.64267  0.28542  1.0000
  S   S29       1.0  0.14390  0.63021  0.33242  1.0000
  S   S30       1.0  0.11741  0.63879  0.28195  1.0000
  Fe  Fe19      1.0  0.16741  0.65845  0.25244  1.0000
  S   S31       1.0  0.17459  0.64697  0.29587  1.0000
  S   S32       1.0  0.18073  0.67299  0.20066  1.0000
  Fe  Fe20      1.0  0.16074  0.62967  0.28868  1.0000
  S   S33       1.0  0.16635  0.61097  0.29019  1.0000
  Fe  Fe21      1.0  0.15731  0.64846  0.33753  1.0000
  S   S34       1.0  0.16404  0.64906  0.39113  1.0000
  S   S35       1.0  0.15492  0.64076  0.24127  1.0000
  S   S36       1.0  0.15090  0.66143  0.29390  1.0000
  Fe  Fe22      1.0  0.03970  0.58945  0.17873  1.0000
  Fe  Fe23      1.0  0.05756  0.59352  0.10251  1.0000
  S   S37       1.0  0.06194  0.59970  0.03946  1.0000
  Fe  Fe24      1.0  0.05593  0.57087  0.16615  1.0000
  S   S38       1.0  0.05361  0.58211  0.20966  1.0000
  S   S39       1.0  0.05781  0.55046  0.17788  1.0000
  Fe  Fe25      1.0  0.06968  0.59834  0.16910  1.0000
  S   S40       1.0  0.08999  0.60699  0.17788  1.0000
  S   S41       1.0  0.07265  0.58623  0.12731  1.0000
  C   C30       1.0  0.02425  0.52429  0.14870  1.0000
  C   C31       1.0  0.02223  0.53501  0.16251  1.0000
  C   C32       1.0  0.03238  0.54283  0.17300  1.0000
  C   C33       1.0  0.04456  0.54000  0.16926  1.0000
  C   C34       1.0  0.04646  0.52917  0.15609  1.0000
  C   C35       1.0  0.03632  0.52132  0.14579  1.0000
  H   H34       1.0  0.01286  0.53729  0.16503  1.0000
  H   H35       1.0  0.03077  0.55101  0.18415  1.0000
  H   H36       1.0  0.05592  0.52710  0.15279  1.0000
  H   H37       1.0  0.03797  0.51304  0.13531  1.0000
  C   C36       1.0  0.15896  0.65259  0.43485  1.0000
  C   C37       1.0  0.14877  0.65852  0.44281  1.0000
  H   H38       1.0  0.27304  0.67116  0.99023  1.0000
  H   H39       1.0  0.17387  0.64531  0.45605  1.0000
  C   C38       1.0  0.20675  0.54159  0.20638  1.0000
  H   H40       1.0  0.00437  0.52290  0.23988  1.0000
  H   H41       1.0  0.14324  0.66063  0.42245  1.0000
  H   H42       1.0  0.20609  0.70531  0.30108  1.0000
  H   H43       1.0  0.17294  0.50430  0.29672  1.0000
  C   C39       1.0  0.10988  0.62959  0.25354  1.0000
  C   C40       1.0  0.09631  0.62751  0.25670  1.0000
  C   C41       1.0  0.09000  0.62053  0.23420  1.0000
  C   C42       1.0  0.09721  0.61561  0.20792  1.0000
  C   C43       1.0  0.11074  0.61752  0.20517  1.0000
  C   C44       1.0  0.11703  0.62441  0.22783  1.0000
  H   H44       1.0  0.09066  0.63143  0.27651  1.0000
  H   H45       1.0  0.07960  0.61913  0.23685  1.0000
  H   H46       1.0  0.11642  0.61368  0.18521  1.0000
  H   H47       1.0  0.12743  0.62583  0.22512  1.0000
  C   C45       1.0  0.13169  0.52323  0.38562  1.0000
  C   C46       1.0  0.12810  0.51541  0.42199  1.0000
  Fe  Fe26      1.0  0.28265  0.72859  0.08531  1.0000
  H   H48       1.0  0.15751  0.52670  0.24404  1.0000
  C   C47       1.0  0.14427  0.54056  0.40746  1.0000
  C   C48       1.0  0.13945  0.53603  0.37875  1.0000
  H   H49       1.0  0.29684  0.72498  0.25223  1.0000
  H   H50       1.0  0.15108  0.55008  0.40118  1.0000
  H   H51       1.0  0.14230  0.54222  0.35100  1.0000
  C   C49       1.0  0.08305  0.51102  0.19242  1.0000
  H   H52       1.0  0.06471  0.51582  0.20830  1.0000
  C   C50       1.0  0.15055  0.59302  0.41431  1.0000
  S   S42       1.0  0.05555  0.60690  0.14123  1.0000
  H   H53       1.0  0.13866  0.56013  0.45401  1.0000
  H   H54       1.0  0.17653  0.52493  0.20613  1.0000
  C   C51       1.0  0.07547  0.55010  0.08904  1.0000
  S   S43       1.0  0.04106  0.57691  0.13790  1.0000
  H   H55       1.0  0.21600  0.54684  0.18690  1.0000
  H   H56       1.0  0.07836  0.56666  0.00902  1.0000
  C   C52       1.0  0.13278  0.58234  0.26835  1.0000
  C   C53       1.0  0.13254  0.59534  0.26561  1.0000
  C   C54       1.0  0.14266  0.60405  0.27351  1.0000
  C   C55       1.0  0.15318  0.59984  0.28342  1.0000
  C   C56       1.0  0.15322  0.58675  0.28737  1.0000
  C   C57       1.0  0.14290  0.57797  0.28044  1.0000
  H   H57       1.0  0.12468  0.59877  0.25657  1.0000
  H   H58       1.0  0.14235  0.61406  0.27128  1.0000
  H   H59       1.0  0.16117  0.58339  0.29600  1.0000
  H   H60       1.0  0.14285  0.56788  0.28436  1.0000
  C   C58       1.0  0.19720  0.68175  0.19442  1.0000
  C   C59       1.0  0.20331  0.68182  0.22384  1.0000
  C   C60       1.0  0.21614  0.68970  0.21778  1.0000
  C   C61       1.0  0.22301  0.69739  0.18224  1.0000
  C   C62       1.0  0.21708  0.69683  0.15262  1.0000
  C   C63       1.0  0.20421  0.68912  0.15876  1.0000
  H   H61       1.0  0.19800  0.67620  0.25141  1.0000
  H   H62       1.0  0.22065  0.69010  0.24086  1.0000
  H   H63       1.0  0.22221  0.70276  0.12521  1.0000
  H   H64       1.0  0.19956  0.68913  0.13584  1.0000
  C   C64       1.0  0.24174  0.64953  0.05605  1.0000
  C   C65       1.0  0.25349  0.64728  0.06250  1.0000
  C   C66       1.0  0.26331  0.65750  0.06600  1.0000
  C   C67       1.0  0.26140  0.67001  0.06358  1.0000
  C   C68       1.0  0.24959  0.67224  0.05744  1.0000
  C   C69       1.0  0.23983  0.66205  0.05334  1.0000
  H   H65       1.0  0.25513  0.63769  0.06441  1.0000
  H   H66       1.0  0.27247  0.65572  0.07017  1.0000
  H   H67       1.0  0.24808  0.68187  0.05485  1.0000
  H   H68       1.0  0.23083  0.66391  0.04787  1.0000
  C   C70       1.0  0.29350  0.61144  0.07961  1.0000
  C   C71       1.0  0.30669  0.61807  0.06330  1.0000
  C   C72       1.0  0.31677  0.61420  0.07750  1.0000
  C   C73       1.0  0.31371  0.60384  0.10873  1.0000
  C   C74       1.0  0.30053  0.59707  0.12468  1.0000
  C   C75       1.0  0.29045  0.60077  0.11000  1.0000
  H   H69       1.0  0.30912  0.62633  0.03975  1.0000
  H   H70       1.0  0.00346  0.50694  0.26666  1.0000
  H   H71       1.0  0.29810  0.58902  0.14881  1.0000
  H   H72       1.0  0.28034  0.59561  0.12284  1.0000
  C   C76       1.0  0.20004  0.56912  0.15503  1.0000
  C   C77       1.0  0.19040  0.56552  0.18860  1.0000
  C   C78       1.0  0.17783  0.55762  0.19171  1.0000
  C   C79       1.0  0.17484  0.55293  0.16149  1.0000
  C   C80       1.0  0.18444  0.55658  0.12788  1.0000
  C   C81       1.0  0.19693  0.56475  0.12451  1.0000
  H   H73       1.0  0.19278  0.56865  0.21257  1.0000
  H   H74       1.0  0.17061  0.55482  0.21781  1.0000
  H   H75       1.0  0.18226  0.55297  0.10437  1.0000
  H   H76       1.0  0.18184  0.70687  0.35932  1.0000
  Fe  Fe27      1.0  0.26973  0.70160  0.07315  1.0000
  C   C82       1.0  0.00651  0.60451  0.11860  1.0000
  H   H77       1.0  0.26278  0.71597  0.19938  1.0000
  H   H78       1.0  0.06522  0.57445  0.01199  1.0000
  H   H79       1.0  0.17355  0.59647  0.43542  1.0000
  N   N3        1.0  0.15407  0.58845  0.15621  1.0000
  C   C83       1.0  0.14631  0.59694  0.17123  1.0000
  C   C84       1.0  0.14660  0.58143  0.13357  1.0000
  C   C85       1.0  0.15510  0.57873  0.18809  1.0000
  C   C86       1.0  0.16734  0.59569  0.13350  1.0000
  C   C87       1.0  0.17216  0.60947  0.12676  1.0000
  C   C88       1.0  0.17593  0.58891  0.11733  1.0000
  C   C89       1.0  0.18475  0.61594  0.10485  1.0000
  C   C90       1.0  0.18851  0.59546  0.09584  1.0000
  C   C91       1.0  0.19290  0.60896  0.08947  1.0000
  H   H80       1.0  0.14485  0.60433  0.14874  1.0000
  C   C92       1.0  0.01850  0.52549  0.03780  1.0000
  H   H81       1.0  0.15095  0.60194  0.19041  1.0000
  H   H82       1.0  0.15098  0.57376  0.12465  1.0000
  H   H83       1.0  0.17163  0.53525  0.32255  1.0000
  H   H84       1.0  0.13637  0.57632  0.14948  1.0000
  H   H85       1.0  0.16103  0.58347  0.20529  1.0000
  C   C93       1.0  0.20511  0.54136  0.24391  1.0000
  H   H86       1.0  0.15957  0.57114  0.17927  1.0000
  H   H87       1.0  0.16646  0.61547  0.13825  1.0000
  H   H88       1.0  0.17298  0.57843  0.12136  1.0000
  H   H89       1.0  0.18830  0.62642  0.10008  1.0000
  H   H90       1.0  0.19492  0.58999  0.08427  1.0000
  H   H91       1.0  0.20272  0.61401  0.07302  1.0000
  S   S44       1.0  0.30321  0.74045  0.08344  1.0000
  C   C94       1.0  0.07362  0.52541  0.07513  1.0000
  H   H92       1.0  0.15523  0.52906  0.32105  1.0000
  C   C95       1.0  0.00076  0.51222  0.24230  1.0000
  C   C96       1.0  0.18143  0.70161  0.23944  1.0000
  H   H93       1.0  0.19945  0.68240  0.33713  1.0000
  H   H94       1.0  0.01744  0.51679  0.05891  1.0000
  C   C97       1.0  0.14811  0.58073  0.43963  1.0000
  C   C98       1.0  0.01414  0.54639  0.01982  1.0000
  H   H95       1.0  0.00744  0.60467  0.14743  1.0000
  H   H96       1.0  0.16183  0.61769  0.36455  1.0000
  H   H97       1.0  0.16589  0.54207  0.28372  1.0000
  C   C99       1.0  0.16539  0.53282  0.30337  1.0000
  H   H98       1.0  0.13631  0.59122  0.18763  1.0000
  H   H99       1.0  0.13006  0.51376  0.47839  1.0000
  H   H100      1.0  0.25441  0.73492  0.17918  1.0000
  C   C100      1.0  0.18586  0.69640  0.30113  1.0000
  C   C101      1.0  0.19638  0.53535  0.19371  1.0000
  H   H101      1.0  0.03988  0.61725  0.02925  1.0000
  H   H102      1.0  0.08690  0.52342  0.11030  1.0000
  N   N4        1.0  0.20380  0.64533  0.16536  1.0000
  C   C102      1.0  0.21578  0.65248  0.13579  1.0000
  C   C103      1.0  0.19269  0.64986  0.15465  1.0000
  C   C104      1.0  0.20555  0.64906  0.20020  1.0000
  C   C105      1.0  0.20104  0.63096  0.17140  1.0000
  C   C106      1.0  0.20967  0.62465  0.15285  1.0000
  C   C107      1.0  0.18956  0.62277  0.19738  1.0000
  C   C108      1.0  0.20686  0.61104  0.15998  1.0000
  C   C109      1.0  0.18684  0.60917  0.20410  1.0000
  C   C110      1.0  0.19548  0.60332  0.18542  1.0000
  H   H103      1.0  0.21507  0.65008  0.10877  1.0000
  H   H104      1.0  0.21745  0.66327  0.13127  1.0000
  H   H105      1.0  0.22473  0.65024  0.14290  1.0000
  H   H106      1.0  0.19049  0.64658  0.12989  1.0000
  H   H107      1.0  0.19478  0.66072  0.14796  1.0000
  H   H108      1.0  0.18359  0.64637  0.17730  1.0000
  H   H109      1.0  0.21340  0.64529  0.21022  1.0000
  H   H110      1.0  0.20826  0.65985  0.19635  1.0000
  H   H111      1.0  0.19645  0.64521  0.22283  1.0000
  H   H112      1.0  0.21870  0.62996  0.13277  1.0000
  H   H113      1.0  0.18268  0.62680  0.21330  1.0000
  H   H114      1.0  0.21354  0.60637  0.14568  1.0000
  H   H115      1.0  0.17810  0.60314  0.22444  1.0000
  H   H116      1.0  0.19343  0.59279  0.19077  1.0000
  C   C111      1.0  0.29466  0.63195  0.13529  1.0000
  H   H117      1.0  0.32687  0.61932  0.06465  1.0000
  N   N5        1.0  0.08263  0.56265  0.25007  1.0000
  C   C112      1.0  0.08848  0.55177  0.24367  1.0000
  C   C113      1.0  0.06835  0.55729  0.26535  1.0000
  C   C114      1.0  0.08487  0.57164  0.21320  1.0000
  C   C115      1.0  0.08817  0.56915  0.27687  1.0000
  C   C116      1.0  0.08937  0.56169  0.31060  1.0000
  C   C117      1.0  0.09178  0.58296  0.27145  1.0000
  C   C118      1.0  0.09458  0.56769  0.33615  1.0000
  C   C119      1.0  0.09687  0.58886  0.29729  1.0000
  C   C120      1.0  0.09841  0.58125  0.32936  1.0000
  H   H118      1.0  0.08560  0.54340  0.26824  1.0000
  H   H119      1.0  0.08524  0.54749  0.22128  1.0000
  H   H120      1.0  0.09934  0.55516  0.23551  1.0000
  H   H121      1.0  0.06607  0.55005  0.29233  1.0000
  H   H122      1.0  0.06371  0.55225  0.24628  1.0000
  H   H123      1.0  0.09546  0.57663  0.20161  1.0000
  H   H124      1.0  0.08141  0.56644  0.19272  1.0000
  H   H125      1.0  0.07944  0.57923  0.21455  1.0000
  H   H126      1.0  0.08648  0.55117  0.31731  1.0000
  H   H127      1.0  0.09097  0.58946  0.24718  1.0000
  H   H128      1.0  0.09581  0.56178  0.36109  1.0000
  H   H129      1.0  0.09984  0.59943  0.29199  1.0000
  H   H130      1.0  0.10263  0.58590  0.34884  1.0000
  H   H131      1.0  0.04310  0.54792  0.09250  1.0000
  H   H132      1.0  0.17721  0.51456  0.32705  1.0000
  C   C121      1.0  0.26879  0.72574  0.19625  1.0000
  C   C122      1.0  0.31720  0.64586  0.11544  1.0000
  S   S45       1.0  0.27234  0.70885  0.12362  1.0000
  H   H133      1.0  0.19736  0.71428  0.19554  1.0000
  C   C123      1.0  0.16596  0.64987  0.46183  1.0000
  H   H134      1.0  0.27988  0.64027  0.11726  1.0000
  H   H135      1.0  0.16038  0.50704  0.33099  1.0000
  H   H136      1.0  0.21278  0.71677  0.23575  1.0000
  C   C124      1.0  0.14593  0.66204  0.47701  1.0000
  C   C125      1.0  0.14410  0.59329  0.38486  1.0000
  H   H137      1.0  0.06353  0.56518  0.26997  1.0000
  C   C126      1.0  0.16732  0.60279  0.44468  1.0000
  H   H138      1.0  0.31865  0.66528  0.08262  1.0000
  N   N6        1.0  0.15869  0.60521  0.41931  1.0000
  H   H139      1.0  0.07364  0.57351  0.04772  1.0000
  N   N7        1.0  0.18195  0.68927  0.34068  1.0000
  C   C127      1.0  0.01330  0.53547  0.04724  1.0000
  C   C128      1.0  0.13247  0.52013  0.45096  1.0000
  H   H140      1.0  0.14613  0.58829  0.10824  1.0000
  H   H141      1.0  0.27116  0.58020  0.01334  1.0000
  H   H142      1.0  0.17491  0.70009  0.22119  1.0000
  C   C129      1.0  0.29891  0.65392  0.09887  1.0000
  C   C130      1.0  0.00696  0.60353  0.00620  1.0000
  H   H143      1.0  0.05497  0.56108  0.09901  1.0000
  C   C131      1.0  0.30796  0.63379  0.13446  1.0000
  C   C132      1.0  0.05055  0.55722  0.07777  1.0000
  H   H144      1.0  0.17434  0.62203  0.38696  1.0000
  C   C133      1.0  0.18862  0.67865  0.34552  1.0000
  S   S46       1.0  0.28171  0.72056  0.03511  1.0000
  S   S47       1.0  0.23840  0.70848  0.17646  1.0000
  H   H145      1.0  0.07273  0.51566  0.07064  1.0000
  C   C134      1.0  0.13628  0.58191  0.38000  1.0000
  C   C135      1.0  0.00703  0.60395  0.04291  1.0000
  H   H146      1.0  0.12218  0.50549  0.42767  1.0000
  S   S48       1.0  0.01950  0.58999  0.20908  1.0000
  C   C136      1.0  0.06354  0.50345  0.16971  1.0000
  H   H147      1.0  0.14531  0.57334  0.20631  1.0000
  H   H148      1.0  0.04576  0.54102  0.03490  1.0000
  H   H149      1.0  0.15211  0.57954  0.46373  1.0000
  S   S49       1.0  0.26410  0.73497  0.08671  1.0000
  Fe  Fe28      1.0  0.25353  0.71448  0.12107  1.0000
  C   C137      1.0  0.06993  0.51052  0.19185  1.0000
  C   C138      1.0  0.19409  0.70960  0.22489  1.0000
  H   H150      1.0  0.14885  0.51464  0.28589  1.0000
  H   H151      1.0  0.08807  0.54496  0.12411  1.0000
  C   C139      1.0  0.01884  0.60903  0.05283  1.0000
  H   H152      1.0  0.18591  0.67292  0.37491  1.0000
  H   H153      1.0  0.30638  0.72480  0.18815  1.0000
  C   C140      1.0  0.20275  0.71100  0.24769  1.0000
  H   H154      1.0  0.19654  0.70159  0.36029  1.0000
  S   S50       1.0  0.32596  0.59945  0.12976  1.0000
  H   H155      1.0  0.17298  0.60769  0.36840  1.0000
  S   S51       1.0  0.14949  0.53728  0.47687  1.0000
  H   H156      1.0  0.32073  0.73718  0.18520  1.0000
  C   C141      1.0  0.02725  0.59979  0.10322  1.0000
  C   C142      1.0  0.03294  0.58249  0.99535  1.0000
  C   C143      1.0  0.05358  0.55019  0.02122  1.0000
  S   S52       1.0  0.01166  0.51456  0.13532  1.0000
  H   H157      1.0  0.23941  0.71500  0.00186  1.0000
  H   H158      1.0  0.16421  0.67521  0.34157  1.0000
  H   H159      1.0  0.16747  0.68885  0.28600  1.0000
  C   C144      1.0  0.00606  0.57599  0.21914  1.0000
  C   C145      1.0  0.14993  0.61267  0.43501  1.0000
  S   S53       1.0  0.25451  0.61737  0.01890  1.0000
  H   H160      1.0  0.01455  0.56758  0.17649  1.0000
  C   C146      1.0  0.06983  0.56793  0.02843  1.0000
  C   C147      1.0  0.06665  0.53348  0.05900  1.0000
  H   H161      1.0  0.21322  0.54628  0.25356  1.0000
  H   H162      1.0  0.13169  0.58236  0.35682  1.0000
  C   C148      1.0  0.08156  0.52970  0.09773  1.0000
  C   C149      1.0  0.08235  0.54193  0.10510  1.0000
  H   H163      1.0  0.02803  0.59940  0.13224  1.0000
  C   C150      1.0  0.05281  0.59410  0.00864  1.0000
  C   C151      1.0  0.16732  0.61342  0.38335  1.0000
  H   H164      1.0  0.31098  0.73941  0.15232  1.0000
  H   H165      1.0  0.28783  0.62254  0.14892  1.0000
  C   C152      1.0  0.29016  0.64193  0.11733  1.0000
  C   C153      1.0  0.15851  0.51859  0.26538  1.0000
  H   H166      1.0  0.04535  0.56431  0.06654  1.0000
  H   H167      1.0  0.03546  0.58301  0.05042  1.0000
  H   H168      1.0  0.00980  0.55401  0.02700  1.0000
  C   C154      1.0  0.31049  0.73552  0.18207  1.0000
  H   H169      1.0  0.09970  0.50434  0.17095  1.0000
  H   H170      1.0  0.17388  0.61203  0.44642  1.0000
  H   H171      1.0  0.28454  0.71893  0.21117  1.0000
  H   H172      1.0  0.14371  0.61546  0.41616  1.0000
  C   C155      1.0  0.04003  0.58608  0.02110  1.0000
  H   H173      1.0  0.16487  0.67881  0.38480  1.0000
  N   N8        1.0  0.06048  0.55515  0.04820  1.0000
  C   C156      1.0  0.16763  0.68332  0.35449  1.0000
  C   C157      1.0  0.00614  0.56657  0.19844  1.0000
  N   N9        1.0  0.01950  0.60887  0.09165  1.0000
  H   H174      1.0  0.33070  0.65791  0.15728  1.0000
  C   C158      1.0  0.13442  0.56998  0.40467  1.0000
  C   C159      1.0  0.06753  0.54621  0.06509  1.0000
  H   H175      1.0  0.16197  0.69069  0.34957  1.0000
  H   H176      1.0  0.18201  0.69323  0.39462  1.0000
  C   C160      1.0  0.14080  0.53266  0.44381  1.0000
  H   H177      1.0  0.02264  0.58970  0.10178  1.0000
  H   H178      1.0  0.31074  0.62546  0.14807  1.0000
  C   C161      1.0  0.02599  0.62208  0.09464  1.0000
  N   N10       1.0  0.16920  0.52316  0.28325  1.0000
  H   H179      1.0  0.14501  0.60228  0.36521  1.0000
  H   H180      1.0  0.06052  0.54838  0.99817  1.0000
  C   C162      1.0  0.03043  0.61371  0.02377  1.0000
  H   H181      1.0  0.16015  0.51056  0.25201  1.0000
  C   C163      1.0  0.18578  0.69816  0.36456  1.0000
  H   H182      1.0  0.18582  0.67164  0.32845  1.0000
  H   H183      1.0  0.12847  0.56114  0.40069  1.0000
  H   H184      1.0  0.02286  0.57683  0.00514  1.0000
  H   H185      1.0  0.15556  0.62188  0.43982  1.0000
  H   H186      1.0  0.29533  0.66167  0.08492  1.0000
  H   H187      1.0  0.29910  0.58429  0.01648  1.0000
  H   H188      1.0  0.02600  0.62235  0.12397  1.0000
  H   H189      1.0  0.03646  0.62539  0.07928  1.0000
  S   S54       1.0  0.03741  0.50241  0.06949  1.0000
  H   H190      1.0  0.00842  0.53460  0.07579  1.0000
  C   C164      1.0  0.19302  0.53510  0.26881  1.0000
  H   H191      1.0  0.04858  0.55729  0.00864  1.0000
  H   H192      1.0  0.02098  0.62942  0.08375  1.0000
  C   C165      1.0  0.18421  0.52916  0.21827  1.0000
  H   H193      1.0  0.19764  0.53577  0.16434  1.0000
  H   H194      1.0  0.06057  0.52945  0.04224  1.0000
  C   C166      1.0  0.28128  0.72757  0.20289  1.0000
  H   H195      1.0  0.03742  0.60271  0.08566  1.0000
  C   C167      1.0  0.02481  0.52645  0.00119  1.0000
  C   C168      1.0  0.31224  0.65589  0.09783  1.0000
  N   N11       1.0  0.30261  0.74188  0.20596  1.0000
  H   H196      1.0  0.02850  0.51828  0.99606  1.0000
  C   C169      1.0  0.17000  0.51177  0.31066  1.0000
  H   H197      1.0  0.14326  0.60683  0.46204  1.0000
  H   H198      1.0  0.00646  0.51038  0.21705  1.0000
  H   H199      1.0  0.28760  0.59195  0.03782  1.0000
  H   H200      1.0  0.19223  0.53520  0.29763  1.0000
  C   C170      1.0  0.08964  0.50414  0.17079  1.0000
  N   N12       1.0  0.33143  0.64808  0.11286  1.0000
  H   H201      1.0  0.00146  0.59422  0.12017  1.0000
  H   H202      1.0  0.05348  0.50325  0.16957  1.0000
  C   C171      1.0  0.26403  0.73643  0.18492  1.0000
  H   H203      1.0  0.33006  0.63416  0.16351  1.0000
  H   H204      1.0  0.26608  0.68975  0.99279  1.0000
  H   H205      1.0  0.16163  0.59811  0.47359  1.0000
  C   C172      1.0  0.30136  0.73567  0.24535  1.0000
  H   H206      1.0  0.30283  0.60191  0.00877  1.0000
  C   C173      1.0  0.28942  0.74025  0.19856  1.0000
  H   H207      1.0  0.31106  0.73702  0.25233  1.0000
  H   H208      1.0  0.29513  0.73993  0.26412  1.0000
  C   C174      1.0  0.29501  0.59290  0.01181  1.0000
  H   H209      1.0  0.27636  0.60434  0.00286  1.0000
  C   C175      1.0  0.27169  0.74900  0.18067  1.0000
  H   H210      1.0  0.13821  0.66685  0.48273  1.0000
  H   H211      1.0  0.00009  0.61092  0.11162  1.0000
  H   H212      1.0  0.28231  0.57282  0.98811  1.0000
  H   H213      1.0  0.27058  0.64849  0.98873  1.0000
  Fe  Fe29      1.0  0.22872  0.59390  0.78489  1.0000
  S   S55       1.0  0.24894  0.60738  0.76698  1.0000
  S   S56       1.0  0.21706  0.58925  0.84414  1.0000
  Fe  Fe30      1.0  0.22654  0.59209  0.70623  1.0000
  S   S57       1.0  0.24696  0.60534  0.68229  1.0000
  S   S58       1.0  0.21501  0.58778  0.66256  1.0000
  Fe  Fe31      1.0  0.25313  0.59426  0.72949  1.0000
  S   S59       1.0  0.27285  0.58943  0.71676  1.0000
  Fe  Fe32      1.0  0.24145  0.61740  0.72158  1.0000
  S   S60       1.0  0.24525  0.63906  0.70192  1.0000
  S   S61       1.0  0.23320  0.57974  0.75051  1.0000
  S   S62       1.0  0.22080  0.60520  0.74235  1.0000
  C   C176      1.0  0.05156  0.59418  0.94462  1.0000
  S   S63       1.0  0.26640  0.67483  0.80266  1.0000
  C   C177      1.0  0.17598  0.68601  0.74679  1.0000
  Fe  Fe33      1.0  0.13827  0.56588  0.55589  1.0000
  S   S64       1.0  0.13416  0.55689  0.61628  1.0000
  S   S65       1.0  0.13886  0.58686  0.53552  1.0000
  Fe  Fe34      1.0  0.14187  0.54158  0.53282  1.0000
  S   S66       1.0  0.13848  0.53033  0.59261  1.0000
  C   C178      1.0  0.14080  0.57808  0.70721  1.0000
  Fe  Fe35      1.0  0.12157  0.53944  0.60417  1.0000
  S   S67       1.0  0.10217  0.53220  0.64843  1.0000
  Fe  Fe36      1.0  0.15124  0.54856  0.60161  1.0000
  S   S68       1.0  0.16443  0.54815  0.64300  1.0000
  S   S69       1.0  0.12424  0.54954  0.54424  1.0000
  S   S70       1.0  0.15610  0.55879  0.54129  1.0000
  Fe  Fe37      1.0  0.17070  0.65527  0.65844  1.0000
  S   S71       1.0  0.17718  0.65603  0.59743  1.0000
  S   S72       1.0  0.18337  0.66130  0.69807  1.0000
  Fe  Fe38      1.0  0.14471  0.63392  0.66840  1.0000
  S   S73       1.0  0.14955  0.63289  0.60909  1.0000
  S   S74       1.0  0.12850  0.61777  0.71029  1.0000
  Fe  Fe39      1.0  0.17006  0.63432  0.61439  1.0000
  S   S75       1.0  0.18147  0.62108  0.59358  1.0000
  Fe  Fe40      1.0  0.15613  0.65471  0.59568  1.0000
  S   S76       1.0  0.23863  0.69207  0.80223  1.0000
  S   S77       1.0  0.16481  0.63332  0.67478  1.0000
  S   S78       1.0  0.14993  0.65588  0.65578  1.0000
  H   H214      1.0  0.20374  0.64627  0.70220  1.0000
  Fe  Fe41      1.0  0.03599  0.58390  0.86408  1.0000
  S   S79       1.0  0.03333  0.59797  0.81561  1.0000
  Fe  Fe42      1.0  0.04434  0.56660  0.81470  1.0000
  S   S80       1.0  0.04271  0.57924  0.76245  1.0000
  S   S81       1.0  0.04824  0.54695  0.81872  1.0000
  Fe  Fe43      1.0  0.05247  0.59560  0.78466  1.0000
  S   S82       1.0  0.06716  0.61259  0.74184  1.0000
  S   S83       1.0  0.05574  0.58272  0.83446  1.0000
  H   H215      1.0  0.26592  0.74096  0.90340  1.0000
  H   H216      1.0  0.01616  0.54479  0.91429  1.0000
  H   H217      1.0  0.03925  0.61659  0.96571  1.0000
  C   C179      1.0  0.16296  0.65315  0.49619  1.0000
  H   H218      1.0  0.23620  0.66756  0.90929  1.0000
  C   C180      1.0  0.01789  0.52269  0.77373  1.0000
  C   C181      1.0  0.02414  0.51646  0.79809  1.0000
  C   C182      1.0  0.03333  0.52386  0.81268  1.0000
  C   C183      1.0  0.03582  0.53745  0.80404  1.0000
  C   C184      1.0  0.02855  0.54349  0.78276  1.0000
  C   C185      1.0  0.01973  0.53615  0.76715  1.0000
  H   H219      1.0  0.14681  0.56160  0.68888  1.0000
  H   H220      1.0  0.03857  0.51906  0.83021  1.0000
  H   H221      1.0  0.02998  0.55386  0.77707  1.0000
  H   H222      1.0  0.01472  0.54095  0.74882  1.0000
  C   C186      1.0  0.11155  0.61689  0.71962  1.0000
  C   C187      1.0  0.10281  0.60620  0.74641  1.0000
  C   C188      1.0  0.08922  0.60483  0.75377  1.0000
  C   C189      1.0  0.08422  0.61413  0.73417  1.0000
  C   C190      1.0  0.09296  0.62479  0.70724  1.0000
  C   C191      1.0  0.10657  0.62621  0.70005  1.0000
  H   H223      1.0  0.10658  0.59895  0.76170  1.0000
  H   H224      1.0  0.08263  0.59660  0.77461  1.0000
  H   H225      1.0  0.08919  0.63205  0.69199  1.0000
  H   H226      1.0  0.11319  0.63448  0.67933  1.0000
  C   C192      1.0  0.08865  0.51851  0.65528  1.0000
  H   H227      1.0  0.03746  0.62172  0.64694  1.0000
  H   H228      1.0  0.16392  0.60628  0.66125  1.0000
  C   C193      1.0  0.05856  0.59800  0.97033  1.0000
  C   C194      1.0  0.12635  0.55677  0.71008  1.0000
  H   H229      1.0  0.01683  0.58640  0.61215  1.0000
  H   H230      1.0  0.25998  0.70531  0.92877  1.0000
  C   C195      1.0  0.23965  0.71577  0.91107  1.0000
  C   C196      1.0  0.03080  0.62354  0.67056  1.0000
  C   C197      1.0  0.28270  0.70007  0.90261  1.0000
  C   C198      1.0  0.15189  0.59648  0.54757  1.0000
  C   C199      1.0  0.15970  0.59066  0.56735  1.0000
  C   C200      1.0  0.16966  0.59839  0.57868  1.0000
  C   C201      1.0  0.17148  0.61189  0.57141  1.0000
  C   C202      1.0  0.16400  0.61774  0.55052  1.0000
  C   C203      1.0  0.15425  0.61006  0.53837  1.0000
  H   H231      1.0  0.15792  0.58019  0.57482  1.0000
  H   H232      1.0  0.17549  0.59389  0.59474  1.0000
  H   H233      1.0  0.16558  0.62821  0.54426  1.0000
  H   H234      1.0  0.14831  0.61464  0.52287  1.0000
  H   H235      1.0  0.16858  0.65119  0.51638  1.0000
  H   H236      1.0  0.21687  0.70062  0.78163  1.0000
  C   C204      1.0  0.21813  0.69396  0.70358  1.0000
  C   C205      1.0  0.02591  0.53749  0.97254  1.0000
  C   C206      1.0  0.20382  0.67191  0.72627  1.0000
  C   C207      1.0  0.19706  0.67396  0.69822  1.0000
  C   C208      1.0  0.20091  0.68610  0.67283  1.0000
  C   C209      1.0  0.21135  0.69603  0.67559  1.0000
  H   H237      1.0  0.20085  0.66262  0.74635  1.0000
  H   H238      1.0  0.19572  0.68792  0.65142  1.0000
  H   H239      1.0  0.21417  0.70541  0.65593  1.0000
  C   C210      1.0  0.25062  0.64848  0.73176  1.0000
  C   C211      1.0  0.24832  0.66083  0.72905  1.0000
  C   C212      1.0  0.25310  0.66887  0.75102  1.0000
  C   C213      1.0  0.26036  0.66467  0.77550  1.0000
  C   C214      1.0  0.26266  0.65230  0.77843  1.0000
  C   C215      1.0  0.25763  0.64413  0.75689  1.0000
  H   H240      1.0  0.24286  0.66428  0.70992  1.0000
  H   H241      1.0  0.25130  0.67841  0.74852  1.0000
  H   H242      1.0  0.26838  0.64908  0.79716  1.0000
  H   H243      1.0  0.25952  0.63467  0.75903  1.0000
  C   C216      1.0  0.20032  0.57708  0.65908  1.0000
  C   C217      1.0  0.19319  0.56602  0.68712  1.0000
  C   C218      1.0  0.18230  0.55732  0.68160  1.0000
  C   C219      1.0  0.17813  0.55967  0.64843  1.0000
  C   C220      1.0  0.18499  0.57095  0.62089  1.0000
  C   C221      1.0  0.19601  0.57955  0.62618  1.0000
  H   H244      1.0  0.19614  0.56402  0.71286  1.0000
  H   H245      1.0  0.17705  0.54867  0.70322  1.0000
  H   H246      1.0  0.18199  0.57290  0.59516  1.0000
  H   H247      1.0  0.20136  0.58808  0.60427  1.0000
  C   C222      1.0  0.28625  0.59571  0.73520  1.0000
  C   C223      1.0  0.28479  0.60245  0.76321  1.0000
  C   C224      1.0  0.29574  0.60802  0.77560  1.0000
  C   C225      1.0  0.30830  0.60690  0.76036  1.0000
  C   C226      1.0  0.29874  0.59428  0.72060  1.0000
  H   H248      1.0  0.27525  0.60346  0.77525  1.0000
  H   H249      1.0  0.29450  0.61345  0.79671  1.0000
  H   H250      1.0  0.20519  0.63001  0.70187  1.0000
  C   C227      1.0  0.24085  0.59121  0.93174  1.0000
  C   C228      1.0  0.22745  0.59030  0.94119  1.0000
  C   C229      1.0  0.22010  0.58918  0.91446  1.0000
  C   C230      1.0  0.22619  0.58937  0.87802  1.0000
  C   C231      1.0  0.23957  0.59024  0.86872  1.0000
  C   C232      1.0  0.24686  0.59108  0.89558  1.0000
  C   C233      1.0  0.24124  0.56816  0.65380  1.0000
  H   H251      1.0  0.20969  0.58828  0.92194  1.0000
  H   H252      1.0  0.24431  0.59012  0.84097  1.0000
  H   H253      1.0  0.25720  0.59164  0.88825  1.0000
  C   C234      1.0  0.20211  0.54272  0.62491  1.0000
  C   C235      1.0  0.03862  0.58660  0.95699  1.0000
  N   N13       1.0  0.04563  0.53178  0.66597  1.0000
  C   C236      1.0  0.03586  0.53946  0.66204  1.0000
  C   C237      1.0  0.03967  0.51847  0.66237  1.0000
  C   C238      1.0  0.04793  0.53068  0.70366  1.0000
  C   C239      1.0  0.05821  0.53832  0.63848  1.0000
  C   C240      1.0  0.06440  0.55161  0.63539  1.0000
  C   C241      1.0  0.06513  0.53158  0.61621  1.0000
  H   H254      1.0  0.03448  0.54121  0.63329  1.0000
  H   H255      1.0  0.02611  0.53431  0.68121  1.0000
  H   H256      1.0  0.03856  0.54902  0.66911  1.0000
  H   H257      1.0  0.03828  0.51857  0.63394  1.0000
  H   H258      1.0  0.02987  0.51413  0.68186  1.0000
  H   H259      1.0  0.04560  0.51155  0.66926  1.0000
  C   C242      1.0  0.30309  0.59695  0.87654  1.0000
  C   C243      1.0  0.04157  0.55153  0.91699  1.0000
  H   H260      1.0  0.05634  0.52651  0.70629  1.0000
  H   H261      1.0  0.06002  0.55720  0.65259  1.0000
  H   H262      1.0  0.06150  0.52133  0.61756  1.0000
  H   H263      1.0  0.27743  0.74653  0.81416  1.0000
  C   C244      1.0  0.29861  0.59499  0.94384  1.0000
  H   H264      1.0  0.03907  0.61035  0.72651  1.0000
  C   C245      1.0  0.26857  0.67306  0.90244  1.0000
  C   C246      1.0  0.20063  0.63986  0.63844  1.0000
  H   H265      1.0  0.22476  0.63920  0.60363  1.0000
  H   H266      1.0  0.23118  0.63810  0.64420  1.0000
  H   H267      1.0  0.20207  0.64188  0.60776  1.0000
  H   H268      1.0  0.19613  0.62917  0.64910  1.0000
  H   H269      1.0  0.19330  0.64479  0.64996  1.0000
  H   H270      1.0  0.20465  0.66377  0.60730  1.0000
  N   N14       1.0  0.11365  0.59664  0.62050  1.0000
  C   C247      1.0  0.11242  0.59532  0.58293  1.0000
  C   C248      1.0  0.11346  0.61021  0.62238  1.0000
  C   C249      1.0  0.12656  0.59497  0.62523  1.0000
  C   C250      1.0  0.10315  0.58650  0.64895  1.0000
  C   C251      1.0  0.09392  0.58952  0.67601  1.0000
  C   C252      1.0  0.10204  0.57306  0.65042  1.0000
  C   C253      1.0  0.08415  0.57967  0.70248  1.0000
  C   C254      1.0  0.09221  0.56329  0.67688  1.0000
  C   C255      1.0  0.08328  0.56659  0.70291  1.0000
  H   H271      1.0  0.10281  0.59647  0.57831  1.0000
  H   H272      1.0  0.12027  0.60276  0.56085  1.0000
  H   H273      1.0  0.11339  0.58571  0.57806  1.0000
  H   H274      1.0  0.11520  0.61216  0.64907  1.0000
  H   H275      1.0  0.10405  0.61229  0.61891  1.0000
  H   H276      1.0  0.12135  0.61757  0.60022  1.0000
  H   H277      1.0  0.12824  0.58563  0.61985  1.0000
  H   H278      1.0  0.13473  0.60286  0.60572  1.0000
  H   H279      1.0  0.12748  0.59527  0.65382  1.0000
  H   H280      1.0  0.09408  0.59943  0.67759  1.0000
  H   H281      1.0  0.10884  0.56997  0.63117  1.0000
  H   H282      1.0  0.07726  0.58224  0.72296  1.0000
  H   H283      1.0  0.09159  0.55310  0.67719  1.0000
  H   H284      1.0  0.07572  0.55900  0.72366  1.0000
  C   C256      1.0  0.28036  0.62866  0.70346  1.0000
  C   C257      1.0  0.29195  0.65127  0.69366  1.0000
  C   C258      1.0  0.28306  0.65782  0.68034  1.0000
  C   C259      1.0  0.28185  0.66966  0.68848  1.0000
  C   C260      1.0  0.28920  0.67517  0.71079  1.0000
  H   H285      1.0  0.27835  0.62720  0.73412  1.0000
  H   H286      1.0  0.27664  0.65365  0.66450  1.0000
  H   H287      1.0  0.27481  0.67435  0.67865  1.0000
  C   C261      1.0  0.25946  0.69493  0.92875  1.0000
  H   H288      1.0  0.21918  0.64246  0.70085  1.0000
  S   S84       1.0  0.02488  0.56668  0.84768  1.0000
  H   H289      1.0  0.28691  0.64169  0.63328  1.0000
  N   N15       1.0  0.21312  0.64406  0.64918  1.0000
  C   C262      1.0  0.22201  0.63650  0.63448  1.0000
  S   S85       1.0  0.25046  0.59235  0.96421  1.0000
  S   S86       1.0  0.02888  0.58274  0.92579  1.0000
  Fe  Fe44      1.0  0.02374  0.58041  0.79703  1.0000
  C   C263      1.0  0.23521  0.64977  0.94764  1.0000
  H   H290      1.0  0.29999  0.58902  0.69908  1.0000
  C   C264      1.0  0.21020  0.64055  0.69028  1.0000
  C   C265      1.0  0.21382  0.66698  0.61450  1.0000
  C   C266      1.0  0.21942  0.65824  0.63530  1.0000
  H   H291      1.0  0.21738  0.62578  0.64350  1.0000
  H   H292      1.0  0.21520  0.68689  0.58823  1.0000
  H   H293      1.0  0.28437  0.59561  0.90986  1.0000
  C   C267      1.0  0.21982  0.68038  0.60323  1.0000
  C   C268      1.0  0.29791  0.66896  0.72463  1.0000
  C   C269      1.0  0.20406  0.55250  0.59316  1.0000
  H   H294      1.0  0.30343  0.67319  0.74253  1.0000
  H   H295      1.0  0.19363  0.53440  0.63204  1.0000
  C   C270      1.0  0.13886  0.56530  0.70095  1.0000
  C   C271      1.0  0.07657  0.55784  0.61082  1.0000
  C   C272      1.0  0.30972  0.59983  0.73310  1.0000
  H   H296      1.0  0.31328  0.64073  0.68480  1.0000
  C   C273      1.0  0.23142  0.66376  0.64335  1.0000
  C   C274      1.0  0.21463  0.56346  0.58446  1.0000
  H   H297      1.0  0.24411  0.54549  0.68381  1.0000
  H   H298      1.0  0.23628  0.65772  0.65867  1.0000
  C   C275      1.0  0.19006  0.70419  0.76063  1.0000
  C   C276      1.0  0.23139  0.68550  0.61269  1.0000
  C   C277      1.0  0.23683  0.54485  0.66647  1.0000
  C   C278      1.0  0.22326  0.56476  0.60763  1.0000
  H   H299      1.0  0.20879  0.53596  0.67231  1.0000
  H   H300      1.0  0.23093  0.57373  0.59987  1.0000
  C   C279      1.0  0.21078  0.54382  0.64800  1.0000
  H   H301      1.0  0.22959  0.53522  0.67843  1.0000
  C   C280      1.0  0.07738  0.53786  0.59217  1.0000
  C   C281      1.0  0.01852  0.60815  0.97846  1.0000
  C   C282      1.0  0.23720  0.67720  0.63262  1.0000
  C   C283      1.0  0.22159  0.55493  0.64025  1.0000
  H   H302      1.0  0.22967  0.55557  0.72293  1.0000
  H   H303      1.0  0.24203  0.54479  0.63811  1.0000
  H   H304      1.0  0.29069  0.74354  0.97065  1.0000
  C   C284      1.0  0.30353  0.63374  0.69776  1.0000
  H   H305      1.0  0.23572  0.69594  0.60520  1.0000
  N   N16       1.0  0.23060  0.55584  0.66529  1.0000
  C   C285      1.0  0.22319  0.55505  0.70331  1.0000
  H   H306      1.0  0.28348  0.69317  0.97405  1.0000
  N   N17       1.0  0.22787  0.63037  0.86086  1.0000
  H   H307      1.0  0.03711  0.63036  0.68259  1.0000
  C   C286      1.0  0.17685  0.67779  0.77877  1.0000
  C   C287      1.0  0.07804  0.51612  0.68596  1.0000
  H   H308      1.0  0.21502  0.61289  0.89944  1.0000
  H   H309      1.0  0.24770  0.56865  0.67352  1.0000
  H   H310      1.0  0.21534  0.54585  0.71516  1.0000
  H   H311      1.0  0.21849  0.56325  0.70348  1.0000
  C   C288      1.0  0.08309  0.55094  0.58947  1.0000
  H   H312      1.0  0.08266  0.53241  0.57628  1.0000
  N   N18       1.0  0.29287  0.63862  0.68511  1.0000
  H   H313      1.0  0.24612  0.68122  0.64038  1.0000
  H   H314      1.0  0.23722  0.57685  0.65305  1.0000
  C   C289      1.0  0.32060  0.59644  0.90751  1.0000
  H   H315      1.0  0.30412  0.64791  0.62940  1.0000
  H   H316      1.0  0.14707  0.60455  0.68032  1.0000
  H   H317      1.0  0.01851  0.60743  0.95024  1.0000
  Fe  Fe45      1.0  0.26003  0.69330  0.79092  1.0000
  H   H318      1.0  0.21586  0.57122  0.56029  1.0000
  H   H319      1.0  0.24764  0.56919  0.62605  1.0000
  H   H320      1.0  0.17197  0.66747  0.78492  1.0000
  H   H321      1.0  0.20615  0.69638  0.86647  1.0000
  H   H322      1.0  0.29974  0.59764  0.85115  1.0000
  H   H323      1.0  0.03681  0.55967  0.91418  1.0000
  H   H324      1.0  0.26586  0.65668  0.87740  1.0000
  H   H325      1.0  0.21371  0.71627  0.77207  1.0000
  C   C290      1.0  0.02162  0.53721  0.91254  1.0000
  H   H326      1.0  0.30201  0.63184  0.72840  1.0000
  C   C291      1.0  0.21432  0.68179  0.72887  1.0000
  H   H327      1.0  0.31931  0.59890  0.72100  1.0000
  C   C292      1.0  0.29936  0.65721  0.71621  1.0000
  C   C293      1.0  0.25752  0.73275  0.91648  1.0000
  H   H328      1.0  0.23013  0.61974  0.93059  1.0000
  H   H329      1.0  0.10581  0.55396  0.73246  1.0000
  S   S87       1.0  0.14965  0.66441  0.54607  1.0000
  H   H330      1.0  0.27186  0.63140  0.69459  1.0000
  H   H331      1.0  0.18358  0.70771  0.84728  1.0000
  C   C294      1.0  0.27426  0.69518  0.96840  1.0000
  H   H332      1.0  0.16337  0.57921  0.65597  1.0000
  N   N19       1.0  0.03201  0.53859  0.93318  1.0000
  H   H333      1.0  0.17049  0.68205  0.72841  1.0000
  C   C295      1.0  0.03285  0.60456  0.71180  1.0000
  H   H334      1.0  0.09271  0.55563  0.57126  1.0000
  C   C296      1.0  0.15412  0.59919  0.66980  1.0000
  H   H335      1.0  0.28404  0.71061  0.90217  1.0000
  C   C297      1.0  0.23473  0.65708  0.91363  1.0000
  C   C298      1.0  0.03910  0.52848  0.92750  1.0000
  H   H336      1.0  0.02402  0.62868  0.65904  1.0000
  C   C299      1.0  0.00367  0.56350  0.73090  1.0000
  C   C300      1.0  0.01620  0.61505  0.73085  1.0000
  S   S88       1.0  0.23112  0.70692  0.70602  1.0000
  H   H337      1.0  0.23250  0.65731  0.85926  1.0000
  Fe  Fe46      1.0  0.24400  0.70887  0.82804  1.0000
  H   H338      1.0  0.25096  0.68882  0.95150  1.0000
  Fe  Fe47      1.0  0.24362  0.70725  0.74875  1.0000
  C   C301      1.0  0.01244  0.58990  0.63525  1.0000
  S   S89       1.0  0.32185  0.61561  0.77402  1.0000
  H   H339      1.0  0.23887  0.61638  0.87488  1.0000
  C   C302      1.0  0.23556  0.71179  0.94987  1.0000
  H   H340      1.0  0.28050  0.61902  0.69716  1.0000
  H   H341      1.0  0.05604  0.59747  0.91519  1.0000
  H   H342      1.0  0.26780  0.67947  0.87775  1.0000
  H   H343      1.0  0.30624  0.65293  0.72815  1.0000
  H   H344      1.0  0.21913  0.64392  0.83132  1.0000
  H   H345      1.0  0.27277  0.58180  0.96507  1.0000
  C   C303      1.0  0.25073  0.72618  0.89442  1.0000
  C   C304      1.0  0.19394  0.71181  0.83125  1.0000
  H   H346      1.0  0.04872  0.55349  0.93414  1.0000
  H   H347      1.0  0.14987  0.59707  0.74235  1.0000
  H   H348      1.0  0.28785  0.68409  0.71823  1.0000
  H   H349      1.0  0.21947  0.71134  0.81220  1.0000
  H   H350      1.0  0.03072  0.60105  0.63922  1.0000
  C   C305      1.0  0.23253  0.65100  0.88502  1.0000
  C   C306      1.0  0.08800  0.51021  0.63104  1.0000
  H   H351      1.0  0.21942  0.68000  0.75048  1.0000
  H   H352      1.0  0.09609  0.51189  0.60733  1.0000
  C   C307      1.0  0.26811  0.65113  0.93303  1.0000
  H   H353      1.0  0.03970  0.60261  0.68892  1.0000
  C   C308      1.0  0.24262  0.71810  0.97195  1.0000
  C   C309      1.0  0.29442  0.59583  0.91027  1.0000
  C   C310      1.0  0.22719  0.63907  0.82626  1.0000
  H   H354      1.0  0.22545  0.63360  0.80469  1.0000
  H   H355      1.0  0.33081  0.59669  0.90616  1.0000
  S   S90       1.0  0.24747  0.72429  0.77561  1.0000
  H   H356      1.0  0.02017  0.55578  0.96251  1.0000
  C   C311      1.0  0.31613  0.59722  0.87519  1.0000
  C   C312      1.0  0.29530  0.63983  0.64449  1.0000
  H   H357      1.0  0.16540  0.57347  0.70205  1.0000
  H   H358      1.0  0.07849  0.52245  0.70491  1.0000
  H   H359      1.0  0.12509  0.54709  0.70477  1.0000
  H   H360      1.0  0.23651  0.64672  0.81376  1.0000
  H   H361      1.0  0.02572  0.53808  0.88258  1.0000
  H   H362      1.0  0.18467  0.67571  0.82593  1.0000
  H   H363      1.0  0.04681  0.52866  0.94328  1.0000
  H   H364      1.0  0.30404  0.62425  0.69083  1.0000
  H   H365      1.0  0.15182  0.59656  0.64435  1.0000
  H   H366      1.0  0.29690  0.63068  0.63716  1.0000
  N   N20       1.0  0.02341  0.61133  0.69864  1.0000
  C   C313      1.0  0.15301  0.65938  0.50391  1.0000
  H   H367      1.0  0.15585  0.58288  0.75381  1.0000
  S   S91       1.0  0.26503  0.70873  0.82165  1.0000
  C   C314      1.0  0.25353  0.72869  0.95527  1.0000
  C   C315      1.0  0.27008  0.65540  0.96451  1.0000
  C   C316      1.0  0.11701  0.57311  0.73181  1.0000
  S   S92       1.0  0.00983  0.51422  0.74622  1.0000
  S   S93       1.0  0.26494  0.70732  0.73536  1.0000
  H   H368      1.0  0.01410  0.56519  0.72802  1.0000
  H   H369      1.0  0.04999  0.54026  0.71114  1.0000
  C   C317      1.0  0.16468  0.58210  0.68203  1.0000
  H   H370      1.0  0.07093  0.51490  0.77707  1.0000
  H   H371      1.0  0.04393  0.52987  0.89769  1.0000
  N   N21       1.0  0.27178  0.69169  0.93374  1.0000
  C   C318      1.0  0.01482  0.60274  0.68190  1.0000
  H   H372      1.0  0.23667  0.61852  0.82902  1.0000
  H   H373      1.0  0.06846  0.60417  0.96040  1.0000
  H   H374      1.0  0.25394  0.72932  0.86451  1.0000
  C   C319      1.0  0.23360  0.63637  0.95308  1.0000
  S   S94       1.0  0.28707  0.73963  0.74446  1.0000
  H   H375      1.0  0.24810  0.63096  0.84085  1.0000
  H   H376      1.0  0.28105  0.69903  0.87510  1.0000
  C   C320      1.0  0.23833  0.62381  0.85098  1.0000
  S   S95       1.0  0.00382  0.57870  0.78283  1.0000
  C   C321      1.0  0.21514  0.62038  0.87485  1.0000
  H   H377      1.0  0.19710  0.55176  0.57590  1.0000
  C   C322      1.0  0.23056  0.63727  0.89000  1.0000
  C   C323      1.0  0.23131  0.63018  0.92484  1.0000
  N   N22       1.0  0.28915  0.59365  0.97922  1.0000
  H   H378      1.0  0.06031  0.51456  0.84139  1.0000
  H   H379      1.0  0.21281  0.61493  0.85366  1.0000
  H   H380      1.0  0.23699  0.65448  0.96978  1.0000
  S   S96       1.0  0.23117  0.70735  0.88374  1.0000
  H   H381      1.0  0.18216  0.70545  0.71224  1.0000
  C   C324      1.0  0.21289  0.70775  0.79484  1.0000
  C   C325      1.0  0.06664  0.50566  0.79730  1.0000
  H   H382      1.0  0.08111  0.56798  0.60895  1.0000
  H   H383      1.0  0.00909  0.62047  0.72291  1.0000
  C   C326      1.0  0.11546  0.56064  0.72551  1.0000
  H   H384      1.0  0.03937  0.52414  0.72509  1.0000
  H   H385      1.0  0.19005  0.68721  0.86851  1.0000
  H   H386      1.0  0.04721  0.55225  0.88850  1.0000
  H   H387      1.0  0.20701  0.62487  0.88301  1.0000
  H   H388      1.0  0.16671  0.59806  0.72546  1.0000
  C   C327      1.0  0.28347  0.60503  0.97659  1.0000
  H   H389      1.0  0.23412  0.63073  0.97944  1.0000
  N   N23       1.0  0.19928  0.70167  0.81705  1.0000
  H   H390      1.0  0.20430  0.68419  0.84068  1.0000
  H   H391      1.0  0.02215  0.50598  0.80487  1.0000
  Fe  Fe48      1.0  0.26839  0.72298  0.76713  1.0000
  C   C328      1.0  0.02029  0.59826  0.65103  1.0000
  C   C329      1.0  0.18431  0.68268  0.80194  1.0000
  H   H392      1.0  0.02293  0.62144  0.74290  1.0000
  H   H393      1.0  0.25721  0.69354  0.90210  1.0000
  H   H394      1.0  0.19966  0.71600  0.84983  1.0000
  H   H395      1.0  0.19424  0.72014  0.80855  1.0000
  C   C330      1.0  0.19119  0.69610  0.79347  1.0000
  H   H396      1.0  0.13017  0.59124  0.72852  1.0000
  H   H397      1.0  0.32277  0.59808  0.84889  1.0000
  C   C331      1.0  0.27063  0.67777  0.93401  1.0000
  H   H398      1.0  0.10850  0.57617  0.74354  1.0000
  H   H399      1.0  0.19516  0.71443  0.75205  1.0000
  C   C332      1.0  0.26742  0.65997  0.90197  1.0000
  C   C333      1.0  0.18259  0.69918  0.73770  1.0000
  C   C334      1.0  0.15666  0.59152  0.73132  1.0000
  H   H400      1.0  0.17439  0.58937  0.67461  1.0000
  C   C335      1.0  0.19989  0.69186  0.84954  1.0000
  N   N24       1.0  0.15386  0.58746  0.69771  1.0000
  C   C336      1.0  0.12947  0.58169  0.72303  1.0000
  H   H401      1.0  0.02754  0.59502  0.73136  1.0000
  C   C337      1.0  0.31203  0.59537  0.94144  1.0000
  H   H402      1.0  0.22701  0.70373  0.96288  1.0000
  H   H403      1.0  0.05879  0.50404  0.71587  1.0000
  H   H404      1.0  0.22272  0.59020  0.96920  1.0000
  H   H405      1.0  0.01085  0.60631  0.75377  1.0000
  H   H406      1.0  0.29120  0.61433  0.97085  1.0000
  C   C338      1.0  0.02021  0.54735  0.98294  1.0000
  H   H407      1.0  0.27798  0.60582  0.95462  1.0000
  H   H408      1.0  0.00333  0.55284  0.68806  1.0000
  S   S97       1.0  0.26219  0.73725  0.98202  1.0000
  H   H409      1.0  0.01436  0.52753  0.92374  1.0000
  H   H410      1.0  0.26705  0.64094  0.93281  1.0000
  H   H411      1.0  0.03235  0.51850  0.93598  1.0000
  H   H412      1.0  0.27512  0.70572  0.96722  1.0000
  H   H413      1.0  0.29207  0.69759  0.90470  1.0000
  C   C339      1.0  0.27141  0.66852  0.96508  1.0000
  H   H414      1.0  0.31618  0.59486  0.96530  1.0000
  C   C340      1.0  0.06685  0.50570  0.69220  1.0000
  C   C341      1.0  0.27843  0.58160  0.98672  1.0000
  C   C342      1.0  0.99895  0.58583  0.64950  1.0000
  C   C343      1.0  0.00100  0.59841  0.69566  1.0000
  H   H415      1.0  0.02184  0.50044  0.91449  1.0000
  C   C344      1.0  0.06068  0.50549  0.83349  1.0000
  C   C345      1.0  0.07679  0.49974  0.63738  1.0000
  C   C346      1.0  0.03021  0.61333  0.98719  1.0000
  H   H416      1.0  0.29858  0.78154  0.11727  1.0000
  H   H417      1.0  0.28846  0.75423  0.00043  1.0000
  C   C347      1.0  0.30528  0.77594  0.10844  1.0000
  H   H418      1.0  0.30506  0.76110  0.21689  1.0000
  H   H419      1.0  0.29002  0.76026  0.10275  1.0000
  C   C348      1.0  0.32236  0.76131  0.08654  1.0000
  H   H420      1.0  0.31793  0.78706  0.02797  1.0000
  H   H421      1.0  0.32003  0.75670  0.20388  1.0000
  C   C349      1.0  0.31007  0.75574  0.19881  1.0000
  C   C350      1.0  0.30039  0.76388  0.10026  1.0000
  S   S98       1.0  0.32411  0.79509  0.12112  1.0000
  H   H422      1.0  0.30642  0.76716  0.01525  1.0000
  H   H423      1.0  0.31154  0.76090  0.16943  1.0000
  C   C351      1.0  0.32726  0.77340  0.09444  1.0000
  C   C352      1.0  0.31871  0.78069  0.10612  1.0000
  C   C353      1.0  0.30888  0.75636  0.09002  1.0000
  H   H424      1.0  0.32903  0.75560  0.07843  1.0000
  H   H425      1.0  0.26799  0.75731  0.17149  1.0000
  H   H426      1.0  0.28958  0.76097  0.18339  1.0000
  C   C354      1.0  0.31009  0.77568  0.99234  1.0000
  C   C355      1.0  0.28417  0.75096  0.18759  1.0000
  C   C356      1.0  0.31674  0.78710  0.00013  1.0000
  H   H427      1.0  0.30355  0.74925  0.99173  1.0000
  N   N25       1.0  0.30143  0.76363  0.94655  1.0000
  C   C357      1.0  0.29938  0.77639  0.66725  1.0000
  H   H428      1.0  0.30592  0.75098  0.91091  1.0000
  H   H429      1.0  0.29969  0.79346  0.74837  1.0000
  H   H430      1.0  0.31278  0.75689  0.72815  1.0000
  H   H431      1.0  0.32396  0.80769  0.91524  1.0000
  C   C358      1.0  0.28901  0.77245  0.69861  1.0000
  C   C359      1.0  0.28927  0.77894  0.72703  1.0000
  H   H432      1.0  0.28360  0.76972  0.94961  1.0000
  H   H433      1.0  0.31274  0.78799  0.90026  1.0000
  C   C360      1.0  0.32014  0.79872  0.93672  1.0000
  C   C361      1.0  0.29999  0.78926  0.72459  1.0000
  C   C362      1.0  0.32197  0.80964  0.72293  1.0000
  H   H434      1.0  0.31918  0.75800  0.92972  1.0000
  S   S99       1.0  0.31245  0.78245  0.82361  1.0000
  C   C363      1.0  0.29046  0.76621  0.93037  1.0000
  H   H435      1.0  0.32497  0.81210  0.63096  1.0000
  H   H436      1.0  0.31351  0.81393  0.72854  1.0000
  C   C364      1.0  0.31083  0.79345  0.69309  1.0000
  C   C365      1.0  0.29317  0.76197  0.81870  1.0000
  C   C366      1.0  0.30601  0.76983  0.80286  1.0000
  C   C367      1.0  0.31315  0.76771  0.77064  1.0000
  C   C368      1.0  0.30731  0.75820  0.75366  1.0000
  C   C369      1.0  0.28740  0.75231  0.80206  1.0000
  H   H437      1.0  0.28755  0.76350  0.84366  1.0000
  H   H438      1.0  0.32308  0.77350  0.75855  1.0000
  H   H439      1.0  0.32136  0.80198  0.74795  1.0000
  H   H440      1.0  0.31790  0.78945  0.63944  1.0000
  H   H441      1.0  0.29387  0.77357  0.90336  1.0000
  H   H442      1.0  0.31452  0.81864  0.66101  1.0000
  N   N26       1.0  0.32244  0.80424  0.68958  1.0000
  C   C370      1.0  0.31360  0.78738  0.92852  1.0000
  H   H443      1.0  0.31470  0.76764  0.89263  1.0000
  H   H444      1.0  0.32684  0.80744  0.97856  1.0000
  C   C371      1.0  0.31072  0.75990  0.91882  1.0000
  H   H445      1.0  0.29917  0.77114  0.64553  1.0000
  H   H446      1.0  0.28134  0.77556  0.75187  1.0000
  C   C372      1.0  0.30829  0.77551  0.95612  1.0000
  H   H447      1.0  0.28092  0.76409  0.70145  1.0000
  C   C373      1.0  0.31010  0.78679  0.66427  1.0000
  C   C374      1.0  0.29437  0.75052  0.76904  1.0000
  H   H448      1.0  0.28462  0.75725  0.92486  1.0000
  C   C375      1.0  0.32352  0.81507  0.65767  1.0000
  C   C376      1.0  0.32174  0.79859  0.97241  1.0000
  H   H449      1.0  0.33090  0.81763  0.71956  1.0000
  C   C377      1.0  0.29586  0.75223  0.97884  1.0000
  Fe  Fe49      1.0  0.47414  0.00903  0.09462  1.0000
  S   S100      1.0  0.48828  0.01521  0.03846  1.0000
  H   H450      1.0  0.54829  0.09019  0.06569  1.0000
  Fe  Fe50      1.0  0.48174  0.03665  0.10863  1.0000
  S   S101      1.0  0.49592  0.04469  0.05316  1.0000
  S   S102      1.0  0.47986  0.04780  0.15433  1.0000
  Fe  Fe51      1.0  0.48079  0.03304  0.02997  1.0000
  C   C378      1.0  0.58827  0.09520  0.11741  1.0000
  Fe  Fe52      1.0  0.50200  0.02625  0.06566  1.0000
  S   S103      1.0  0.52319  0.02677  0.05482  1.0000
  S   S104      1.0  0.46563  0.02642  0.08492  1.0000
  S   S105      1.0  0.48879  0.01868  0.12232  1.0000
  Fe  Fe53      1.0  0.56438  0.03880  0.18666  1.0000
  S   S106      1.0  0.54295  0.03719  0.19485  1.0000
  Fe  Fe54      1.0  0.58896  0.05608  0.19949  1.0000
  S   S107      1.0  0.59214  0.07226  0.23111  1.0000
  S   S108      1.0  0.57759  0.05822  0.15590  1.0000
  Fe  Fe55      1.0  0.52962  0.10909  0.20482  1.0000
  S   S109      1.0  0.54633  0.12656  0.17342  1.0000
  S   S110      1.0  0.52593  0.09392  0.16966  1.0000
  Fe  Fe56      1.0  0.52984  0.11784  0.27913  1.0000
  S   S111      1.0  0.54667  0.13547  0.25280  1.0000
  S   S112      1.0  0.52182  0.11043  0.34213  1.0000
  Fe  Fe57      1.0  0.53647  0.13839  0.20652  1.0000
  S   S113      1.0  0.53651  0.15896  0.17852  1.0000
  Fe  Fe58      1.0  0.55533  0.12254  0.22120  1.0000
  S   S114      1.0  0.57594  0.12072  0.21112  1.0000
  S   S115      1.0  0.51868  0.12138  0.23464  1.0000
  S   S116      1.0  0.53951  0.10463  0.25098  1.0000
  S   S117      1.0  0.62437  0.13820  0.31734  1.0000
  S   S118      1.0  0.63888  0.11442  0.25887  1.0000
  Fe  Fe59      1.0  0.62845  0.15695  0.27470  1.0000
  S   S119      1.0  0.61235  0.16510  0.25916  1.0000
  C   C379      1.0  0.64509  0.14897  0.43417  1.0000
  Fe  Fe60      1.0  0.59527  0.22239  0.09360  1.0000
  H   H451      1.0  0.59560  0.12677  0.32312  1.0000
  S   S120      1.0  0.59114  0.20209  0.13088  1.0000
  S   S121      1.0  0.60646  0.22393  0.03583  1.0000
  C   C380      1.0  0.55165  0.17097  0.16566  1.0000
  C   C381      1.0  0.55206  0.18422  0.15393  1.0000
  C   C382      1.0  0.56407  0.19389  0.14318  1.0000
  C   C383      1.0  0.57578  0.19035  0.14387  1.0000
  C   C384      1.0  0.57533  0.17709  0.15558  1.0000
  C   C385      1.0  0.56335  0.16746  0.16632  1.0000
  H   H452      1.0  0.54302  0.18701  0.15375  1.0000
  H   H453      1.0  0.56423  0.20407  0.13508  1.0000
  H   H454      1.0  0.58423  0.17413  0.15630  1.0000
  H   H455      1.0  0.56316  0.15729  0.17504  1.0000
  C   C386      1.0  0.52743  0.11919  0.37390  1.0000
  C   C387      1.0  0.52653  0.11245  0.41039  1.0000
  H   H456      1.0  0.64439  0.05798  0.26113  1.0000
  C   C388      1.0  0.58205  0.10289  0.13641  1.0000
  C   C389      1.0  0.53645  0.13947  0.38996  1.0000
  C   C390      1.0  0.53255  0.13273  0.36377  1.0000
  H   H457      1.0  0.62246  0.16335  0.12769  1.0000
  Fe  Fe61      1.0  0.58916  0.04666  0.12648  1.0000
  H   H458      1.0  0.54015  0.14998  0.38186  1.0000
  H   H459      1.0  0.53327  0.13807  0.33591  1.0000
  C   C391      1.0  0.58642  0.13367  0.22119  1.0000
  C   C392      1.0  0.59860  0.13245  0.22648  1.0000
  C   C393      1.0  0.60648  0.14205  0.23858  1.0000
  C   C394      1.0  0.60243  0.15314  0.24401  1.0000
  C   C395      1.0  0.59056  0.15472  0.23681  1.0000
  C   C396      1.0  0.58252  0.14494  0.22559  1.0000
  H   H460      1.0  0.60174  0.12384  0.22258  1.0000
  H   H461      1.0  0.61566  0.14076  0.24378  1.0000
  H   H462      1.0  0.58746  0.16338  0.24041  1.0000
  H   H463      1.0  0.57334  0.14614  0.22032  1.0000
  C   C397      1.0  0.60535  0.08482  0.23481  1.0000
  C   C398      1.0  0.61845  0.08606  0.21815  1.0000
  C   C399      1.0  0.62855  0.09543  0.22483  1.0000
  C   C400      1.0  0.62573  0.10392  0.24753  1.0000
  C   C401      1.0  0.61260  0.10297  0.26311  1.0000
  C   C402      1.0  0.60252  0.09343  0.25700  1.0000
  H   H464      1.0  0.62086  0.07964  0.20079  1.0000
  H   H465      1.0  0.63865  0.09600  0.21277  1.0000
  H   H466      1.0  0.61026  0.10932  0.28085  1.0000
  H   H467      1.0  0.59244  0.09257  0.27002  1.0000
  C   C403      1.0  0.49274  0.06060  0.15851  1.0000
  C   C404      1.0  0.49081  0.06649  0.18865  1.0000
  C   C405      1.0  0.50075  0.07671  0.19261  1.0000
  C   C406      1.0  0.51277  0.08124  0.16629  1.0000
  C   C407      1.0  0.51467  0.07535  0.13620  1.0000
  C   C408      1.0  0.50480  0.06508  0.13240  1.0000
  H   H468      1.0  0.48152  0.06318  0.20897  1.0000
  H   H469      1.0  0.49907  0.08113  0.21586  1.0000
  H   H470      1.0  0.52375  0.07893  0.11519  1.0000
  H   H471      1.0  0.50646  0.06077  0.10896  1.0000
  C   C409      1.0  0.52934  0.03166  0.09097  1.0000
  C   C410      1.0  0.54211  0.03151  0.09267  1.0000
  C   C411      1.0  0.54654  0.03389  0.12380  1.0000
  C   C412      1.0  0.53810  0.03603  0.15372  1.0000
  C   C413      1.0  0.52565  0.03710  0.15080  1.0000
  C   C414      1.0  0.52136  0.03514  0.11913  1.0000
  H   H472      1.0  0.54847  0.02922  0.07042  1.0000
  H   H473      1.0  0.55637  0.03374  0.12478  1.0000
  H   H474      1.0  0.51925  0.03935  0.17308  1.0000
  H   H475      1.0  0.51184  0.03625  0.11681  1.0000
  S   S122      1.0  0.57515  0.02712  0.15520  1.0000
  Fe  Fe62      1.0  0.59407  0.23677  0.01750  1.0000
  C   C415      1.0  0.61311  0.18248  0.46298  1.0000
  H   H476      1.0  0.56427  0.10860  0.15143  1.0000
  S   S123      1.0  0.64324  0.16825  0.29843  1.0000
  C   C416      1.0  0.62555  0.04874  0.22124  1.0000
  C   C417      1.0  0.54941  0.18968  0.04931  1.0000
  H   H477      1.0  0.53299  0.00689  0.14769  1.0000
  H   H478      1.0  0.48120  0.09619  0.44683  1.0000
  H   H479      1.0  0.62158  0.18225  0.08018  1.0000
  N   N27       1.0  0.56058  0.07759  0.08029  1.0000
  C   C418      1.0  0.56829  0.06995  0.06074  1.0000
  H   H480      1.0  0.60209  0.03278  0.25336  1.0000
  N   N28       1.0  0.56359  0.19298  0.03132  1.0000
  H   H481      1.0  0.56441  0.17296  0.04705  1.0000
  C   C419      1.0  0.56906  0.10256  0.13661  1.0000
  H   H482      1.0  0.65533  0.22247  0.11201  1.0000
  C   C420      1.0  0.61453  0.06268  0.29576  1.0000
  H   H483      1.0  0.54761  0.18822  0.08000  1.0000
  C   C421      1.0  0.59730  0.15694  0.48627  1.0000
  H   H484      1.0  0.65041  0.23736  0.10437  1.0000
  H   H485      1.0  0.57679  0.07638  0.03855  1.0000
  H   H486      1.0  0.44747  0.02395  0.23409  1.0000
  H   H487      1.0  0.65161  0.07713  0.28479  1.0000
  C   C422      1.0  0.61890  0.07349  0.30970  1.0000
  C   C423      1.0  0.54941  0.06813  0.10840  1.0000
  H   H488      1.0  0.56349  0.09307  0.03221  1.0000
  C   C424      1.0  0.61406  0.18721  0.16647  1.0000
  H   H489      1.0  0.61941  0.16375  0.17546  1.0000
  H   H490      1.0  0.51489  0.01137  0.19043  1.0000
  H   H491      1.0  0.55209  0.09450  0.11953  1.0000
  H   H492      1.0  0.57203  0.06345  0.08020  1.0000
  H   H493      1.0  0.56950  0.20509  0.06765  1.0000
  C   C425      1.0  0.56221  0.09446  0.11811  1.0000
  H   H494      1.0  0.51267  0.00430  0.13805  1.0000
  H   H495      1.0  0.49341  0.11548  0.39607  1.0000
  C   C426      1.0  0.65770  0.24573  0.16124  1.0000
  C   C427      1.0  0.61724  0.16761  0.14866  1.0000
  H   H496      1.0  0.59266  0.13908  0.41253  1.0000
  C   C428      1.0  0.50218  0.12638  0.46866  1.0000
  H   H497      1.0  0.56407  0.13265  0.41751  1.0000
  C   C429      1.0  0.50122  0.12642  0.43234  1.0000
  H   H498      1.0  0.59286  0.15726  0.35827  1.0000
  H   H499      1.0  0.59954  0.03799  0.29556  1.0000
  C   C430      1.0  0.60840  0.16011  0.45725  1.0000
  C   C431      1.0  0.64099  0.18367  0.16428  1.0000
  H   H500      1.0  0.56724  0.18207  0.08061  1.0000
  N   N29       1.0  0.55153  0.07244  0.23993  1.0000
  C   C432      1.0  0.54778  0.07168  0.20448  1.0000
  C   C433      1.0  0.56300  0.08391  0.23158  1.0000
  C   C434      1.0  0.55560  0.06050  0.25299  1.0000
  C   C435      1.0  0.54080  0.07353  0.26913  1.0000
  C   C436      1.0  0.52783  0.07256  0.26468  1.0000
  C   C437      1.0  0.54318  0.07569  0.30340  1.0000
  C   C438      1.0  0.51815  0.07437  0.29211  1.0000
  C   C439      1.0  0.53344  0.07758  0.33050  1.0000
  C   C440      1.0  0.52099  0.07707  0.32468  1.0000
  H   H501      1.0  0.54451  0.08040  0.19340  1.0000
  H   H502      1.0  0.55615  0.07125  0.18289  1.0000
  H   H503      1.0  0.53985  0.06274  0.20772  1.0000
  H   H504      1.0  0.56029  0.09320  0.22321  1.0000
  H   H505      1.0  0.57099  0.08359  0.20854  1.0000
  H   H506      1.0  0.56759  0.08451  0.25527  1.0000
  H   H507      1.0  0.55939  0.06072  0.27825  1.0000
  H   H508      1.0  0.54732  0.05161  0.25925  1.0000
  H   H509      1.0  0.56364  0.05940  0.23164  1.0000
  H   H510      1.0  0.52500  0.07094  0.23969  1.0000
  H   H511      1.0  0.55269  0.07623  0.30911  1.0000
  H   H512      1.0  0.50849  0.07415  0.28744  1.0000
  H   H513      1.0  0.53560  0.07979  0.35579  1.0000
  H   H514      1.0  0.51361  0.07902  0.34514  1.0000
  H   H515      1.0  0.44443  0.00731  0.17785  1.0000
  C   C441      1.0  0.58974  0.04852  0.02952  1.0000
  H   H516      1.0  0.57457  0.14855  0.40993  1.0000
  H   H517      1.0  0.61620  0.18424  0.19381  1.0000
  C   C442      1.0  0.64233  0.22435  0.17753  1.0000
  C   C443      1.0  0.63997  0.21284  0.20601  1.0000
  C   C444      1.0  0.63117  0.22820  0.16957  1.0000
  C   C445      1.0  0.62724  0.20584  0.22559  1.0000
  C   C446      1.0  0.61849  0.22112  0.18931  1.0000
  C   C447      1.0  0.61654  0.21004  0.21748  1.0000
  H   H518      1.0  0.46939  0.01149  0.25234  1.0000
  H   H519      1.0  0.60328  0.18359  0.17113  1.0000
  H   H520      1.0  0.56231  0.06339  0.04737  1.0000
  C   C448      1.0  0.57062  0.14110  0.39542  1.0000
  H   H521      1.0  0.56681  0.02345  0.01794  1.0000
  N   N30       1.0  0.61930  0.04537  0.26153  1.0000
  H   H522      1.0  0.56456  0.14547  0.37849  1.0000
  C   C449      1.0  0.63222  0.07866  0.30569  1.0000
  C   C450      1.0  0.56821  0.08640  0.09868  1.0000
  H   H523      1.0  0.60616  0.18250  0.10737  1.0000
  H   H524      1.0  0.63219  0.23674  0.14795  1.0000
  H   H525      1.0  0.62563  0.19704  0.24708  1.0000
  H   H526      1.0  0.61011  0.22420  0.18256  1.0000
  H   H527      1.0  0.60668  0.20453  0.23254  1.0000
  H   H528      1.0  0.58307  0.12280  0.41672  1.0000
  H   H529      1.0  0.54278  0.07294  0.12370  1.0000
  H   H530      1.0  0.62517  0.17512  0.42376  1.0000
  Fe  Fe63      1.0  0.64064  0.14908  0.33847  1.0000
  H   H531      1.0  0.46953  0.02561  0.21818  1.0000
  H   H532      1.0  0.60796  0.20636  0.46265  1.0000
  C   C451      1.0  0.57625  0.12741  0.35209  1.0000
  C   C452      1.0  0.56270  0.12199  0.35571  1.0000
  C   C453      1.0  0.58515  0.12308  0.32762  1.0000
  C   C454      1.0  0.55844  0.11322  0.33500  1.0000
  C   C455      1.0  0.58074  0.11420  0.30740  1.0000
  C   C456      1.0  0.56743  0.10944  0.31060  1.0000
  Fe  Fe64      1.0  0.65779  0.16189  0.26021  1.0000
  N   N31       1.0  0.65565  0.23217  0.15659  1.0000
  H   H533      1.0  0.53008  0.11384  0.46414  1.0000
  C   C457      1.0  0.61696  0.18615  0.10303  1.0000
  C   C458      1.0  0.62350  0.05665  0.27744  1.0000
  H   H534      1.0  0.64778  0.20901  0.21382  1.0000
  H   H535      1.0  0.55520  0.12454  0.37384  1.0000
  C   C459      1.0  0.63699  0.06201  0.27461  1.0000
  H   H536      1.0  0.54808  0.10951  0.33727  1.0000
  H   H537      1.0  0.58770  0.11139  0.28794  1.0000
  H   H538      1.0  0.56411  0.10306  0.29352  1.0000
  H   H539      1.0  0.57985  0.18507  0.03965  1.0000
  C   C460      1.0  0.56905  0.18281  0.05020  1.0000
  H   H540      1.0  0.54408  0.18049  0.04374  1.0000
  C   C461      1.0  0.57009  0.20563  0.03773  1.0000
  H   H541      1.0  0.63414  0.03591  0.27489  1.0000
  S   S124      1.0  0.60940  0.23987  0.10125  1.0000
  H   H542      1.0  0.59871  0.14759  0.32923  1.0000
  S   S125      1.0  0.59619  0.05508  0.06398  1.0000
  Fe  Fe65      1.0  0.64002  0.13377  0.27680  1.0000
  S   S126      1.0  0.65626  0.14320  0.30142  1.0000
  S   S127      1.0  0.57448  0.03724  0.23304  1.0000
  C   C462      1.0  0.64051  0.15263  0.46697  1.0000
  N   N32       1.0  0.62123  0.18209  0.13751  1.0000
  H   H543      1.0  0.63638  0.05098  0.21527  1.0000
  H   H544      1.0  0.50868  0.13484  0.47278  1.0000
  H   H545      1.0  0.56570  0.21362  0.02771  1.0000
  S   S128      1.0  0.59154  0.00926  0.22875  1.0000
  C   C463      1.0  0.64434  0.19437  0.09964  1.0000
  H   H546      1.0  0.62301  0.05745  0.20659  1.0000
  H   H547      1.0  0.55292  0.06200  0.12937  1.0000
  C   C464      1.0  0.64124  0.07291  0.28833  1.0000
  S   S129      1.0  0.60178  0.04583  0.16795  1.0000
  C   C465      1.0  0.52791  0.00073  0.00291  1.0000
  H   H548      1.0  0.61976  0.19211  0.45370  1.0000
  H   H549      1.0  0.50672  0.13477  0.40983  1.0000
  H   H550      1.0  0.61917  0.19697  0.09383  1.0000
  S   S130      1.0  0.58176  0.23402  0.07473  1.0000
  H   H551      1.0  0.64111  0.19732  0.07482  1.0000
  H   H552      1.0  0.54328  0.06144  0.09567  1.0000
  C   C466      1.0  0.65615  0.14406  0.43095  1.0000
  H   H553      1.0  0.58728  0.10910  0.15117  1.0000
  C   C467      1.0  0.58900  0.13203  0.39652  1.0000
  Fe  Fe66      1.0  0.58641  0.02707  0.19920  1.0000
  H   H554      1.0  0.57508  0.03230  0.06747  1.0000
  H   H555      1.0  0.58062  0.20877  0.02302  1.0000
  S   S131      1.0  0.64308  0.15208  0.23281  1.0000
  C   C468      1.0  0.48695  0.10466  0.45318  1.0000
  C   C469      1.0  0.51615  0.00382  0.21279  1.0000
  H   H556      1.0  0.61648  0.19804  0.15841  1.0000
  N   N33       1.0  0.58117  0.13725  0.37202  1.0000
  H   H557      1.0  0.63493  0.17793  0.19100  1.0000
  H   H558      1.0  0.61113  0.15262  0.44437  1.0000
  H   H559      1.0  0.61923  0.03152  0.31045  1.0000
  C   C470      1.0  0.63550  0.18681  0.13357  1.0000
  C   C471      1.0  0.62333  0.03403  0.27991  1.0000
  H   H560      1.0  0.60651  0.16364  0.15241  1.0000
  C   C472      1.0  0.58963  0.14924  0.34479  1.0000
  N   N34       1.0  0.45498  0.00798  0.22053  1.0000
  H   H561      1.0  0.60411  0.05957  0.29856  1.0000
  H   H562      1.0  0.61986  0.02521  0.26955  1.0000
  C   C473      1.0  0.53074  0.11916  0.43637  1.0000
  H   H563      1.0  0.44475  0.01031  0.27265  1.0000
  C   C474      1.0  0.57937  0.03727  0.03869  1.0000
  H   H564      1.0  0.59779  0.12991  0.38069  1.0000
  H   H565      1.0  0.50540  0.00097  0.99147  1.0000
  H   H566      1.0  0.65613  0.24592  0.19104  1.0000
  C   C475      1.0  0.53558  0.13276  0.42638  1.0000
  C   C476      1.0  0.65783  0.19820  0.09673  1.0000
  H   H567      1.0  0.52255  0.10197  0.41855  1.0000
  C   C477      1.0  0.58156  0.08714  0.09847  1.0000
  C   C478      1.0  0.60493  0.04120  0.26587  1.0000
  C   C479      1.0  0.65721  0.23249  0.11662  1.0000
  H   H568      1.0  0.55015  0.07912  0.03695  1.0000
  H   H569      1.0  0.63557  0.08742  0.31504  1.0000
  H   H570      1.0  0.62234  0.04057  0.20818  1.0000
  C   C480      1.0  0.55541  0.08533  0.05262  1.0000
  H   H571      1.0  0.65967  0.14098  0.40620  1.0000
  C   C481      1.0  0.65446  0.18759  0.16107  1.0000
  H   H572      1.0  0.58444  0.15289  0.32387  1.0000
  H   H573      1.0  0.58702  0.08144  0.08444  1.0000
  H   H574      1.0  0.46121  0.00758  0.16319  1.0000
  C   C482      1.0  0.61632  0.17284  0.44570  1.0000
  H   H575      1.0  0.47620  0.01336  0.20373  1.0000
  H   H576      1.0  0.45691  0.02225  0.17022  1.0000
  S   S132      1.0  0.64099  0.24583  0.01877  1.0000
  C   C483      1.0  0.44515  0.01308  0.24253  1.0000
  H   H577      1.0  0.60130  0.04919  0.25176  1.0000
  H   H578      1.0  0.61197  0.07827  0.32221  1.0000
  S   S133      1.0  0.54071  0.14196  0.45782  1.0000
  C   C484      1.0  0.46806  0.01482  0.22397  1.0000
  H   H579      1.0  0.59136  0.19836  0.46400  1.0000
  C   C485      1.0  0.49373  0.11554  0.42454  1.0000
  H   H580      1.0  0.59837  0.09543  0.11756  1.0000
  H   H581      1.0  0.50653  0.99973  0.23331  1.0000
  Fe  Fe67      1.0  0.61943  0.24216  0.04186  1.0000
  S   S134      1.0  0.63636  0.15055  0.39883  1.0000
  H   H582      1.0  0.43520  0.00954  0.23821  1.0000
  H   H583      1.0  0.54116  0.00440  0.18391  1.0000
  C   C486      1.0  0.45439  0.01147  0.18126  1.0000
  H   H584      1.0  0.54475  0.19747  0.03959  1.0000
  H   H585      1.0  0.52317  0.00910  0.22649  1.0000
  C   C487      1.0  0.66287  0.19478  0.12734  1.0000
  H   H586      1.0  0.63200  0.15640  0.47007  1.0000
  H   H587      1.0  0.52154  0.00544  0.01969  1.0000
  H   H588      1.0  0.65842  0.18477  0.18473  1.0000
  H   H589      1.0  0.54214  0.05361  0.02288  1.0000
  C   C488      1.0  0.66243  0.14275  0.46050  1.0000
  H   H590      1.0  0.66445  0.20376  0.07044  1.0000
  H   H591      1.0  0.52286  0.05283  0.99808  1.0000
  C   C489      1.0  0.57471  0.03226  0.01048  1.0000
  H   H592      1.0  0.53603  0.00014  0.01693  1.0000
  C   C490      1.0  0.59817  0.20140  0.48138  1.0000
  C   C491      1.0  0.56547  0.19409  0.99091  1.0000
  C   C492      1.0  0.54316  0.05475  0.99332  1.0000
  C   C493      1.0  0.59515  0.05485  0.99186  1.0000
  C   C494      1.0  0.53365  0.99937  0.17116  1.0000
  H   H593      1.0  0.59991  0.21716  0.97148  1.0000
  Fe  Fe68      1.0  0.46776  0.02088  0.79153  1.0000
  S   S135      1.0  0.45906  0.02038  0.74159  1.0000
  S   S136      1.0  0.45675  0.01781  0.85139  1.0000
  Fe  Fe69      1.0  0.49383  0.01929  0.74986  1.0000
  S   S137      1.0  0.48757  0.01828  0.69750  1.0000
  S   S138      1.0  0.51353  0.01659  0.75253  1.0000
  Fe  Fe70      1.0  0.47855  0.03447  0.70917  1.0000
  S   S139      1.0  0.48402  0.05090  0.65708  1.0000
  C   C495      1.0  0.63252  0.22456  0.61030  1.0000
  H   H594      1.0  0.64109  0.23239  0.60712  1.0000
  S   S140      1.0  0.48611  0.03628  0.75978  1.0000
  C   C496      1.0  0.56909  0.19700  0.91317  1.0000
  Fe  Fe71      1.0  0.59518  0.05174  0.79561  1.0000
  S   S141      1.0  0.58318  0.05880  0.83943  1.0000
  S   S142      1.0  0.61401  0.06458  0.75517  1.0000
  Fe  Fe72      1.0  0.56674  0.05011  0.81605  1.0000
  S   S143      1.0  0.54955  0.05812  0.81011  1.0000
  S   S144      1.0  0.57880  0.04438  0.76976  1.0000
  Fe  Fe73      1.0  0.53025  0.12324  0.59936  1.0000
  S   S145      1.0  0.54181  0.11720  0.55245  1.0000
  S   S146      1.0  0.51263  0.11014  0.64353  1.0000
  Fe  Fe74      1.0  0.54826  0.15121  0.57983  1.0000
  S   S147      1.0  0.56059  0.14723  0.53051  1.0000
  S   S148      1.0  0.55426  0.17179  0.58953  1.0000
  Fe  Fe75      1.0  0.54214  0.13677  0.51814  1.0000
  Fe  Fe76      1.0  0.55913  0.12825  0.56866  1.0000
  S   S149      1.0  0.57780  0.12244  0.56967  1.0000
  S   S150      1.0  0.52962  0.14238  0.56439  1.0000
  S   S151      1.0  0.54766  0.13256  0.61869  1.0000
  S   S152      1.0  0.61785  0.16879  0.59973  1.0000
  S   S153      1.0  0.58416  0.19224  0.70727  1.0000
  S   S154      1.0  0.61091  0.20754  0.74560  1.0000
  H   H595      1.0  0.49095  0.09456  0.56070  1.0000
  H   H596      1.0  0.43426  0.00964  0.82166  1.0000
  C   C497      1.0  0.56234  0.17726  0.62297  1.0000
  C   C498      1.0  0.56572  0.19069  0.62197  1.0000
  C   C499      1.0  0.57230  0.19549  0.64752  1.0000
  C   C500      1.0  0.57551  0.18688  0.67471  1.0000
  C   C501      1.0  0.57209  0.17345  0.67573  1.0000
  C   C502      1.0  0.56564  0.16868  0.64996  1.0000
  H   H597      1.0  0.56313  0.19744  0.60145  1.0000
  H   H598      1.0  0.57476  0.20582  0.64644  1.0000
  H   H599      1.0  0.57431  0.16668  0.69696  1.0000
  H   H600      1.0  0.56305  0.15835  0.65124  1.0000
  C   C503      1.0  0.58901  0.13566  0.57637  1.0000
  C   C504      1.0  0.58460  0.14524  0.59152  1.0000
  C   C505      1.0  0.59355  0.15570  0.59731  1.0000
  C   C506      1.0  0.60693  0.15660  0.58802  1.0000
  C   C507      1.0  0.61137  0.14732  0.57156  1.0000
  C   C508      1.0  0.60243  0.13678  0.56607  1.0000
  H   H601      1.0  0.57431  0.14464  0.59899  1.0000
  H   H602      1.0  0.59005  0.16291  0.60981  1.0000
  H   H603      1.0  0.62171  0.14839  0.56229  1.0000
  H   H604      1.0  0.60596  0.12968  0.55310  1.0000
  C   C509      1.0  0.61801  0.08188  0.74481  1.0000
  C   C510      1.0  0.62968  0.08910  0.71869  1.0000
  C   C511      1.0  0.63295  0.10286  0.70889  1.0000
  C   C512      1.0  0.62473  0.10953  0.72594  1.0000
  C   C513      1.0  0.61308  0.10232  0.75208  1.0000
  C   C514      1.0  0.60968  0.08858  0.76127  1.0000
  H   H605      1.0  0.63622  0.08401  0.70591  1.0000
  H   H606      1.0  0.60666  0.10737  0.76552  1.0000
  H   H607      1.0  0.60068  0.08318  0.78138  1.0000
  H   H608      1.0  0.59490  0.05471  0.93481  1.0000
  H   H609      1.0  0.63978  0.22285  0.76729  1.0000
  C   C515      1.0  0.49271  0.06704  0.65459  1.0000
  C   C516      1.0  0.49078  0.07269  0.68483  1.0000
  C   C517      1.0  0.49710  0.08586  0.68108  1.0000
  C   C518      1.0  0.50575  0.09338  0.64753  1.0000
  C   C519      1.0  0.50817  0.08755  0.61780  1.0000
  C   C520      1.0  0.50146  0.07452  0.62111  1.0000
  H   H610      1.0  0.48401  0.06706  0.71068  1.0000
  H   H611      1.0  0.49515  0.09030  0.70420  1.0000
  H   H612      1.0  0.51495  0.09315  0.59202  1.0000
  H   H613      1.0  0.50302  0.07019  0.59761  1.0000
  C   C521      1.0  0.52255  0.02727  0.77321  1.0000
  C   C522      1.0  0.51784  0.03717  0.78570  1.0000
  C   C523      1.0  0.52610  0.04676  0.79704  1.0000
  C   C524      1.0  0.53886  0.04606  0.79738  1.0000
  C   C525      1.0  0.54316  0.03563  0.78730  1.0000
  C   C526      1.0  0.53512  0.02638  0.77472  1.0000
  H   H614      1.0  0.50800  0.03767  0.78579  1.0000
  H   H615      1.0  0.52263  0.05471  0.80518  1.0000
  H   H616      1.0  0.55278  0.03472  0.78824  1.0000
  H   H617      1.0  0.53881  0.01868  0.76542  1.0000
  C   C527      1.0  0.46461  0.02392  0.88416  1.0000
  C   C528      1.0  0.45980  0.01781  0.92213  1.0000
  C   C529      1.0  0.48000  0.04070  0.90033  1.0000
  C   C530      1.0  0.47499  0.03521  0.87334  1.0000
  C   C531      1.0  0.47499  0.03476  0.93834  1.0000
  N   N35       1.0  0.64676  0.21119  0.80803  1.0000
  H   H618      1.0  0.47870  0.04009  0.84429  1.0000
  H   H619      1.0  0.52055  0.07367  0.92389  1.0000
  H   H620      1.0  0.55888  0.21194  0.91472  1.0000
  H   H621      1.0  0.57966  0.18239  0.91921  1.0000
  H   H622      1.0  0.50517  0.06298  0.92408  1.0000
  N   N36       1.0  0.59838  0.19001  0.50992  1.0000
  H   H623      1.0  0.52072  0.04153  0.64511  1.0000
  C   C532      1.0  0.63663  0.19904  0.81167  1.0000
  H   H624      1.0  0.48237  0.09572  0.51044  1.0000
  C   C533      1.0  0.53295  0.05514  0.94050  1.0000
  H   H625      1.0  0.53508  0.05321  0.61561  1.0000
  H   H626      1.0  0.62107  0.23839  0.60123  1.0000
  Fe  Fe77      1.0  0.63521  0.16186  0.61072  1.0000
  H   H627      1.0  0.65151  0.19699  0.66748  1.0000
  C   C534      1.0  0.59799  0.21935  0.94444  1.0000
  H   H628      1.0  0.61837  0.19811  0.51167  1.0000
  S   S155      1.0  0.56586  0.00392  0.80771  1.0000
  Fe  Fe78      1.0  0.60318  0.21535  0.79342  1.0000
  H   H629      1.0  0.56379  0.05601  0.98170  1.0000
  C   C535      1.0  0.66053  0.24635  0.92608  1.0000
  N   N37       1.0  0.59743  0.14411  0.71245  1.0000
  C   C536      1.0  0.60349  0.13840  0.68315  1.0000
  C   C537      1.0  0.59950  0.15831  0.69709  1.0000
  C   C538      1.0  0.60449  0.14276  0.74247  1.0000
  C   C539      1.0  0.58327  0.13748  0.72495  1.0000
  C   C540      1.0  0.57744  0.12897  0.76064  1.0000
  C   C541      1.0  0.57492  0.13903  0.70054  1.0000
  H   H630      1.0  0.60254  0.12784  0.69405  1.0000
  H   H631      1.0  0.59901  0.13938  0.65907  1.0000
  H   H632      1.0  0.61412  0.14326  0.67232  1.0000
  H   H633      1.0  0.59610  0.16045  0.67129  1.0000
  H   H634      1.0  0.61006  0.16363  0.68926  1.0000
  H   H635      1.0  0.59433  0.16284  0.71749  1.0000
  H   H636      1.0  0.60444  0.13243  0.75334  1.0000
  H   H637      1.0  0.61505  0.14808  0.73232  1.0000
  H   H638      1.0  0.60029  0.14673  0.76573  1.0000
  H   H639      1.0  0.58301  0.12693  0.78085  1.0000
  H   H640      1.0  0.57869  0.14506  0.67267  1.0000
  N   N38       1.0  0.60352  0.09882  0.63845  1.0000
  C   C542      1.0  0.61206  0.11190  0.63532  1.0000
  C   C543      1.0  0.61152  0.08928  0.64279  1.0000
  C   C544      1.0  0.59944  0.09872  0.60318  1.0000
  C   C545      1.0  0.59185  0.09596  0.66959  1.0000
  C   C546      1.0  0.58901  0.08545  0.70140  1.0000
  C   C547      1.0  0.58291  0.10387  0.66873  1.0000
  C   C548      1.0  0.57778  0.08294  0.72998  1.0000
  C   C549      1.0  0.57172  0.10127  0.69751  1.0000
  C   C550      1.0  0.56913  0.09078  0.72798  1.0000
  H   H641      1.0  0.61508  0.11250  0.66162  1.0000
  H   H642      1.0  0.62117  0.11424  0.61293  1.0000
  H   H643      1.0  0.60719  0.11982  0.62872  1.0000
  H   H644      1.0  0.61546  0.08930  0.66782  1.0000
  H   H645      1.0  0.62019  0.09164  0.61897  1.0000
  H   H646      1.0  0.60576  0.07918  0.64494  1.0000
  H   H647      1.0  0.59453  0.10653  0.59563  1.0000
  H   H648      1.0  0.60797  0.10040  0.57937  1.0000
  H   H649      1.0  0.59252  0.08923  0.60498  1.0000
  H   H650      1.0  0.59531  0.07901  0.70517  1.0000
  H   H651      1.0  0.58448  0.11212  0.64566  1.0000
  H   H652      1.0  0.57579  0.07485  0.75396  1.0000
  H   H653      1.0  0.56499  0.10737  0.69606  1.0000
  H   H654      1.0  0.56042  0.08867  0.75023  1.0000
  H   H655      1.0  0.51993  0.05772  0.62569  1.0000
  H   H656      1.0  0.53562  0.01774  0.88887  1.0000
  S   S156      1.0  0.48071  0.04282  0.97122  1.0000
  H   H657      1.0  0.63387  0.19860  0.78497  1.0000
  C   C551      1.0  0.58032  0.03842  0.97279  1.0000
  H   H658      1.0  0.66192  0.23867  0.91102  1.0000
  H   H659      1.0  0.54467  0.02782  0.93540  1.0000
  C   C552      1.0  0.55531  0.05601  0.97028  1.0000
  H   H660      1.0  0.65856  0.22351  0.58444  1.0000
  Fe  Fe79      1.0  0.64218  0.14163  0.66506  1.0000
  H   H661      1.0  0.52778  0.04732  0.87726  1.0000
  H   H662      1.0  0.51038  0.06231  0.96573  1.0000
  C   C553      1.0  0.57408  0.18798  0.93355  1.0000
  H   H663      1.0  0.52125  0.07747  0.69228  1.0000
  S   S157      1.0  0.63994  0.16189  0.66555  1.0000
  H   H664      1.0  0.59116  0.22697  0.84667  1.0000
  C   C554      1.0  0.53755  0.09313  0.66287  1.0000
  C   C555      1.0  0.54263  0.00227  0.94531  1.0000
  N   N39       1.0  0.64452  0.20696  0.62347  1.0000
  C   C556      1.0  0.62057  0.20182  0.62472  1.0000
  H   H665      1.0  0.63077  0.21347  0.87134  1.0000
  N   N40       1.0  0.49725  0.11536  0.53644  1.0000
  C   C557      1.0  0.49927  0.00661  0.94247  1.0000
  H   H666      1.0  0.65748  0.21255  0.94126  1.0000
  C   C558      1.0  0.59048  0.04984  0.96363  1.0000
  C   C559      1.0  0.42756  0.00344  0.80902  1.0000
  H   H667      1.0  0.56852  0.01334  0.72756  1.0000
  H   H668      1.0  0.56479  0.09165  0.60384  1.0000
  C   C560      1.0  0.48867  0.10378  0.56526  1.0000
  Fe  Fe80      1.0  0.66096  0.16940  0.63411  1.0000
  H   H669      1.0  0.54713  0.04949  0.66455  1.0000
  C   C561      1.0  0.53805  0.04864  0.68540  1.0000
  H   H670      1.0  0.61599  0.24790  0.85070  1.0000
  H   H671      1.0  0.60623  0.20192  0.54436  1.0000
  C   C562      1.0  0.53966  0.02178  0.96383  1.0000
  C   C563      1.0  0.51710  0.05300  0.69961  1.0000
  Fe  Fe81      1.0  0.59356  0.21097  0.72387  1.0000
  C   C564      1.0  0.54555  0.05657  0.91763  1.0000
  H   H672      1.0  0.51867  0.01993  0.85583  1.0000
  H   H673      1.0  0.63443  0.19104  0.67126  1.0000
  H   H674      1.0  0.51254  0.04229  0.70820  1.0000
  C   C565      1.0  0.64264  0.20003  0.66262  1.0000
  H   H675      1.0  0.43096  0.00715  0.77836  1.0000
  C   C566      1.0  0.52560  0.01431  0.90473  1.0000
  H   H676      1.0  0.55496  0.10751  0.62980  1.0000
  C   C567      1.0  0.62102  0.22817  0.60685  1.0000
  C   C568      1.0  0.60917  0.20553  0.62108  1.0000
  C   C569      1.0  0.57231  0.18646  0.97188  1.0000
  H   H677      1.0  0.65154  0.24214  0.94874  1.0000
  H   H678      1.0  0.60873  0.18587  0.55190  1.0000
  C   C570      1.0  0.52623  0.05202  0.63777  1.0000
  H   H679      1.0  0.53305  0.03801  0.69470  1.0000
  H   H680      1.0  0.53274  0.02681  0.97698  1.0000
  Fe  Fe82      1.0  0.57962  0.03857  0.87525  1.0000
  H   H681      1.0  0.51275  0.11532  0.56464  1.0000
  C   C571      1.0  0.54980  0.09727  0.63814  1.0000
  H   H682      1.0  0.61465  0.24662  0.91743  1.0000
  C   C572      1.0  0.56403  0.12280  0.77135  1.0000
  H   H683      1.0  0.64013  0.19028  0.82072  1.0000
  C   C573      1.0  0.56152  0.13294  0.71165  1.0000
  H   H684      1.0  0.58289  0.19383  0.54872  1.0000
  C   C574      1.0  0.51211  0.04055  0.94437  1.0000
  S   S158      1.0  0.61496  0.23578  0.76708  1.0000
  H   H685      1.0  0.55331  0.06841  0.62174  1.0000
  H   H686      1.0  0.55025  0.00124  0.96107  1.0000
  C   C575      1.0  0.55607  0.12487  0.74703  1.0000
  N   N41       1.0  0.52948  0.05630  0.67062  1.0000
  H   H687      1.0  0.55976  0.11646  0.79883  1.0000
  H   H688      1.0  0.55530  0.13458  0.69278  1.0000
  C   C576      1.0  0.59089  0.22846  0.93602  1.0000
  C   C577      1.0  0.60234  0.21276  0.91794  1.0000
  S   S159      1.0  0.56207  0.03068  0.85494  1.0000
  S   S160      1.0  0.59265  0.03176  0.83291  1.0000
  C   C578      1.0  0.60838  0.19422  0.53020  1.0000
  H   H689      1.0  0.65588  0.21225  0.75091  1.0000
  S   S161      1.0  0.60458  0.20649  0.85076  1.0000
  S   S162      1.0  0.58517  0.21766  0.77453  1.0000
  S   S163      1.0  0.57409  0.03151  0.93858  1.0000
  H   H690      1.0  0.49532  0.01326  0.88946  1.0000
  H   H691      1.0  0.60751  0.20546  0.92487  1.0000
  C   C579      1.0  0.59982  0.21543  0.88272  1.0000
  S   S164      1.0  0.60451  0.23161  0.69160  1.0000
  S   S165      1.0  0.65583  0.17090  0.57845  1.0000
  C   C580      1.0  0.60168  0.17965  0.49212  1.0000
  C   C581      1.0  0.56283  0.00327  0.73615  1.0000
  H   H692      1.0  0.54565  0.12024  0.75562  1.0000
  C   C582      1.0  0.55535  0.08826  0.62365  1.0000
  H   H693      1.0  0.58544  0.16335  0.52634  1.0000
  Fe  Fe83      1.0  0.57500  0.02502  0.81038  1.0000
  H   H694      1.0  0.53310  0.10024  0.67334  1.0000
  Fe  Fe84      1.0  0.46888  0.00438  0.73292  1.0000
  S   S166      1.0  0.62859  0.12681  0.71626  1.0000
  H   H695      1.0  0.64200  0.10829  0.68897  1.0000
  H   H696      1.0  0.45174  0.00912  0.93085  1.0000
  H   H697      1.0  0.62750  0.19823  0.83244  1.0000
  C   C583      1.0  0.58856  0.23127  0.90059  1.0000
  C   C584      1.0  0.59313  0.22486  0.87384  1.0000
  C   C585      1.0  0.65826  0.21169  0.77845  1.0000
  C   C586      1.0  0.58540  0.18576  0.53682  1.0000
  S   S167      1.0  0.58485  0.23651  0.96910  1.0000
  H   H698      1.0  0.48753  0.04980  0.89169  1.0000
  H   H699      1.0  0.66193  0.20283  0.78414  1.0000
  H   H700      1.0  0.63221  0.22228  0.81333  1.0000
  S   S168      1.0  0.63605  0.14135  0.61201  1.0000
  C   C587      1.0  0.64675  0.19796  0.59921  1.0000
  Fe  Fe85      1.0  0.62102  0.22832  0.71718  1.0000
  C   C588      1.0  0.66453  0.21025  0.88652  1.0000
  H   H701      1.0  0.48460  0.12797  0.54538  1.0000
  C   C589      1.0  0.64313  0.21319  0.90882  1.0000
  Fe  Fe86      1.0  0.65715  0.15031  0.58307  1.0000
  C   C590      1.0  0.52346  0.05510  0.88570  1.0000
  N   N42       1.0  0.52094  0.05370  0.92642  1.0000
  H   H702      1.0  0.49004  0.10427  0.59353  1.0000
  H   H703      1.0  0.47815  0.10301  0.56628  1.0000
  C   C591      1.0  0.64038  0.21276  0.87436  1.0000
  C   C592      1.0  0.65254  0.24345  0.70615  1.0000
  S   S169      1.0  0.64218  0.23300  0.68750  1.0000
  H   H704      1.0  0.50967  0.05746  0.68955  1.0000
  C   C593      1.0  0.53081  0.07992  0.67359  1.0000
  C   C594      1.0  0.55650  0.05697  0.93254  1.0000
  H   H705      1.0  0.51874  0.05622  0.72493  1.0000
  C   C595      1.0  0.53628  0.07039  0.65984  1.0000
  H   H706      1.0  0.57084  0.19839  0.88330  1.0000
  C   C596      1.0  0.51594  0.01576  0.88552  1.0000
  C   C597      1.0  0.51097  0.11545  0.53659  1.0000
  H   H707      1.0  0.60038  0.22147  0.61090  1.0000
  H   H708      1.0  0.64049  0.20640  0.68166  1.0000
  H   H709      1.0  0.54092  0.05179  0.70975  1.0000
  C   C598      1.0  0.63263  0.21122  0.61918  1.0000
  C   C599      1.0  0.66185  0.20972  0.85203  1.0000
  H   H710      1.0  0.56597  0.05773  0.91489  1.0000
  Fe  Fe87      1.0  0.59772  0.23797  0.74415  1.0000
  C   C600      1.0  0.54870  0.07501  0.63415  1.0000
  H   H711      1.0  0.51348  0.10680  0.52809  1.0000
  H   H712      1.0  0.49515  0.12696  0.57688  1.0000
  C   C601      1.0  0.53214  0.05431  0.97878  1.0000
  C   C602      1.0  0.64171  0.22255  0.79523  1.0000
  C   C603      1.0  0.51405  0.06362  0.93539  1.0000
  C   C604      1.0  0.52240  0.00887  0.94357  1.0000
  H   H713      1.0  0.51428  0.05426  0.87588  1.0000
  H   H714      1.0  0.54721  0.05718  0.88823  1.0000
  C   C605      1.0  0.60937  0.21867  0.61230  1.0000
  H   H715      1.0  0.58314  0.23835  0.89381  1.0000
  C   C606      1.0  0.46510  0.02308  0.94908  1.0000
  H   H716      1.0  0.50352  0.03849  0.93213  1.0000
  C   C607      1.0  0.64980  0.21136  0.84452  1.0000
  C   C608      1.0  0.50280  0.01196  0.90436  1.0000
  H   H717      1.0  0.48902  0.00384  0.95713  1.0000
  H   H718      1.0  0.63926  0.18845  0.60866  1.0000
  H   H719      1.0  0.65631  0.19561  0.59866  1.0000
  H   H720      1.0  0.63584  0.21448  0.93089  1.0000
  S   S170      1.0  0.47622  0.00411  0.78464  1.0000
  C   C609      1.0  0.56237  0.20463  0.93092  1.0000
  H   H721      1.0  0.53017  0.06477  0.87021  1.0000
  H   H722      1.0  0.61980  0.19150  0.63269  1.0000
  C   C610      1.0  0.65663  0.21781  0.61351  1.0000
  H   H723      1.0  0.46107  0.01846  0.97822  1.0000
  H   H724      1.0  0.64884  0.23190  0.79362  1.0000
  H   H725      1.0  0.60007  0.19812  0.62629  1.0000
  N   N43       1.0  0.53288  0.00833  0.96371  1.0000
  H   H726      1.0  0.51729  0.03292  0.94102  1.0000
  H   H727      1.0  0.64318  0.15435  0.52114  1.0000
  H   H728      1.0  0.54828  0.00826  0.91741  1.0000
  H   H729      1.0  0.64677  0.20230  0.57013  1.0000
  C   C611      1.0  0.59398  0.16651  0.50358  1.0000
  H   H730      1.0  0.58504  0.17794  0.56105  1.0000
  H   H731      1.0  0.50814  0.03930  0.97455  1.0000
  H   H732      1.0  0.51803  0.12427  0.51717  1.0000
  C   C612      1.0  0.49546  0.11543  0.49857  1.0000
  H   H733      1.0  0.41780  0.00523  0.81763  1.0000
  C   C613      1.0  0.66473  0.24135  0.70856  1.0000
  C   C614      1.0  0.50886  0.00502  0.96194  1.0000
  C   C615      1.0  0.49454  0.12715  0.54768  1.0000
  S   S171      1.0  0.66384  0.14907  0.63680  1.0000
  H   H734      1.0  0.56154  0.00186  0.68072  1.0000
  H   H735      1.0  0.65618  0.22451  0.63238  1.0000
  H   H736      1.0  0.54734  0.02187  0.97978  1.0000
  H   H737      1.0  0.57737  0.18214  0.52369  1.0000
  C   C616      1.0  0.56061  0.20326  0.96916  1.0000
  H   H738      1.0  0.59136  0.14693  0.49603  1.0000
  H   H739      1.0  0.60318  0.06356  0.98441  1.0000
  C   C617      1.0  0.65522  0.21200  0.91480  1.0000
  H   H740      1.0  0.50173  0.13632  0.53064  1.0000
  H   H741      1.0  0.55567  0.20969  0.98139  1.0000
  C   C618      1.0  0.64681  0.15141  0.49622  1.0000
  H   H742      1.0  0.59485  0.20898  0.49411  1.0000
  C   C619      1.0  0.65773  0.14636  0.49337  1.0000
  C   C620      1.0  0.48773  0.10453  0.48975  1.0000
  H   H743      1.0  0.57658  0.17940  0.98577  1.0000
  H   H744      1.0  0.59676  0.46936  0.25775  1.0000
  C   C621      1.0  0.58388  0.28007  0.00799  1.0000
  Fe  Fe88      1.0  0.50673  0.47168  0.10650  1.0000
  S   S172      1.0  0.52514  0.47973  0.06150  1.0000
  S   S173      1.0  0.50622  0.45295  0.14608  1.0000
  H   H745      1.0  0.59367  0.44452  0.44733  1.0000
  Fe  Fe89      1.0  0.51265  0.48645  0.02505  1.0000
  H   H746      1.0  0.66163  0.45576  0.22840  1.0000
  Fe  Fe90      1.0  0.49654  0.49567  0.08608  1.0000
  S   S174      1.0  0.49377  0.47663  0.06806  1.0000
  Fe  Fe91      1.0  0.58652  0.43003  0.26094  1.0000
  S   S175      1.0  0.57414  0.40995  0.29050  1.0000
  S   S176      1.0  0.60687  0.43676  0.26771  1.0000
  Fe  Fe92      1.0  0.56493  0.43761  0.22599  1.0000
  S   S177      1.0  0.55092  0.41814  0.25329  1.0000
  S   S178      1.0  0.56027  0.45470  0.19141  1.0000
  Fe  Fe93      1.0  0.55845  0.42028  0.30414  1.0000
  S   S179      1.0  0.54571  0.41982  0.35970  1.0000
  Fe  Fe94      1.0  0.56820  0.40999  0.23652  1.0000
  S   S180      1.0  0.56713  0.39485  0.20219  1.0000
  S   S181      1.0  0.57135  0.44038  0.27732  1.0000
  S   S182      1.0  0.58178  0.42953  0.20610  1.0000
  S   S183      1.0  0.60551  0.46902  0.38859  1.0000
  H   H747      1.0  0.64543  0.44574  0.24919  1.0000
  C   C622      1.0  0.53509  0.46909  0.25814  1.0000
  H   H748      1.0  0.54171  0.48695  0.21549  1.0000
  C   C623      1.0  0.65299  0.27001  0.08217  1.0000
  S   S184      1.0  0.59051  0.26893  0.09341  1.0000
  H   H749      1.0  0.47643  0.49774  0.99784  1.0000
  Fe  Fe95      1.0  0.62675  0.36447  0.04533  1.0000
  S   S185      1.0  0.61294  0.34824  0.09152  1.0000
  H   H750      1.0  0.53287  0.46351  0.23828  1.0000
  Fe  Fe96      1.0  0.64915  0.36688  0.08396  1.0000
  S   S186      1.0  0.63744  0.35073  0.13272  1.0000
  S   S187      1.0  0.60809  0.25524  0.01809  1.0000
  Fe  Fe97      1.0  0.63050  0.34011  0.09149  1.0000
  S   S188      1.0  0.63323  0.31992  0.09065  1.0000
  Fe  Fe98      1.0  0.62107  0.36044  0.12849  1.0000
  S   S189      1.0  0.61128  0.36443  0.18220  1.0000
  S   S190      1.0  0.64367  0.35560  0.04292  1.0000
  S   S191      1.0  0.63336  0.37725  0.08209  1.0000
  S   S192      1.0  0.62375  0.37337  0.99010  1.0000
  C   C624      1.0  0.57320  0.48829  0.21004  1.0000
  H   H751      1.0  0.54672  0.44503  0.30173  1.0000
  C   C625      1.0  0.54167  0.48466  0.30616  1.0000
  H   H752      1.0  0.51504  0.42577  0.08095  1.0000
  C   C626      1.0  0.62367  0.42000  0.20259  1.0000
  C   C627      1.0  0.52489  0.44380  0.35032  1.0000
  C   C628      1.0  0.53749  0.44225  0.29283  1.0000
  H   H753      1.0  0.66126  0.39125  0.19182  1.0000
  C   C629      1.0  0.60258  0.28333  0.08994  1.0000
  C   C630      1.0  0.61561  0.28316  0.08786  1.0000
  C   C631      1.0  0.62488  0.29452  0.08771  1.0000
  C   C632      1.0  0.62128  0.30619  0.08886  1.0000
  C   C633      1.0  0.60835  0.30652  0.08945  1.0000
  C   C634      1.0  0.59899  0.29505  0.09048  1.0000
  H   H754      1.0  0.61844  0.27417  0.08764  1.0000
  H   H755      1.0  0.63487  0.29420  0.08725  1.0000
  H   H756      1.0  0.60547  0.31546  0.09047  1.0000
  H   H757      1.0  0.58890  0.29522  0.09227  1.0000
  C   C635      1.0  0.58020  0.38741  0.19525  1.0000
  C   C636      1.0  0.58305  0.38274  0.16320  1.0000
  C   C637      1.0  0.59300  0.37621  0.15793  1.0000
  C   C638      1.0  0.59982  0.37390  0.18536  1.0000
  C   C639      1.0  0.59695  0.37855  0.21739  1.0000
  C   C640      1.0  0.58735  0.38548  0.22203  1.0000
  H   H758      1.0  0.57757  0.38420  0.14234  1.0000
  H   H759      1.0  0.59517  0.37273  0.13305  1.0000
  H   H760      1.0  0.60216  0.37678  0.23879  1.0000
  H   H761      1.0  0.58519  0.38897  0.24693  1.0000
  C   C641      1.0  0.60100  0.49493  0.29809  1.0000
  S   S193      1.0  0.63567  0.48916  0.30805  1.0000
  H   H762      1.0  0.56451  0.40512  0.37421  1.0000
  C   C642      1.0  0.60661  0.44352  0.30632  1.0000
  C   C643      1.0  0.61828  0.45083  0.31099  1.0000
  C   C644      1.0  0.61800  0.45783  0.33856  1.0000
  C   C645      1.0  0.60606  0.45781  0.36080  1.0000
  C   C646      1.0  0.59448  0.44959  0.35837  1.0000
  C   C647      1.0  0.59478  0.44235  0.33128  1.0000
  H   H763      1.0  0.62750  0.45148  0.29250  1.0000
  H   H764      1.0  0.62704  0.46337  0.34225  1.0000
  H   H765      1.0  0.58523  0.44913  0.37649  1.0000
  H   H766      1.0  0.58583  0.43601  0.32946  1.0000
  C   C648      1.0  0.52088  0.45356  0.16096  1.0000
  C   C649      1.0  0.53089  0.46514  0.15093  1.0000
  C   C650      1.0  0.54288  0.46532  0.16048  1.0000
  C   C651      1.0  0.54491  0.45400  0.18083  1.0000
  C   C652      1.0  0.53472  0.44253  0.19238  1.0000
  C   C653      1.0  0.52278  0.44229  0.18224  1.0000
  H   H767      1.0  0.52950  0.47398  0.13538  1.0000
  H   H768      1.0  0.55062  0.47429  0.15186  1.0000
  H   H769      1.0  0.53608  0.43385  0.20880  1.0000
  H   H770      1.0  0.51504  0.43333  0.19033  1.0000
  H   H771      1.0  0.60590  0.49026  0.31832  1.0000
  C   C654      1.0  0.65335  0.44875  0.22321  1.0000
  N   N44       1.0  0.59310  0.48517  0.28273  1.0000
  H   H772      1.0  0.63647  0.28727  0.01544  1.0000
  H   H773      1.0  0.56776  0.48199  0.19591  1.0000
  H   H774      1.0  0.52842  0.49819  0.15634  1.0000
  C   C655      1.0  0.53657  0.47115  0.31989  1.0000
  C   C656      1.0  0.54344  0.49035  0.26871  1.0000
  H   H775      1.0  0.53395  0.44568  0.36072  1.0000
  C   C657      1.0  0.66039  0.39804  0.99185  1.0000
  C   C658      1.0  0.56094  0.40814  0.39899  1.0000
  H   H776      1.0  0.62187  0.43689  0.39233  1.0000
  H   H777      1.0  0.61847  0.40173  0.18727  1.0000
  Fe  Fe99      1.0  0.59689  0.25173  0.07692  1.0000
  C   C659      1.0  0.51544  0.44428  0.29777  1.0000
  H   H778      1.0  0.64997  0.45434  0.20076  1.0000
  H   H779      1.0  0.65838  0.41462  0.19103  1.0000
  H   H780      1.0  0.60457  0.34830  0.01656  1.0000
  H   H781      1.0  0.61145  0.47468  0.45528  1.0000
  H   H782      1.0  0.65244  0.40216  0.05509  1.0000
  C   C660      1.0  0.64657  0.42783  0.20515  1.0000
  H   H783      1.0  0.53391  0.43141  0.30151  1.0000
  C   C661      1.0  0.63723  0.44984  0.40465  1.0000
  C   C662      1.0  0.55182  0.41557  0.39927  1.0000
  H   H784      1.0  0.52081  0.43299  0.35922  1.0000
  H   H785      1.0  0.58995  0.41570  0.44157  1.0000
  N   N45       1.0  0.52775  0.44861  0.30937  1.0000
  H   H786      1.0  0.65556  0.37828  0.14690  1.0000
  H   H787      1.0  0.51705  0.44568  0.26720  1.0000
  C   C663      1.0  0.64174  0.45597  0.43069  1.0000
  H   H788      1.0  0.57176  0.39798  0.43116  1.0000
  C   C664      1.0  0.66120  0.40935  0.05415  1.0000
  C   C665      1.0  0.63363  0.42934  0.20899  1.0000
  H   H789      1.0  0.53552  0.46739  0.34912  1.0000
  H   H790      1.0  0.65108  0.25094  0.14923  1.0000
  C   C666      1.0  0.55155  0.41554  0.46411  1.0000
  H   H791      1.0  0.64343  0.45194  0.37687  1.0000
  H   H792      1.0  0.53999  0.44504  0.26208  1.0000
  H   H793      1.0  0.60942  0.48443  0.24112  1.0000
  C   C667      1.0  0.61371  0.49739  0.47552  1.0000
  H   H794      1.0  0.63086  0.43756  0.21736  1.0000
  H   H795      1.0  0.61382  0.42126  0.20643  1.0000
  N   N46       1.0  0.57941  0.33098  0.20301  1.0000
  C   C668      1.0  0.56511  0.32479  0.21373  1.0000
  C   C669      1.0  0.58277  0.33654  0.23404  1.0000
  C   C670      1.0  0.58206  0.34176  0.16965  1.0000
  C   C671      1.0  0.58747  0.32188  0.19487  1.0000
  C   C672      1.0  0.60135  0.32625  0.18577  1.0000
  C   C673      1.0  0.58196  0.30869  0.19472  1.0000
  C   C674      1.0  0.60918  0.31793  0.17752  1.0000
  C   C675      1.0  0.58991  0.30046  0.18633  1.0000
  C   C676      1.0  0.60348  0.30505  0.17799  1.0000
  H   H796      1.0  0.56239  0.31661  0.23891  1.0000
  H   H797      1.0  0.55941  0.33187  0.22035  1.0000
  H   H798      1.0  0.56167  0.32108  0.19081  1.0000
  H   H799      1.0  0.58107  0.32873  0.25957  1.0000
  H   H800      1.0  0.57696  0.34353  0.24071  1.0000
  H   H801      1.0  0.59315  0.34217  0.22764  1.0000
  H   H802      1.0  0.57979  0.33801  0.14554  1.0000
  H   H803      1.0  0.57626  0.34892  0.17454  1.0000
  H   H804      1.0  0.59246  0.34742  0.16107  1.0000
  H   H805      1.0  0.60629  0.33621  0.18458  1.0000
  H   H806      1.0  0.57154  0.30448  0.20073  1.0000
  H   H807      1.0  0.61977  0.32153  0.17017  1.0000
  H   H808      1.0  0.58557  0.29047  0.18582  1.0000
  H   H809      1.0  0.60962  0.29870  0.17102  1.0000
  H   H810      1.0  0.64863  0.27499  0.10148  1.0000
  N   N47       1.0  0.54980  0.41854  0.13189  1.0000
  C   C677      1.0  0.56141  0.42565  0.14233  1.0000
  C   C678      1.0  0.54071  0.40980  0.16643  1.0000
  C   C679      1.0  0.55432  0.41041  0.10728  1.0000
  C   C680      1.0  0.54298  0.42727  0.11289  1.0000
  C   C681      1.0  0.53117  0.42196  0.10345  1.0000
  C   C682      1.0  0.54769  0.44111  0.10336  1.0000
  C   C683      1.0  0.52426  0.42999  0.08682  1.0000
  C   C684      1.0  0.54078  0.44903  0.08629  1.0000
  C   C685      1.0  0.52903  0.44350  0.07845  1.0000
  H   H811      1.0  0.55866  0.43175  0.16160  1.0000
  H   H812      1.0  0.56627  0.41882  0.15671  1.0000
  H   H813      1.0  0.56901  0.43199  0.11765  1.0000
  H   H814      1.0  0.53630  0.41551  0.18444  1.0000
  H   H815      1.0  0.54578  0.40380  0.18295  1.0000
  H   H816      1.0  0.53259  0.40276  0.16097  1.0000
  H   H817      1.0  0.54608  0.40406  0.10014  1.0000
  H   H818      1.0  0.56107  0.41661  0.08083  1.0000
  H   H819      1.0  0.55966  0.40383  0.12070  1.0000
  H   H820      1.0  0.52705  0.41154  0.10940  1.0000
  H   H821      1.0  0.55647  0.44614  0.10978  1.0000
  H   H822      1.0  0.65320  0.41056  0.10969  1.0000
  H   H823      1.0  0.65656  0.49852  0.45124  1.0000
  H   H824      1.0  0.65384  0.42637  0.26893  1.0000
  H   H825      1.0  0.51767  0.44826  0.36477  1.0000
  H   H826      1.0  0.59636  0.30341  0.01015  1.0000
  H   H827      1.0  0.57769  0.46731  0.30580  1.0000
  H   H828      1.0  0.57462  0.30040  0.99282  1.0000
  C   C686      1.0  0.62974  0.33208  0.98818  1.0000
  C   C687      1.0  0.62474  0.44123  0.41394  1.0000
  H   H829      1.0  0.59948  0.42980  0.40686  1.0000
  H   H830      1.0  0.52345  0.44970  0.06662  1.0000
  C   C688      1.0  0.58288  0.47596  0.31408  1.0000
  H   H831      1.0  0.50824  0.44972  0.30689  1.0000
  C   C689      1.0  0.60201  0.47795  0.26606  1.0000
  S   S194      1.0  0.50767  0.48978  0.12797  1.0000
  C   C690      1.0  0.63596  0.29400  0.99084  1.0000
  C   C691      1.0  0.66147  0.41419  0.08584  1.0000
  H   H832      1.0  0.58712  0.47217  0.33716  1.0000
  H   H833      1.0  0.63070  0.34257  0.98792  1.0000
  C   C692      1.0  0.54019  0.48256  0.24475  1.0000
  Fe  Fe100     1.0  0.52550  0.49790  0.08103  1.0000
  C   C693      1.0  0.58677  0.49103  0.25477  1.0000
  C   C694      1.0  0.56504  0.40410  0.43137  1.0000
  C   C695      1.0  0.62625  0.40897  0.19199  1.0000
  H   H834      1.0  0.51077  0.43367  0.30960  1.0000
  C   C696      1.0  0.54715  0.41928  0.43193  1.0000
  C   C697      1.0  0.65073  0.25595  0.03958  1.0000
  C   C698      1.0  0.66496  0.38534  0.14031  1.0000
  C   C699      1.0  0.63881  0.40722  0.18783  1.0000
  C   C700      1.0  0.64884  0.41649  0.19423  1.0000
  H   H835      1.0  0.64074  0.39853  0.17998  1.0000
  Fe  Fe101     1.0  0.62393  0.48534  0.36633  1.0000
  C   C701      1.0  0.64514  0.26252  0.06418  1.0000
  C   C702      1.0  0.61632  0.43863  0.44984  1.0000
  Fe  Fe102     1.0  0.65305  0.49123  0.33278  1.0000
  H   H836      1.0  0.60685  0.41702  0.42365  1.0000
  H   H837      1.0  0.63477  0.26178  0.06949  1.0000
  C   C703      1.0  0.59982  0.42272  0.43186  1.0000
  C   C704      1.0  0.57946  0.48304  0.23606  1.0000
  H   H838      1.0  0.65921  0.38948  0.01497  1.0000
  S   S195      1.0  0.64102  0.48623  0.39174  1.0000
  H   H839      1.0  0.57849  0.47265  0.24141  1.0000
  H   H840      1.0  0.54005  0.42497  0.43245  1.0000
  C   C705      1.0  0.66420  0.25705  0.03249  1.0000
  C   C706      1.0  0.53300  0.46295  0.29618  1.0000
  H   H841      1.0  0.59125  0.27487  0.01520  1.0000
  N   N48       1.0  0.65730  0.43732  0.21274  1.0000
  H   H842      1.0  0.63065  0.32740  0.01596  1.0000
  H   H843      1.0  0.54430  0.45957  0.08039  1.0000
  H   H844      1.0  0.65142  0.46266  0.42315  1.0000
  H   H845      1.0  0.57545  0.48080  0.32555  1.0000
  C   C707      1.0  0.56038  0.40776  0.46405  1.0000
  C   C708      1.0  0.62113  0.44531  0.47539  1.0000
  H   H846      1.0  0.54426  0.49080  0.32460  1.0000
  H   H847      1.0  0.65812  0.31449  0.09480  1.0000
  N   N49       1.0  0.60318  0.42934  0.46111  1.0000
  H   H848      1.0  0.60744  0.47404  0.28591  1.0000
  C   C709      1.0  0.63368  0.45377  0.46594  1.0000
  C   C710      1.0  0.66199  0.43075  0.24368  1.0000
  H   H849      1.0  0.64019  0.31049  0.01381  1.0000
  H   H850      1.0  0.58005  0.28337  0.03309  1.0000
  H   H851      1.0  0.65134  0.40149  0.99595  1.0000
  H   H852      1.0  0.65390  0.33098  0.99100  1.0000
  H   H853      1.0  0.65936  0.33764  0.09425  1.0000
  H   H854      1.0  0.57552  0.27292  0.00374  1.0000
  H   H855      1.0  0.59582  0.47746  0.46991  1.0000
  H   H856      1.0  0.60829  0.29606  0.98904  1.0000
  H   H857      1.0  0.62870  0.48054  0.48337  1.0000
  C   C711      1.0  0.59307  0.43631  0.47088  1.0000
  H   H858      1.0  0.62052  0.49781  0.44895  1.0000
  C   C712      1.0  0.60413  0.47485  0.48020  1.0000
  C   C713      1.0  0.63810  0.30732  0.98960  1.0000
  H   H859      1.0  0.58300  0.42970  0.47807  1.0000
  H   H860      1.0  0.63716  0.45867  0.48604  1.0000
  Fe  Fe103     1.0  0.49947  0.48858  0.77975  1.0000
  S   S196      1.0  0.49801  0.47930  0.73139  1.0000
  S   S197      1.0  0.49006  0.47770  0.83958  1.0000
  H   H861      1.0  0.59862  0.26026  0.90779  1.0000
  N   N50       1.0  0.63965  0.33043  0.95762  1.0000
  N   N51       1.0  0.65497  0.42165  0.78311  1.0000
  C   C714      1.0  0.63924  0.45011  0.76554  1.0000
  Fe  Fe104     1.0  0.51925  0.48988  0.70908  1.0000
  S   S198      1.0  0.53600  0.48282  0.68097  1.0000
  H   H862      1.0  0.50347  0.49165  0.63426  1.0000
  Fe  Fe105     1.0  0.57845  0.43110  0.58321  1.0000
  S   S199      1.0  0.56510  0.42487  0.63982  1.0000
  S   S200      1.0  0.59706  0.44710  0.56652  1.0000
  Fe  Fe106     1.0  0.56288  0.41003  0.55573  1.0000
  S   S201      1.0  0.54801  0.40170  0.61080  1.0000
  H   H863      1.0  0.51532  0.49467  0.83661  1.0000
  Fe  Fe107     1.0  0.54895  0.42277  0.61072  1.0000
  S   S202      1.0  0.53085  0.42897  0.63354  1.0000
  Fe  Fe108     1.0  0.56524  0.40439  0.63683  1.0000
  S   S203      1.0  0.56678  0.39283  0.69204  1.0000
  S   S204      1.0  0.56237  0.43081  0.55352  1.0000
  S   S205      1.0  0.57999  0.41090  0.58220  1.0000
  S   S206      1.0  0.60178  0.46726  0.71008  1.0000
  C   C715      1.0  0.48973  0.46693  0.65244  1.0000
  H   H864      1.0  0.52691  0.49868  0.88523  1.0000
  H   H865      1.0  0.55749  0.41563  0.72172  1.0000
  H   H866      1.0  0.49462  0.47181  0.96819  1.0000
  C   C716      1.0  0.50846  0.48486  0.62233  1.0000
  S   S207      1.0  0.59142  0.25668  0.74686  1.0000
  C   C717      1.0  0.60074  0.48426  0.53530  1.0000
  Fe  Fe109     1.0  0.60862  0.34557  0.76378  1.0000
  S   S208      1.0  0.62870  0.34295  0.74425  1.0000
  S   S209      1.0  0.59945  0.35076  0.71555  1.0000
  Fe  Fe110     1.0  0.60957  0.33760  0.84449  1.0000
  S   S210      1.0  0.62963  0.33447  0.83048  1.0000
  S   S211      1.0  0.59982  0.33254  0.90558  1.0000
  Fe  Fe111     1.0  0.63417  0.35326  0.78754  1.0000
  H   H867      1.0  0.65233  0.44577  0.79808  1.0000
  Fe  Fe112     1.0  0.62221  0.32439  0.78879  1.0000
  S   S212      1.0  0.62800  0.30593  0.77990  1.0000
  S   S213      1.0  0.61452  0.35720  0.80411  1.0000
  S   S214      1.0  0.60173  0.32617  0.80591  1.0000
  C   C718      1.0  0.51897  0.46635  0.59028  1.0000
  C   C719      1.0  0.60205  0.34155  0.96753  1.0000
  C   C720      1.0  0.60590  0.34426  0.92876  1.0000
  C   C721      1.0  0.61503  0.35597  0.90910  1.0000
  C   C722      1.0  0.62027  0.36498  0.92813  1.0000
  C   C723      1.0  0.59668  0.49241  0.59175  1.0000
  H   H868      1.0  0.61809  0.35812  0.87923  1.0000
  H   H869      1.0  0.62731  0.37405  0.91278  1.0000
  C   C724      1.0  0.60146  0.26991  0.75863  1.0000
  C   C725      1.0  0.61463  0.27069  0.75808  1.0000
  C   C726      1.0  0.62253  0.28164  0.76539  1.0000
  C   C727      1.0  0.61742  0.29202  0.77306  1.0000
  C   C728      1.0  0.60419  0.29112  0.77464  1.0000
  C   C729      1.0  0.59627  0.28016  0.76725  1.0000
  H   H870      1.0  0.61888  0.26310  0.75076  1.0000
  H   H871      1.0  0.63275  0.28223  0.76413  1.0000
  H   H872      1.0  0.60011  0.29891  0.78136  1.0000
  C   C730      1.0  0.59533  0.28712  0.94130  1.0000
  H   H873      1.0  0.58610  0.27964  0.76792  1.0000
  H   H874      1.0  0.66059  0.33401  0.94188  1.0000
  H   H875      1.0  0.60223  0.30685  0.90563  1.0000
  C   C731      1.0  0.60511  0.49200  0.55923  1.0000
  C   C732      1.0  0.58362  0.48537  0.60105  1.0000
  H   H876      1.0  0.58325  0.30679  0.94551  1.0000
  C   C733      1.0  0.57666  0.38182  0.69732  1.0000
  C   C734      1.0  0.58189  0.37690  0.66790  1.0000
  C   C735      1.0  0.58902  0.36752  0.67386  1.0000
  C   C736      1.0  0.59122  0.36321  0.70900  1.0000
  C   C737      1.0  0.58629  0.36840  0.73818  1.0000
  C   C738      1.0  0.57893  0.37757  0.73242  1.0000
  H   H877      1.0  0.58015  0.38005  0.64084  1.0000
  H   H878      1.0  0.59277  0.36354  0.65115  1.0000
  H   H879      1.0  0.58783  0.36506  0.76541  1.0000
  H   H880      1.0  0.57480  0.38121  0.75541  1.0000
  C   C739      1.0  0.59846  0.45401  0.60432  1.0000
  C   C740      1.0  0.58723  0.45406  0.62971  1.0000
  C   C741      1.0  0.58825  0.45838  0.66188  1.0000
  C   C742      1.0  0.60055  0.46282  0.66850  1.0000
  C   C743      1.0  0.61184  0.46344  0.64214  1.0000
  C   C744      1.0  0.61080  0.45897  0.61011  1.0000
  H   H881      1.0  0.57773  0.45098  0.62428  1.0000
  H   H882      1.0  0.57950  0.45833  0.68134  1.0000
  N   N52       1.0  0.65999  0.25830  0.90043  1.0000
  H   H883      1.0  0.61954  0.45899  0.59055  1.0000
  H   H884      1.0  0.66212  0.41780  0.72991  1.0000
  Fe  Fe113     1.0  0.64576  0.49347  0.71754  1.0000
  C   C745      1.0  0.59457  0.27386  0.94058  1.0000
  S   S215      1.0  0.52034  0.48905  0.96344  1.0000
  C   C746      1.0  0.60640  0.29308  0.87510  1.0000
  C   C747      1.0  0.63870  0.33863  0.92249  1.0000
  C   C748      1.0  0.64853  0.25603  0.84796  1.0000
  C   C749      1.0  0.53441  0.46729  0.67107  1.0000
  C   C750      1.0  0.52229  0.45813  0.67960  1.0000
  C   C751      1.0  0.52135  0.44625  0.66875  1.0000
  C   C752      1.0  0.53253  0.44340  0.64981  1.0000
  C   C753      1.0  0.54471  0.45236  0.64263  1.0000
  C   C754      1.0  0.54562  0.46426  0.65317  1.0000
  H   H885      1.0  0.51367  0.46023  0.69422  1.0000
  H   H886      1.0  0.51191  0.43932  0.67454  1.0000
  H   H887      1.0  0.55338  0.45020  0.62836  1.0000
  H   H888      1.0  0.55503  0.47121  0.64720  1.0000
  S   S216      1.0  0.64040  0.48012  0.68139  1.0000
  H   H889      1.0  0.57960  0.41800  0.69390  1.0000
  H   H890      1.0  0.63394  0.31735  0.90218  1.0000
  Fe  Fe114     1.0  0.49406  0.49804  0.70423  1.0000
  N   N53       1.0  0.59538  0.31628  0.68341  1.0000
  C   C755      1.0  0.58297  0.31041  0.67430  1.0000
  C   C756      1.0  0.59209  0.31767  0.72205  1.0000
  C   C757      1.0  0.60096  0.32948  0.65813  1.0000
  C   C758      1.0  0.60508  0.30847  0.67998  1.0000
  C   C759      1.0  0.61777  0.31328  0.68517  1.0000
  C   C760      1.0  0.60217  0.29581  0.67293  1.0000
  C   C761      1.0  0.62702  0.30602  0.68273  1.0000
  C   C762      1.0  0.61150  0.28861  0.67074  1.0000
  C   C763      1.0  0.62390  0.29371  0.67547  1.0000
  H   H891      1.0  0.58478  0.30899  0.64557  1.0000
  H   H892      1.0  0.57769  0.30087  0.69408  1.0000
  H   H893      1.0  0.57609  0.31675  0.67613  1.0000
  H   H894      1.0  0.58787  0.30799  0.74196  1.0000
  H   H895      1.0  0.58487  0.32359  0.72591  1.0000
  H   H896      1.0  0.60081  0.32272  0.73025  1.0000
  H   H897      1.0  0.60941  0.33528  0.66589  1.0000
  H   H898      1.0  0.60428  0.32888  0.62897  1.0000
  H   H899      1.0  0.59372  0.33546  0.65905  1.0000
  H   H900      1.0  0.62052  0.32254  0.69236  1.0000
  H   H901      1.0  0.59266  0.29107  0.67005  1.0000
  H   H902      1.0  0.63647  0.30971  0.68823  1.0000
  H   H903      1.0  0.60891  0.27876  0.66692  1.0000
  H   H904      1.0  0.63093  0.28790  0.67506  1.0000
  H   H905      1.0  0.62697  0.43246  0.70906  1.0000
  H   H906      1.0  0.63926  0.25531  0.71747  1.0000
  Fe  Fe115     1.0  0.64415  0.49837  0.63677  1.0000
  H   H907      1.0  0.59067  0.43337  0.68959  1.0000
  C   C764      1.0  0.58992  0.43027  0.76232  1.0000
  H   H908      1.0  0.62138  0.46700  0.64683  1.0000
  H   H909      1.0  0.63034  0.29423  0.90554  1.0000
  C   C765      1.0  0.55932  0.44860  0.74908  1.0000
  H   H910      1.0  0.54041  0.42677  0.71473  1.0000
  H   H911      1.0  0.56846  0.40990  0.79613  1.0000
  H   H912      1.0  0.55976  0.45793  0.75609  1.0000
  H   H913      1.0  0.62726  0.48772  0.52182  1.0000
  H   H914      1.0  0.56769  0.40400  0.75516  1.0000
  C   C766      1.0  0.49734  0.45314  0.59384  1.0000
  C   C767      1.0  0.54891  0.44294  0.73551  1.0000
  H   H915      1.0  0.58201  0.40503  0.77185  1.0000
  C   C768      1.0  0.56527  0.48879  0.71559  1.0000
  H   H916      1.0  0.60335  0.42295  0.51878  1.0000
  H   H917      1.0  0.60075  0.46472  0.49774  1.0000
  H   H918      1.0  0.56439  0.49281  0.94443  1.0000
  C   C769      1.0  0.63316  0.28930  0.96065  1.0000
  H   H919      1.0  0.58314  0.47092  0.52953  1.0000
  H   H920      1.0  0.47660  0.49128  0.94411  1.0000
  C   C770      1.0  0.49848  0.48076  0.87416  1.0000
  C   C771      1.0  0.49267  0.47435  0.91154  1.0000
  C   C772      1.0  0.63251  0.29791  0.92907  1.0000
  H   H921      1.0  0.59516  0.44025  0.74510  1.0000
  C   C773      1.0  0.60549  0.28003  0.87526  1.0000
  H   H922      1.0  0.62886  0.33553  0.91697  1.0000
  H   H923      1.0  0.64625  0.33834  0.89828  1.0000
  S   S217      1.0  0.65304  0.36933  0.77134  1.0000
  H   H924      1.0  0.63926  0.45926  0.77353  1.0000
  H   H925      1.0  0.59290  0.41147  0.50224  1.0000
  C   C774      1.0  0.62486  0.24996  0.86051  1.0000
  C   C775      1.0  0.64809  0.25547  0.88608  1.0000
  H   H926      1.0  0.56881  0.47224  0.58546  1.0000
  H   H927      1.0  0.63756  0.25390  0.80638  1.0000
  H   H928      1.0  0.63770  0.40778  0.81938  1.0000
  H   H929      1.0  0.52577  0.47452  0.59465  1.0000
  H   H930      1.0  0.65761  0.25860  0.82703  1.0000
  H   H931      1.0  0.66426  0.47287  0.70571  1.0000
  C   C776      1.0  0.63202  0.44653  0.74058  1.0000
  S   S218      1.0  0.56569  0.40211  0.50412  1.0000
  H   H932      1.0  0.58999  0.26586  0.96463  1.0000
  H   H933      1.0  0.58086  0.47978  0.70114  1.0000
  C   C777      1.0  0.60143  0.29661  0.90750  1.0000
  H   H934      1.0  0.51544  0.49082  0.59602  1.0000
  H   H935      1.0  0.59756  0.42489  0.76454  1.0000
  H   H936      1.0  0.57731  0.44765  0.76228  1.0000
  H   H937      1.0  0.64450  0.36539  0.85179  1.0000
  H   H938      1.0  0.59439  0.41836  0.70812  1.0000
  H   H939      1.0  0.65417  0.37673  0.89556  1.0000
  H   H940      1.0  0.48316  0.46745  0.91881  1.0000
  H   H941      1.0  0.63437  0.25101  0.94021  1.0000
  Fe  Fe116     1.0  0.62035  0.48292  0.69785  1.0000
  C   C778      1.0  0.59958  0.27045  0.90791  1.0000
  H   H942      1.0  0.54784  0.41835  0.48920  1.0000
  C   C779      1.0  0.65939  0.37704  0.80360  1.0000
  C   C780      1.0  0.63983  0.42707  0.74300  1.0000
  H   H943      1.0  0.60923  0.27733  0.84989  1.0000
  C   C781      1.0  0.49152  0.47940  0.59088  1.0000
  H   H944      1.0  0.65189  0.40160  0.81249  1.0000
  H   H945      1.0  0.61031  0.41397  0.48845  1.0000
  C   C782      1.0  0.66090  0.42567  0.81288  1.0000
  S   S219      1.0  0.62511  0.49467  0.73851  1.0000
  N   N54       1.0  0.58977  0.29114  0.97491  1.0000
  H   H946      1.0  0.66094  0.39436  0.96611  1.0000
  H   H947      1.0  0.48133  0.45944  0.64995  1.0000
  H   H948      1.0  0.49803  0.48443  0.56299  1.0000
  H   H949      1.0  0.49188  0.49418  0.98091  1.0000
  C   C783      1.0  0.60245  0.41902  0.49402  1.0000
  H   H950      1.0  0.63997  0.41839  0.73282  1.0000
  C   C784      1.0  0.65884  0.37970  0.86622  1.0000
  C   C785      1.0  0.54840  0.43106  0.72597  1.0000
  H   H951      1.0  0.58558  0.43099  0.79075  1.0000
  C   C786      1.0  0.56915  0.43033  0.74315  1.0000
  H   H952      1.0  0.54128  0.44783  0.73197  1.0000
  C   C787      1.0  0.58734  0.47719  0.54562  1.0000
  C   C788      1.0  0.51150  0.48565  0.93013  1.0000
  C   C789      1.0  0.57424  0.41012  0.76821  1.0000
  C   C790      1.0  0.58641  0.42337  0.70773  1.0000
  N   N55       1.0  0.49894  0.47381  0.61610  1.0000
  H   H953      1.0  0.65164  0.26546  0.94677  1.0000
  N   N56       1.0  0.60982  0.48420  0.50065  1.0000
  C   C791      1.0  0.63462  0.31127  0.92753  1.0000
  C   C792      1.0  0.65284  0.33561  0.96327  1.0000
  H   H954      1.0  0.61082  0.30051  0.84958  1.0000
  H   H955      1.0  0.65396  0.26949  0.74533  1.0000
  C   C793      1.0  0.56935  0.44247  0.75279  1.0000
  C   C794      1.0  0.55828  0.42477  0.73000  1.0000
  C   C795      1.0  0.65335  0.37326  0.84154  1.0000
  H   H956      1.0  0.51408  0.48140  0.64222  1.0000
  H   H957      1.0  0.49678  0.43514  0.57660  1.0000
  H   H958      1.0  0.61511  0.49784  0.55296  1.0000
  C   C796      1.0  0.51079  0.48960  0.86505  1.0000
  C   C797      1.0  0.51647  0.44598  0.57123  1.0000
  C   C798      1.0  0.52445  0.45720  0.57595  1.0000
  N   N57       1.0  0.57977  0.42372  0.74550  1.0000
  H   H959      1.0  0.48341  0.47185  0.58717  1.0000
  C   C799      1.0  0.49912  0.47685  0.93955  1.0000
  C   C800      1.0  0.50517  0.46453  0.60001  1.0000
  S   S220      1.0  0.52104  0.49783  0.75910  1.0000
  H   H960      1.0  0.52079  0.43863  0.56181  1.0000
  H   H961      1.0  0.48680  0.45112  0.60040  1.0000
  H   H962      1.0  0.48694  0.48668  0.60185  1.0000
  C   C801      1.0  0.61663  0.36217  0.96691  1.0000
  H   H963      1.0  0.64016  0.34909  0.92335  1.0000
  C   C802      1.0  0.64674  0.44219  0.77956  1.0000
  H   H964      1.0  0.55786  0.48096  0.71173  1.0000
  C   C803      1.0  0.51733  0.49190  0.89281  1.0000
  C   C804      1.0  0.57938  0.29762  0.96778  1.0000
  H   H965      1.0  0.55051  0.49405  0.97709  1.0000
  H   H966      1.0  0.66500  0.42407  0.96300  1.0000
  C   C805      1.0  0.65693  0.26157  0.73538  1.0000
  C   C806      1.0  0.62170  0.48069  0.50895  1.0000
  H   H967      1.0  0.62629  0.45276  0.72965  1.0000
  H   H968      1.0  0.47139  0.48893  0.88600  1.0000
  C   C807      1.0  0.47673  0.49839  0.88815  1.0000
  C   C808      1.0  0.50294  0.44398  0.57994  1.0000
  H   H969      1.0  0.61907  0.47089  0.52833  1.0000
  H   H970      1.0  0.53495  0.45847  0.57017  1.0000
  C   C809      1.0  0.57894  0.47784  0.57794  1.0000
  C   C810      1.0  0.64712  0.43029  0.76902  1.0000
  C   C811      1.0  0.63237  0.43506  0.72916  1.0000
  H   H971      1.0  0.60032  0.49820  0.60987  1.0000
  S   S221      1.0  0.65873  0.48950  0.75676  1.0000
  H   H972      1.0  0.65831  0.27756  0.90345  1.0000
  H   H973      1.0  0.66125  0.49022  0.51188  1.0000
  H   H974      1.0  0.65332  0.42603  0.83688  1.0000
  S   S222      1.0  0.65597  0.49699  0.58197  1.0000
  C   C812      1.0  0.60016  0.30048  0.98436  1.0000
  H   H975      1.0  0.48539  0.47378  0.66625  1.0000
  H   H976      1.0  0.49477  0.46197  0.67160  1.0000
  C   C813      1.0  0.63749  0.31639  0.95792  1.0000
  H   H977      1.0  0.57166  0.29112  0.95899  1.0000
  C   C814      1.0  0.65593  0.49762  0.50920  1.0000
  C   C815      1.0  0.64663  0.40808  0.79849  1.0000
  H   H978      1.0  0.61521  0.44396  0.50301  1.0000
  C   C816      1.0  0.55561  0.49672  0.94717  1.0000
  C   C817      1.0  0.63550  0.25188  0.91074  1.0000
  H   H979      1.0  0.57715  0.48568  0.62637  1.0000
  H   H980      1.0  0.63146  0.27895  0.96180  1.0000
  H   H981      1.0  0.60432  0.30966  0.96225  1.0000
  C   C818      1.0  0.64860  0.25354  0.71971  1.0000
  H   H982      1.0  0.59495  0.33252  0.98283  1.0000
  C   C819      1.0  0.57822  0.48810  0.70952  1.0000
  H   H983      1.0  0.65495  0.34629  0.96167  1.0000
  C   C820      1.0  0.63703  0.25331  0.83558  1.0000
  H   H984      1.0  0.64350  0.40336  0.77682  1.0000
  H   H985      1.0  0.54870  0.49143  0.93318  1.0000
  C   C821      1.0  0.65963  0.26868  0.92102  1.0000
  H   H986      1.0  0.59403  0.44040  0.49533  1.0000
  H   H987      1.0  0.59790  0.49760  0.70932  1.0000
  C   C822      1.0  0.58780  0.49815  0.71411  1.0000
  C   C823      1.0  0.62411  0.24925  0.89801  1.0000
  H   H988      1.0  0.61967  0.32778  0.98606  1.0000
  C   C824      1.0  0.60751  0.35044  0.98664  1.0000
  Fe  Fe117     1.0  0.45291  0.57426  0.22512  1.0000
  S   S223      1.0  0.43151  0.57015  0.24788  1.0000
  S   S224      1.0  0.46379  0.59539  0.20976  1.0000
  Fe  Fe118     1.0  0.45203  0.54580  0.23057  1.0000
  S   S225      1.0  0.43012  0.53930  0.25411  1.0000
  S   S226      1.0  0.46579  0.53258  0.22530  1.0000
  Fe  Fe119     1.0  0.42962  0.55651  0.21080  1.0000
  S   S227      1.0  0.41475  0.55678  0.17587  1.0000
  Fe  Fe120     1.0  0.43352  0.55361  0.28992  1.0000
  S   S228      1.0  0.42061  0.55334  0.34520  1.0000
  S   S229      1.0  0.45120  0.56185  0.18428  1.0000
  S   S230      1.0  0.45541  0.55886  0.26991  1.0000
  Fe  Fe121     1.0  0.48804  0.62325  0.34921  1.0000
  S   S231      1.0  0.50381  0.62699  0.29752  1.0000
  S   S232      1.0  0.46825  0.60946  0.36121  1.0000
  Fe  Fe122     1.0  0.50411  0.64200  0.38307  1.0000
  S   S233      1.0  0.52136  0.64794  0.33364  1.0000
  S   S234      1.0  0.50149  0.64940  0.43534  1.0000
  Fe  Fe123     1.0  0.50639  0.64806  0.29921  1.0000
  S   S235      1.0  0.50867  0.66164  0.24335  1.0000
  Fe  Fe124     1.0  0.51734  0.62643  0.33542  1.0000
  S   S236      1.0  0.53317  0.61560  0.33269  1.0000
  S   S237      1.0  0.48957  0.64418  0.34840  1.0000
  S   S238      1.0  0.50120  0.62065  0.38727  1.0000
  C   C825      1.0  0.43494  0.54387  0.39216  1.0000
  Fe  Fe125     1.0  0.34777  0.60904  0.10849  1.0000
  S   S239      1.0  0.36225  0.59748  0.09302  1.0000
  Fe  Fe126     1.0  0.36930  0.63403  0.09752  1.0000
  S   S240      1.0  0.38520  0.62451  0.08096  1.0000
  S   S241      1.0  0.37420  0.65556  0.09643  1.0000
  Fe  Fe127     1.0  0.37237  0.61554  0.04727  1.0000
  C   C826      1.0  0.47285  0.74887  0.24272  1.0000
  Fe  Fe128     1.0  0.37381  0.60756  0.12802  1.0000
  S   S242      1.0  0.38406  0.60077  0.17211  1.0000
  S   S243      1.0  0.35719  0.62635  0.06041  1.0000
  S   S244      1.0  0.35857  0.61774  0.14705  1.0000
  Fe  Fe129     1.0  0.45826  0.70896  0.09840  1.0000
  S   S245      1.0  0.43782  0.71115  0.11366  1.0000
  C   C827      1.0  0.61412  0.56970  0.14323  1.0000
  Fe  Fe130     1.0  0.46028  0.70253  0.17894  1.0000
  S   S246      1.0  0.43994  0.70438  0.19908  1.0000
  S   S247      1.0  0.46893  0.69690  0.22786  1.0000
  Fe  Fe131     1.0  0.43435  0.69294  0.15830  1.0000
  S   S248      1.0  0.41960  0.67311  0.17579  1.0000
  Fe  Fe132     1.0  0.44570  0.72256  0.15267  1.0000
  H   H989      1.0  0.33513  0.66867  0.11188  1.0000
  S   S249      1.0  0.45441  0.69016  0.14074  1.0000
  S   S250      1.0  0.46640  0.72136  0.13481  1.0000
  Fe  Fe133     1.0  0.58419  0.56340  0.22297  1.0000
  S   S251      1.0  0.58040  0.54844  0.19048  1.0000
  S   S252      1.0  0.59943  0.56275  0.25653  1.0000
  Fe  Fe134     1.0  0.56340  0.57620  0.19981  1.0000
  S   S253      1.0  0.55826  0.56211  0.16482  1.0000
  S   S254      1.0  0.55073  0.59046  0.19909  1.0000
  Fe  Fe135     1.0  0.55933  0.54703  0.21268  1.0000
  S   S255      1.0  0.54438  0.52774  0.23031  1.0000
  C   C828      1.0  0.52772  0.55505  0.24344  1.0000
  S   S256      1.0  0.56287  0.56074  0.24934  1.0000
  S   S257      1.0  0.58517  0.58028  0.17613  1.0000
  H   H990      1.0  0.53911  0.52674  0.02480  1.0000
  H   H991      1.0  0.56889  0.50559  0.18227  1.0000
  H   H992      1.0  0.59234  0.53639  0.00062  1.0000
  H   H993      1.0  0.50479  0.58922  0.24024  1.0000
  S   S258      1.0  0.65607  0.51299  0.32625  1.0000
  C   C829      1.0  0.49357  0.58714  0.42853  1.0000
  H   H994      1.0  0.49404  0.54755  0.20209  1.0000
  H   H995      1.0  0.53466  0.63685  0.26764  1.0000
  C   C830      1.0  0.60729  0.54989  0.25893  1.0000
  C   C831      1.0  0.61377  0.54736  0.28729  1.0000
  C   C832      1.0  0.62110  0.53802  0.28791  1.0000
  C   C833      1.0  0.62231  0.53143  0.25947  1.0000
  C   C834      1.0  0.61560  0.53373  0.23166  1.0000
  C   C835      1.0  0.60797  0.54274  0.23171  1.0000
  H   H996      1.0  0.61333  0.55282  0.30849  1.0000
  H   H997      1.0  0.62633  0.53639  0.30935  1.0000
  H   H998      1.0  0.61654  0.52873  0.20947  1.0000
  H   H999      1.0  0.60310  0.54445  0.20975  1.0000
  C   C836      1.0  0.54491  0.52184  0.19029  1.0000
  C   C837      1.0  0.55482  0.52830  0.15845  1.0000
  C   C838      1.0  0.55518  0.52404  0.12584  1.0000
  C   C839      1.0  0.54538  0.51348  0.12460  1.0000
  C   C840      1.0  0.53564  0.50672  0.15667  1.0000
  C   C841      1.0  0.53537  0.51094  0.18959  1.0000
  H   H1000     1.0  0.56222  0.53671  0.15845  1.0000
  H   H1001     1.0  0.56290  0.52917  0.10138  1.0000
  C   C842      1.0  0.52888  0.54571  0.04881  1.0000
  H   H1002     1.0  0.52773  0.50583  0.21425  1.0000
  H   H1003     1.0  0.45122  0.60961  0.42815  1.0000
  H   H1004     1.0  0.36573  0.57713  0.28548  1.0000
  C   C843      1.0  0.58465  0.56914  0.04856  1.0000
  N   N58       1.0  0.46345  0.62329  0.47158  1.0000
  H   H1005     1.0  0.61556  0.58376  0.19322  1.0000
  C   C844      1.0  0.38645  0.66058  0.11959  1.0000
  C   C845      1.0  0.39046  0.65136  0.14278  1.0000
  C   C846      1.0  0.40037  0.65543  0.16053  1.0000
  C   C847      1.0  0.40673  0.66870  0.15417  1.0000
  C   C848      1.0  0.40276  0.67796  0.13090  1.0000
  C   C849      1.0  0.39249  0.67391  0.11409  1.0000
  H   H1006     1.0  0.38577  0.64107  0.14755  1.0000
  H   H1007     1.0  0.40319  0.64824  0.17915  1.0000
  H   H1008     1.0  0.40752  0.68823  0.12611  1.0000
  H   H1009     1.0  0.38939  0.68110  0.09635  1.0000
  H   H1010     1.0  0.48017  0.72483  0.20224  1.0000
  C   C850      1.0  0.63823  0.56066  0.15247  1.0000
  H   H1011     1.0  0.39142  0.53894  0.35847  1.0000
  Fe  Fe136     1.0  0.63735  0.51027  0.30673  1.0000
  C   C851      1.0  0.49721  0.67099  0.23902  1.0000
  C   C852      1.0  0.49597  0.67662  0.20365  1.0000
  C   C853      1.0  0.48714  0.68440  0.19961  1.0000
  C   C854      1.0  0.47967  0.68673  0.23098  1.0000
  C   C855      1.0  0.48094  0.68111  0.26624  1.0000
  C   C856      1.0  0.48956  0.67316  0.27029  1.0000
  H   H1012     1.0  0.50193  0.67506  0.17930  1.0000
  H   H1013     1.0  0.48633  0.68880  0.17228  1.0000
  H   H1014     1.0  0.47530  0.68297  0.29062  1.0000
  H   H1015     1.0  0.49058  0.66908  0.29758  1.0000
  C   C857      1.0  0.65329  0.50230  0.47485  1.0000
  C   C858      1.0  0.47307  0.61576  0.46207  1.0000
  C   C859      1.0  0.57257  0.58188  0.01563  1.0000
  H   H1016     1.0  0.44459  0.53505  0.43106  1.0000
  H   H1017     1.0  0.33243  0.62801  0.12219  1.0000
  H   H1018     1.0  0.48008  0.74111  0.18103  1.0000
  H   H1019     1.0  0.51632  0.62989  0.44588  1.0000
  C   C860      1.0  0.43254  0.60007  0.46423  1.0000
  H   H1020     1.0  0.64831  0.54547  0.15981  1.0000
  H   H1021     1.0  0.59550  0.55885  0.01610  1.0000
  C   C861      1.0  0.53697  0.60740  0.29744  1.0000
  C   C862      1.0  0.54690  0.60087  0.29774  1.0000
  C   C863      1.0  0.55085  0.59511  0.26854  1.0000
  C   C864      1.0  0.54507  0.59612  0.23842  1.0000
  C   C865      1.0  0.53491  0.60237  0.23857  1.0000
  C   C866      1.0  0.53072  0.60778  0.26830  1.0000
  H   H1022     1.0  0.55173  0.60047  0.32034  1.0000
  H   H1023     1.0  0.55868  0.59033  0.26871  1.0000
  H   H1024     1.0  0.53039  0.60315  0.21539  1.0000
  H   H1025     1.0  0.52282  0.61243  0.26845  1.0000
  C   C867      1.0  0.40608  0.56892  0.17483  1.0000
  C   C868      1.0  0.40000  0.57178  0.14573  1.0000
  C   C869      1.0  0.39318  0.58155  0.14424  1.0000
  C   C870      1.0  0.39233  0.58839  0.17212  1.0000
  C   C871      1.0  0.39831  0.58544  0.20128  1.0000
  C   C872      1.0  0.40510  0.57574  0.20269  1.0000
  H   H1026     1.0  0.40059  0.56646  0.12422  1.0000
  H   H1027     1.0  0.38853  0.58372  0.12174  1.0000
  H   H1028     1.0  0.39749  0.59055  0.22325  1.0000
  H   H1029     1.0  0.40929  0.57337  0.22585  1.0000
  C   C873      1.0  0.47392  0.57493  0.39571  1.0000
  N   N59       1.0  0.41153  0.66515  0.00155  1.0000
  H   H1030     1.0  0.41280  0.56110  0.41293  1.0000
  C   C874      1.0  0.46994  0.52574  0.18704  1.0000
  C   C875      1.0  0.46536  0.52855  0.15505  1.0000
  C   C876      1.0  0.46897  0.52292  0.12523  1.0000
  C   C877      1.0  0.43205  0.54562  0.45660  1.0000
  C   C878      1.0  0.48062  0.58113  0.45050  1.0000
  H   H1031     1.0  0.64414  0.59105  0.11095  1.0000
  H   H1032     1.0  0.45895  0.53497  0.15340  1.0000
  C   C879      1.0  0.44638  0.67363  0.04266  1.0000
  H   H1033     1.0  0.47956  0.56190  0.19949  1.0000
  H   H1034     1.0  0.39317  0.65037  0.01670  1.0000
  C   C880      1.0  0.46381  0.60009  0.25158  1.0000
  C   C881      1.0  0.47152  0.61225  0.25179  1.0000
  C   C882      1.0  0.47237  0.61545  0.28563  1.0000
  C   C883      1.0  0.46560  0.60646  0.31913  1.0000
  C   C884      1.0  0.45728  0.59466  0.31884  1.0000
  C   C885      1.0  0.45640  0.59149  0.28509  1.0000
  H   H1035     1.0  0.47714  0.61900  0.22596  1.0000
  H   H1036     1.0  0.47841  0.62480  0.28578  1.0000
  H   H1037     1.0  0.45189  0.58775  0.34467  1.0000
  H   H1038     1.0  0.45016  0.58223  0.28531  1.0000
  H   H1039     1.0  0.63180  0.57818  0.21720  1.0000
  H   H1040     1.0  0.59244  0.51142  0.25908  1.0000
  H   H1041     1.0  0.52122  0.64413  0.20947  1.0000
  H   H1042     1.0  0.57578  0.61670  0.18011  1.0000
  S   S259      1.0  0.64388  0.51886  0.42790  1.0000
  H   H1043     1.0  0.48233  0.57087  0.38695  1.0000
  H   H1044     1.0  0.60507  0.50043  0.46870  1.0000
  H   H1045     1.0  0.54980  0.63827  0.14439  1.0000
  H   H1046     1.0  0.52930  0.54322  0.18878  1.0000
  H   H1047     1.0  0.46087  0.55310  0.44373  1.0000
  C   C886      1.0  0.48129  0.73490  0.20646  1.0000
  H   H1048     1.0  0.45070  0.72802  0.26136  1.0000
  H   H1049     1.0  0.46744  0.72778  0.29883  1.0000
  H   H1050     1.0  0.47318  0.71712  0.27210  1.0000
  H   H1051     1.0  0.46409  0.63034  0.41359  1.0000
  H   H1052     1.0  0.45665  0.67066  0.99181  1.0000
  C   C887      1.0  0.36773  0.56748  0.24100  1.0000
  H   H1053     1.0  0.45607  0.73343  0.21134  1.0000
  H   H1054     1.0  0.61724  0.59421  0.14930  1.0000
  H   H1055     1.0  0.38291  0.52229  0.33009  1.0000
  N   N60       1.0  0.43958  0.60685  0.13975  1.0000
  C   C888      1.0  0.43281  0.59839  0.11876  1.0000
  C   C889      1.0  0.45386  0.60848  0.12640  1.0000
  C   C890      1.0  0.43574  0.59997  0.17939  1.0000
  C   C891      1.0  0.43580  0.61934  0.13577  1.0000
  C   C892      1.0  0.42239  0.61939  0.14241  1.0000
  C   C893      1.0  0.44510  0.63168  0.12706  1.0000
  C   C894      1.0  0.41856  0.63101  0.13928  1.0000
  C   C895      1.0  0.44114  0.64327  0.12434  1.0000
  C   C896      1.0  0.42791  0.64293  0.13033  1.0000
  H   H1056     1.0  0.43596  0.58917  0.11996  1.0000
  H   H1057     1.0  0.42205  0.59511  0.13018  1.0000
  H   H1058     1.0  0.43469  0.60351  0.08912  1.0000
  H   H1059     1.0  0.45752  0.61393  0.09684  1.0000
  H   H1060     1.0  0.45628  0.59887  0.12875  1.0000
  H   H1061     1.0  0.45959  0.61350  0.14359  1.0000
  H   H1062     1.0  0.42510  0.59812  0.19136  1.0000
  H   H1063     1.0  0.43811  0.59037  0.18341  1.0000
  H   H1064     1.0  0.44101  0.60570  0.19608  1.0000
  H   H1065     1.0  0.41469  0.61042  0.15051  1.0000
  H   H1066     1.0  0.45549  0.63264  0.12232  1.0000
  H   H1067     1.0  0.40822  0.63070  0.14422  1.0000
  H   H1068     1.0  0.44836  0.65260  0.11752  1.0000
  H   H1069     1.0  0.42490  0.65192  0.12836  1.0000
  H   H1070     1.0  0.45952  0.58797  0.43475  1.0000
  H   H1071     1.0  0.46572  0.56961  0.38577  1.0000
  C   C897      1.0  0.43789  0.54103  0.42695  1.0000
  C   C898      1.0  0.42361  0.66796  0.01509  1.0000
  C   C899      1.0  0.42311  0.67079  0.05038  1.0000
  C   C900      1.0  0.36908  0.56935  0.27561  1.0000
  C   C901      1.0  0.43603  0.66773  0.99454  1.0000
  C   C902      1.0  0.55127  0.63791  0.20133  1.0000
  H   H1072     1.0  0.63651  0.57822  0.09191  1.0000
  C   C903      1.0  0.37871  0.52894  0.31244  1.0000
  H   H1073     1.0  0.57017  0.52334  0.03569  1.0000
  H   H1074     1.0  0.62973  0.59171  0.09393  1.0000
  C   C904      1.0  0.50605  0.64155  0.47437  1.0000
  S   S260      1.0  0.59040  0.56414  0.08816  1.0000
  H   H1075     1.0  0.63115  0.59519  0.16913  1.0000
  H   H1076     1.0  0.53180  0.53463  0.99120  1.0000
  C   C905      1.0  0.58721  0.50454  0.24624  1.0000
  H   H1077     1.0  0.58120  0.51996  0.21447  1.0000
  C   C906      1.0  0.47824  0.51735  0.18874  1.0000
  C   C907      1.0  0.64723  0.55476  0.20516  1.0000
  C   C908      1.0  0.63455  0.58510  0.10938  1.0000
  C   C909      1.0  0.64251  0.56399  0.22087  1.0000
  C   C910      1.0  0.42322  0.55314  0.45114  1.0000
  N   N61       1.0  0.47036  0.57341  0.43653  1.0000
  C   C911      1.0  0.50516  0.54190  0.10241  1.0000
  H   H1078     1.0  0.34679  0.66103  0.12764  1.0000
  C   C912      1.0  0.63562  0.57162  0.20259  1.0000
  C   C913      1.0  0.62246  0.58831  0.16552  1.0000
  H   H1079     1.0  0.44175  0.71090  0.03978  1.0000
  H   H1080     1.0  0.53964  0.66496  0.19039  1.0000
  H   H1081     1.0  0.59490  0.50024  0.31328  1.0000
  H   H1082     1.0  0.36351  0.57386  0.22397  1.0000
  C   C914      1.0  0.63339  0.57027  0.16748  1.0000
  H   H1083     1.0  0.50386  0.56009  0.07103  1.0000
  H   H1084     1.0  0.51969  0.57543  0.24323  1.0000
  H   H1085     1.0  0.48465  0.58272  0.21871  1.0000
  H   H1086     1.0  0.61596  0.56202  0.12864  1.0000
  H   H1087     1.0  0.47632  0.58537  0.38062  1.0000
  H   H1088     1.0  0.37155  0.55656  0.20017  1.0000
  H   H1089     1.0  0.52545  0.62884  0.21623  1.0000
  H   H1090     1.0  0.51545  0.53075  0.25220  1.0000
  H   H1091     1.0  0.60865  0.57532  0.12719  1.0000
  H   H1092     1.0  0.55523  0.51147  0.00490  1.0000
  H   H1093     1.0  0.60751  0.56472  0.17091  1.0000
  H   H1094     1.0  0.52406  0.55619  0.27189  1.0000
  C   C915      1.0  0.47720  0.51445  0.12707  1.0000
  H   H1095     1.0  0.53459  0.56442  0.22647  1.0000
  N   N62       1.0  0.44842  0.65111  0.23793  1.0000
  C   C916      1.0  0.44410  0.66239  0.22019  1.0000
  C   C917      1.0  0.45000  0.65290  0.27490  1.0000
  C   C918      1.0  0.46137  0.65161  0.21483  1.0000
  C   C919      1.0  0.43920  0.63830  0.24209  1.0000
  C   C920      1.0  0.42743  0.63696  0.22965  1.0000
  C   C921      1.0  0.44190  0.62661  0.25911  1.0000
  C   C922      1.0  0.41891  0.62467  0.23454  1.0000
  C   C923      1.0  0.43331  0.61440  0.26387  1.0000
  C   C924      1.0  0.42181  0.61343  0.25175  1.0000
  H   H1096     1.0  0.43453  0.66286  0.23657  1.0000
  H   H1097     1.0  0.45118  0.67188  0.21779  1.0000
  H   H1098     1.0  0.44316  0.66204  0.19159  1.0000
  H   H1099     1.0  0.45637  0.66274  0.27292  1.0000
  H   H1100     1.0  0.45466  0.64573  0.28857  1.0000
  H   H1101     1.0  0.44037  0.65190  0.29377  1.0000
  H   H1102     1.0  0.46053  0.64981  0.18729  1.0000
  H   H1103     1.0  0.46842  0.66129  0.21000  1.0000
  H   H1104     1.0  0.46598  0.64431  0.22808  1.0000
  H   H1105     1.0  0.42451  0.64525  0.21628  1.0000
  H   H1106     1.0  0.45066  0.62682  0.26915  1.0000
  H   H1107     1.0  0.40994  0.62387  0.22512  1.0000
  H   H1108     1.0  0.43559  0.60563  0.27720  1.0000
  H   H1109     1.0  0.41511  0.60394  0.25578  1.0000
  H   H1110     1.0  0.54736  0.65196  0.25555  1.0000
  H   H1111     1.0  0.55616  0.63478  0.25572  1.0000
  C   C925      1.0  0.51331  0.63232  0.47207  1.0000
  C   C926      1.0  0.64503  0.55304  0.17114  1.0000
  N   N63       1.0  0.62627  0.57826  0.14700  1.0000
  H   H1112     1.0  0.51496  0.54561  0.17450  1.0000
  H   H1113     1.0  0.40017  0.54203  0.25801  1.0000
  H   H1114     1.0  0.60893  0.50214  0.27581  1.0000
  H   H1115     1.0  0.55611  0.66390  0.18987  1.0000
  C   C927      1.0  0.40495  0.67585  0.00318  1.0000
  Fe  Fe137     1.0  0.64253  0.50758  0.38344  1.0000
  H   H1116     1.0  0.42916  0.59523  0.44388  1.0000
  Fe  Fe138     1.0  0.57978  0.56484  0.14519  1.0000
  S   S261      1.0  0.54510  0.50958  0.08203  1.0000
  H   H1117     1.0  0.38185  0.54261  0.23662  1.0000
  C   C928      1.0  0.37962  0.55134  0.28434  1.0000
  N   N64       1.0  0.51679  0.55075  0.22613  1.0000
  C   C929      1.0  0.50318  0.59388  0.44318  1.0000
  C   C930      1.0  0.52255  0.54972  0.18829  1.0000
  C   C931      1.0  0.50823  0.55976  0.22385  1.0000
  C   C932      1.0  0.51103  0.57194  0.23386  1.0000
  C   C933      1.0  0.49676  0.55654  0.21071  1.0000
  C   C934      1.0  0.50257  0.58007  0.23200  1.0000
  C   C935      1.0  0.48840  0.56476  0.20888  1.0000
  C   C936      1.0  0.49124  0.57645  0.21974  1.0000
  H   H1118     1.0  0.50154  0.53286  0.23544  1.0000
  H   H1119     1.0  0.52826  0.55948  0.17040  1.0000
  H   H1120     1.0  0.49600  0.54032  0.12256  1.0000
  H   H1121     1.0  0.49656  0.58685  0.39986  1.0000
  H   H1122     1.0  0.51298  0.59850  0.42577  1.0000
  H   H1123     1.0  0.50397  0.53800  0.27654  1.0000
  N   N65       1.0  0.47165  0.73521  0.23981  1.0000
  C   C937      1.0  0.50909  0.53755  0.24852  1.0000
  H   H1124     1.0  0.53371  0.54791  0.24611  1.0000
  S   S262      1.0  0.46843  0.70955  0.03984  1.0000
  S   S263      1.0  0.63310  0.52132  0.25543  1.0000
  S   S264      1.0  0.51471  0.50555  0.04103  1.0000
  C   C938      1.0  0.54025  0.53594  0.00425  1.0000
  H   H1125     1.0  0.63657  0.55877  0.12651  1.0000
  H   H1126     1.0  0.40702  0.64455  0.02517  1.0000
  C   C939      1.0  0.48180  0.51169  0.15902  1.0000
  H   H1127     1.0  0.48443  0.73126  0.27578  1.0000
  C   C940      1.0  0.56483  0.51710  0.98847  1.0000
  H   H1128     1.0  0.48177  0.51506  0.21345  1.0000
  H   H1129     1.0  0.39642  0.67457  0.99043  1.0000
  C   C941      1.0  0.58895  0.56514  0.01617  1.0000
  H   H1130     1.0  0.45516  0.67640  0.05242  1.0000
  H   H1131     1.0  0.40524  0.55492  0.27992  1.0000
  C   C942      1.0  0.39956  0.54461  0.28529  1.0000
  H   H1132     1.0  0.34927  0.65215  0.07043  1.0000
  N   N66       1.0  0.38595  0.54280  0.30612  1.0000
  C   C943      1.0  0.58079  0.50965  0.22044  1.0000
  H   H1133     1.0  0.50900  0.52407  0.12807  1.0000
  H   H1134     1.0  0.57144  0.62209  0.24111  1.0000
  H   H1135     1.0  0.48731  0.52490  0.00014  1.0000
  C   C944      1.0  0.53859  0.64663  0.24800  1.0000
  C   C945      1.0  0.33855  0.65085  0.07344  1.0000
  H   H1136     1.0  0.36823  0.52731  0.32643  1.0000
  H   H1137     1.0  0.37909  0.52570  0.28616  1.0000
  H   H1138     1.0  0.52992  0.63969  0.17113  1.0000
  C   C946      1.0  0.37225  0.55771  0.22763  1.0000
  H   H1139     1.0  0.37661  0.54403  0.36078  1.0000
  H   H1140     1.0  0.43936  0.54010  0.36978  1.0000
  C   C947      1.0  0.52129  0.55497  0.04674  1.0000
  C   C948      1.0  0.41996  0.55564  0.41661  1.0000
  H   H1141     1.0  0.39251  0.55557  0.34021  1.0000
  H   H1142     1.0  0.40472  0.53851  0.30114  1.0000
  H   H1143     1.0  0.56495  0.62487  0.13218  1.0000
  H   H1144     1.0  0.37573  0.56349  0.32355  1.0000
  C   C949      1.0  0.42578  0.55099  0.38705  1.0000
  C   C950      1.0  0.38654  0.54549  0.34297  1.0000
  C   C951      1.0  0.55434  0.63497  0.16616  1.0000
  C   C952      1.0  0.37816  0.54978  0.24880  1.0000
  C   C953      1.0  0.37492  0.56143  0.29716  1.0000
  C   C954      1.0  0.44560  0.70757  0.01596  1.0000
  H   H1145     1.0  0.54649  0.56826  0.00050  1.0000
  C   C955      1.0  0.57630  0.57739  0.04835  1.0000
  H   H1146     1.0  0.57301  0.58059  0.07308  1.0000
  C   C956      1.0  0.52415  0.53464  0.07927  1.0000
  C   C957      1.0  0.54461  0.55915  0.99042  1.0000
  C   C958      1.0  0.52906  0.63927  0.20103  1.0000
  C   C959      1.0  0.54665  0.65891  0.18494  1.0000
  C   C960      1.0  0.56685  0.62594  0.21992  1.0000
  C   C961      1.0  0.47430  0.72755  0.27309  1.0000
  H   H1147     1.0  0.39973  0.65346  0.05493  1.0000
  C   C962      1.0  0.56934  0.62292  0.18553  1.0000
  N   N67       1.0  0.54158  0.64551  0.20896  1.0000
  H   H1148     1.0  0.55092  0.53908  0.06116  1.0000
  H   H1149     1.0  0.52943  0.52726  0.08300  1.0000
  H   H1150     1.0  0.54836  0.65897  0.15501  1.0000
  H   H1151     1.0  0.53112  0.65218  0.25303  1.0000
  H   H1152     1.0  0.43374  0.67651  0.08999  1.0000
  C   C963      1.0  0.55794  0.63328  0.22795  1.0000
  C   C964      1.0  0.56314  0.62747  0.15865  1.0000
  C   C965      1.0  0.57330  0.52383  0.00636  1.0000
  H   H1153     1.0  0.55311  0.55635  0.05375  1.0000
  H   H1154     1.0  0.65210  0.54852  0.22016  1.0000
  H   H1155     1.0  0.46396  0.55731  0.48507  1.0000
  S   S265      1.0  0.48164  0.50771  0.08873  1.0000
  H   H1156     1.0  0.56171  0.54960  0.01983  1.0000
  C   C966      1.0  0.44519  0.60829  0.45554  1.0000
  C   C967      1.0  0.45793  0.57729  0.44554  1.0000
  C   C968      1.0  0.64686  0.51223  0.47084  1.0000
  H   H1157     1.0  0.45034  0.57218  0.43320  1.0000
  H   H1158     1.0  0.46532  0.52508  0.10070  1.0000
  C   C969      1.0  0.50960  0.55300  0.07322  1.0000
  H   H1159     1.0  0.41401  0.67088  0.06781  1.0000
  C   C970      1.0  0.40249  0.65287  0.02557  1.0000
  H   H1160     1.0  0.34570  0.63889  0.13149  1.0000
  C   C971      1.0  0.43435  0.67380  0.06362  1.0000
  H   H1161     1.0  0.45742  0.63945  0.44410  1.0000
  C   C972      1.0  0.45849  0.72851  0.23677  1.0000
  H   H1162     1.0  0.54736  0.50082  0.25819  1.0000
  H   H1163     1.0  0.52417  0.56380  0.02495  1.0000
  C   C973      1.0  0.45831  0.70601  0.00966  1.0000
  C   C974      1.0  0.55218  0.54812  0.03980  1.0000
  H   H1164     1.0  0.47215  0.61202  0.43706  1.0000
  N   N68       1.0  0.54122  0.54731  0.02120  1.0000
  H   H1165     1.0  0.56637  0.58853  0.01537  1.0000
  C   C975      1.0  0.57384  0.50156  0.20228  1.0000
  C   C976      1.0  0.51247  0.53277  0.10549  1.0000
  S   S266      1.0  0.44022  0.74126  0.16213  1.0000
  C   C977      1.0  0.50020  0.59496  0.47974  1.0000
  C   C978      1.0  0.46494  0.63398  0.43884  1.0000
  H   H1166     1.0  0.49024  0.50354  0.01478  1.0000
  H   H1167     1.0  0.64374  0.56487  0.24814  1.0000
  H   H1168     1.0  0.42815  0.70661  0.99567  1.0000
  H   H1169     1.0  0.40099  0.67637  0.03205  1.0000
  H   H1170     1.0  0.45788  0.71827  0.23500  1.0000
  H   H1171     1.0  0.48802  0.50509  0.16099  1.0000
  H   H1172     1.0  0.47473  0.64108  0.43163  1.0000
  H   H1173     1.0  0.48332  0.62183  0.45640  1.0000
  H   H1174     1.0  0.49156  0.73836  0.20822  1.0000
  H   H1175     1.0  0.41183  0.68548  0.98832  1.0000
  C   C979      1.0  0.46803  0.55944  0.45457  1.0000
  C   C980      1.0  0.44719  0.67043  0.00845  1.0000
  H   H1176     1.0  0.47723  0.55624  0.45000  1.0000
  C   C981      1.0  0.33618  0.65942  0.12805  1.0000
  S   S267      1.0  0.62409  0.50624  0.36309  1.0000
  H   H1177     1.0  0.41862  0.55667  0.47381  1.0000
  H   H1178     1.0  0.47184  0.60726  0.48528  1.0000
  H   H1179     1.0  0.33738  0.65990  0.05649  1.0000
  C   C982      1.0  0.33498  0.63677  0.13347  1.0000
  H   H1180     1.0  0.33497  0.64270  0.06072  1.0000
  C   C983      1.0  0.43791  0.70522  0.99072  1.0000
  C   C984      1.0  0.48725  0.50177  0.98925  1.0000
  H   H1181     1.0  0.45337  0.57474  0.47578  1.0000
  C   C985      1.0  0.45000  0.61461  0.48170  1.0000
  Fe  Fe139     1.0  0.43660  0.54691  0.62754  1.0000
  S   S268      1.0  0.44955  0.55593  0.57082  1.0000
  S   S269      1.0  0.44303  0.53689  0.67641  1.0000
  Fe  Fe140     1.0  0.41479  0.55930  0.60949  1.0000
  S   S270      1.0  0.42596  0.56900  0.55043  1.0000
  S   S271      1.0  0.39484  0.56146  0.63600  1.0000
  Fe  Fe141     1.0  0.43155  0.55018  0.54960  1.0000
  H   H1182     1.0  0.46861  0.57744  0.50677  1.0000
  Fe  Fe142     1.0  0.44290  0.57380  0.57595  1.0000
  S   S272      1.0  0.45796  0.59290  0.55715  1.0000
  S   S273      1.0  0.41881  0.53974  0.60683  1.0000
  S   S274      1.0  0.43153  0.56550  0.63468  1.0000
  Fe  Fe143     1.0  0.50867  0.61401  0.71396  1.0000
  S   S275      1.0  0.52303  0.63106  0.67222  1.0000
  S   S276      1.0  0.51235  0.59837  0.75604  1.0000
  Fe  Fe144     1.0  0.48539  0.62115  0.68943  1.0000
  S   S277      1.0  0.49767  0.63888  0.64622  1.0000
  S   S278      1.0  0.46372  0.61513  0.69665  1.0000
  N   N69       1.0  0.53858  0.64136  0.76270  1.0000
  Fe  Fe145     1.0  0.50851  0.64226  0.69001  1.0000
  S   S279      1.0  0.51376  0.66237  0.70045  1.0000
  S   S280      1.0  0.49761  0.60791  0.67321  1.0000
  S   S281      1.0  0.49499  0.62551  0.73449  1.0000
  Fe  Fe146     1.0  0.37092  0.61285  0.74109  1.0000
  S   S282      1.0  0.36157  0.62980  0.73545  1.0000
  S   S283      1.0  0.38796  0.61126  0.69755  1.0000
  Fe  Fe147     1.0  0.35842  0.60326  0.82362  1.0000
  S   S284      1.0  0.34825  0.61909  0.82392  1.0000
  S   S285      1.0  0.35806  0.58898  0.87575  1.0000
  Fe  Fe148     1.0  0.34316  0.61493  0.77159  1.0000
  C   C986      1.0  0.46660  0.51356  0.70062  1.0000
  Fe  Fe149     1.0  0.36720  0.63248  0.78837  1.0000
  S   S286      1.0  0.37467  0.65010  0.81032  1.0000
  S   S287      1.0  0.35223  0.59783  0.77384  1.0000
  S   S288      1.0  0.37766  0.61674  0.79152  1.0000
  Fe  Fe150     1.0  0.46450  0.69045  0.82181  1.0000
  S   S289      1.0  0.46359  0.70344  0.76928  1.0000
  S   S290      1.0  0.47421  0.67393  0.82945  1.0000
  Fe  Fe151     1.0  0.44411  0.69983  0.86912  1.0000
  S   S291      1.0  0.44071  0.71295  0.82038  1.0000
  S   S292      1.0  0.43326  0.69909  0.92680  1.0000
  Fe  Fe152     1.0  0.44179  0.69649  0.79211  1.0000
  S   S293      1.0  0.43122  0.68945  0.75061  1.0000
  Fe  Fe153     1.0  0.46261  0.71888  0.80172  1.0000
  S   S294      1.0  0.44274  0.68277  0.84305  1.0000
  S   S295      1.0  0.46593  0.70654  0.85203  1.0000
  Fe  Fe154     1.0  0.57253  0.57375  0.89548  1.0000
  S   S296      1.0  0.58759  0.57936  0.84099  1.0000
  S   S297      1.0  0.57207  0.58395  0.94271  1.0000
  Fe  Fe155     1.0  0.55423  0.55355  0.86982  1.0000
  S   S298      1.0  0.56774  0.55734  0.81377  1.0000
  S   S299      1.0  0.53499  0.53847  0.88483  1.0000
  Fe  Fe156     1.0  0.58349  0.55769  0.84457  1.0000
  S   S300      1.0  0.59706  0.54443  0.83886  1.0000
  Fe  Fe157     1.0  0.57032  0.57845  0.81494  1.0000
  S   S301      1.0  0.56927  0.59365  0.76601  1.0000
  S   S302      1.0  0.56964  0.55225  0.90122  1.0000
  S   S303      1.0  0.55568  0.57450  0.86902  1.0000
  C   C987      1.0  0.54550  0.63290  0.78234  1.0000
  S   S304      1.0  0.52399  0.53565  0.72879  1.0000
  C   C988      1.0  0.50230  0.58155  0.61309  1.0000
  H   H1183     1.0  0.53926  0.65094  0.70645  1.0000
  H   H1184     1.0  0.47304  0.70065  0.97303  1.0000
  C   C989      1.0  0.61505  0.53374  0.73220  1.0000
  C   C990      1.0  0.61484  0.52640  0.76702  1.0000
  C   C991      1.0  0.60930  0.52984  0.79937  1.0000
  C   C992      1.0  0.60373  0.54049  0.79728  1.0000
  C   C993      1.0  0.60370  0.54769  0.76249  1.0000
  C   C994      1.0  0.60945  0.54438  0.73009  1.0000
  H   H1185     1.0  0.60942  0.52425  0.82616  1.0000
  H   H1186     1.0  0.59953  0.55597  0.76053  1.0000
  H   H1187     1.0  0.60966  0.55015  0.70322  1.0000
  C   C995      1.0  0.52578  0.53670  0.77319  1.0000
  C   C996      1.0  0.52002  0.52604  0.80368  1.0000
  C   C997      1.0  0.52235  0.52670  0.83862  1.0000
  C   C998      1.0  0.53048  0.53800  0.84291  1.0000
  C   C999      1.0  0.53573  0.54878  0.81277  1.0000
  C   C1000     1.0  0.53344  0.54816  0.77793  1.0000
  C   C1001     1.0  0.46325  0.70198  0.97798  1.0000
  H   H1188     1.0  0.51812  0.51838  0.86196  1.0000
  H   H1189     1.0  0.54173  0.55760  0.81622  1.0000
  H   H1190     1.0  0.53795  0.55643  0.75456  1.0000
  C   C1002     1.0  0.50564  0.51887  0.95146  1.0000
  C   C1003     1.0  0.48742  0.51199  0.92455  1.0000
  C   C1004     1.0  0.48768  0.58905  0.50212  1.0000
  S   S305      1.0  0.51857  0.62255  0.57631  1.0000
  C   C1005     1.0  0.40151  0.55276  0.72618  1.0000
  N   N70       1.0  0.46958  0.74301  0.91025  1.0000
  H   H1191     1.0  0.58838  0.56630  0.95880  1.0000
  C   C1006     1.0  0.64502  0.51218  0.53625  1.0000
  H   H1192     1.0  0.58608  0.53510  0.70849  1.0000
  H   H1193     1.0  0.46537  0.67208  0.74511  1.0000
  H   H1194     1.0  0.54798  0.51235  0.77217  1.0000
  H   H1195     1.0  0.45163  0.73118  0.75101  1.0000
  C   C1007     1.0  0.56866  0.51758  0.95014  1.0000
  C   C1008     1.0  0.51708  0.62656  0.50351  1.0000
  C   C1009     1.0  0.45557  0.69965  0.95265  1.0000
  C   C1010     1.0  0.64276  0.51714  0.50163  1.0000
  C   C1011     1.0  0.43459  0.63261  0.68504  1.0000
  C   C1012     1.0  0.42869  0.60393  0.52559  1.0000
  H   H1196     1.0  0.45937  0.69624  0.92888  1.0000
  H   H1197     1.0  0.63784  0.52487  0.49866  1.0000
  C   C1013     1.0  0.39024  0.66122  0.79255  1.0000
  C   C1014     1.0  0.39771  0.66243  0.75696  1.0000
  C   C1015     1.0  0.41019  0.67127  0.74415  1.0000
  C   C1016     1.0  0.41543  0.67864  0.76723  1.0000
  C   C1017     1.0  0.40801  0.67733  0.80294  1.0000
  C   C1018     1.0  0.39535  0.66885  0.81521  1.0000
  H   H1198     1.0  0.39373  0.65675  0.73910  1.0000
  H   H1199     1.0  0.41580  0.67240  0.71627  1.0000
  H   H1200     1.0  0.41188  0.68308  0.82077  1.0000
  H   H1201     1.0  0.38951  0.66811  0.84254  1.0000
  C   C1019     1.0  0.36648  0.58959  0.93960  1.0000
  C   C1020     1.0  0.36281  0.59665  0.91007  1.0000
  C   C1021     1.0  0.36355  0.60989  0.90737  1.0000
  C   C1022     1.0  0.53922  0.65324  0.77718  1.0000
  H   H1202     1.0  0.36589  0.57934  0.94198  1.0000
  H   H1203     1.0  0.36068  0.61544  0.88493  1.0000
  H   H1204     1.0  0.47469  0.74260  0.65842  1.0000
  H   H1205     1.0  0.41010  0.64943  0.81244  1.0000
  C   C1023     1.0  0.50236  0.66546  0.73557  1.0000
  C   C1024     1.0  0.49948  0.67764  0.73090  1.0000
  C   C1025     1.0  0.49067  0.68035  0.75919  1.0000
  C   C1026     1.0  0.48496  0.67097  0.79261  1.0000
  C   C1027     1.0  0.48792  0.65884  0.79733  1.0000
  C   C1028     1.0  0.49648  0.65605  0.76881  1.0000
  H   H1206     1.0  0.50413  0.68502  0.70541  1.0000
  H   H1207     1.0  0.48856  0.68978  0.75550  1.0000
  H   H1208     1.0  0.48360  0.65158  0.82321  1.0000
  H   H1209     1.0  0.49876  0.64672  0.77305  1.0000
  C   C1029     1.0  0.52831  0.59732  0.75761  1.0000
  C   C1030     1.0  0.53938  0.60578  0.73192  1.0000
  C   C1031     1.0  0.55195  0.60454  0.73432  1.0000
  C   C1032     1.0  0.55348  0.59487  0.76244  1.0000
  C   C1033     1.0  0.54236  0.58641  0.78776  1.0000
  C   C1034     1.0  0.52985  0.58760  0.78533  1.0000
  H   H1210     1.0  0.53828  0.61323  0.71022  1.0000
  H   H1211     1.0  0.56052  0.61114  0.71467  1.0000
  H   H1212     1.0  0.54340  0.57906  0.80963  1.0000
  H   H1213     1.0  0.52134  0.58099  0.80526  1.0000
  C   C1035     1.0  0.39303  0.57544  0.65254  1.0000
  C   C1036     1.0  0.38075  0.57550  0.67327  1.0000
  C   C1037     1.0  0.37902  0.58640  0.68718  1.0000
  C   C1038     1.0  0.38957  0.59734  0.68046  1.0000
  C   C1039     1.0  0.40184  0.59730  0.65961  1.0000
  C   C1040     1.0  0.40358  0.58641  0.64573  1.0000
  H   H1214     1.0  0.37253  0.56709  0.67845  1.0000
  H   H1215     1.0  0.36948  0.58643  0.70246  1.0000
  H   H1216     1.0  0.41005  0.60574  0.65411  1.0000
  H   H1217     1.0  0.41306  0.58651  0.62971  1.0000
  C   C1041     1.0  0.45369  0.52664  0.67193  1.0000
  H   H1218     1.0  0.43747  0.66588  0.96720  1.0000
  H   H1219     1.0  0.41236  0.64564  0.73021  1.0000
  H   H1220     1.0  0.51784  0.59511  0.62245  1.0000
  H   H1221     1.0  0.57303  0.54236  0.72084  1.0000
  C   C1042     1.0  0.45808  0.52355  0.63828  1.0000
  C   C1043     1.0  0.50590  0.63876  0.54003  1.0000
  H   H1222     1.0  0.53507  0.56037  0.66081  1.0000
  H   H1223     1.0  0.49703  0.53199  0.89254  1.0000
  H   H1224     1.0  0.45481  0.52735  0.61416  1.0000
  C   C1044     1.0  0.45901  0.60016  0.59428  1.0000
  C   C1045     1.0  0.44798  0.59836  0.62300  1.0000
  C   C1046     1.0  0.44925  0.60337  0.65410  1.0000
  C   C1047     1.0  0.46157  0.61021  0.65623  1.0000
  C   C1048     1.0  0.47242  0.61247  0.62666  1.0000
  C   C1049     1.0  0.47115  0.60750  0.59569  1.0000
  H   H1225     1.0  0.43847  0.59314  0.62120  1.0000
  H   H1226     1.0  0.44079  0.60171  0.67670  1.0000
  H   H1227     1.0  0.48191  0.61793  0.62751  1.0000
  H   H1228     1.0  0.47968  0.60908  0.57330  1.0000
  C   C1050     1.0  0.39738  0.57176  0.74646  1.0000
  H   H1229     1.0  0.40055  0.58224  0.74190  1.0000
  H   H1230     1.0  0.64191  0.51611  0.55969  1.0000
  C   C1051     1.0  0.54728  0.51574  0.93715  1.0000
  C   C1052     1.0  0.42429  0.59795  0.49915  1.0000
  H   H1231     1.0  0.50937  0.52871  0.93242  1.0000
  H   H1232     1.0  0.44896  0.72587  0.65774  1.0000
  H   H1233     1.0  0.37200  0.55328  0.84472  1.0000
  C   C1053     1.0  0.56448  0.51341  0.89062  1.0000
  H   H1234     1.0  0.58571  0.52520  0.90261  1.0000
  H   H1235     1.0  0.46967  0.51272  0.61014  1.0000
  H   H1236     1.0  0.46673  0.62187  0.52648  1.0000
  H   H1237     1.0  0.49166  0.52882  0.83459  1.0000
  C   C1054     1.0  0.47333  0.73582  0.94229  1.0000
  H   H1238     1.0  0.56975  0.53117  0.78751  1.0000
  H   H1239     1.0  0.37371  0.54398  0.79420  1.0000
  H   H1240     1.0  0.38733  0.53458  0.75313  1.0000
  H   H1241     1.0  0.57308  0.50939  0.88395  1.0000
  H   H1242     1.0  0.51387  0.51722  0.80040  1.0000
  C   C1055     1.0  0.36373  0.56664  0.79108  1.0000
  H   H1243     1.0  0.45845  0.72479  0.90368  1.0000
  C   C1056     1.0  0.48098  0.50876  0.85696  1.0000
  C   C1057     1.0  0.57135  0.50996  0.73142  1.0000
  H   H1244     1.0  0.40461  0.66186  0.95327  1.0000
  H   H1245     1.0  0.42235  0.60195  0.55310  1.0000
  C   C1058     1.0  0.39019  0.54494  0.75180  1.0000
  S   S306      1.0  0.51527  0.50794  0.67850  1.0000
  H   H1246     1.0  0.46602  0.63994  0.72647  1.0000
  H   H1247     1.0  0.56738  0.51374  0.80009  1.0000
  C   C1059     1.0  0.44023  0.64364  0.90019  1.0000
  C   C1060     1.0  0.37647  0.56398  0.83650  1.0000
  C   C1061     1.0  0.37145  0.59588  0.96521  1.0000
  N   N71       1.0  0.46292  0.56964  0.71459  1.0000
  C   C1062     1.0  0.46448  0.57169  0.67390  1.0000
  C   C1063     1.0  0.44995  0.56050  0.73369  1.0000
  C   C1064     1.0  0.46282  0.58234  0.72399  1.0000
  C   C1065     1.0  0.47338  0.56404  0.72576  1.0000
  C   C1066     1.0  0.48222  0.57010  0.74476  1.0000
  C   C1067     1.0  0.47470  0.55191  0.71859  1.0000
  C   C1068     1.0  0.49140  0.56404  0.75693  1.0000
  C   C1069     1.0  0.48392  0.54596  0.73078  1.0000
  C   C1070     1.0  0.49222  0.55198  0.75008  1.0000
  H   H1248     1.0  0.47430  0.57813  0.65859  1.0000
  H   H1249     1.0  0.46317  0.56239  0.66484  1.0000
  H   H1250     1.0  0.45708  0.57641  0.66435  1.0000
  H   H1251     1.0  0.44897  0.55076  0.72746  1.0000
  H   H1252     1.0  0.44182  0.56414  0.72502  1.0000
  H   H1253     1.0  0.44827  0.55890  0.76432  1.0000
  H   H1254     1.0  0.47203  0.58993  0.70921  1.0000
  H   H1255     1.0  0.45473  0.58615  0.71570  1.0000
  H   H1256     1.0  0.46136  0.58156  0.75430  1.0000
  H   H1257     1.0  0.48227  0.57950  0.75067  1.0000
  H   H1258     1.0  0.46849  0.54690  0.70363  1.0000
  H   H1259     1.0  0.49794  0.56880  0.77173  1.0000
  H   H1260     1.0  0.48462  0.53661  0.72516  1.0000
  H   H1261     1.0  0.49936  0.54731  0.75947  1.0000
  H   H1262     1.0  0.46548  0.73340  0.96831  1.0000
  H   H1263     1.0  0.41377  0.57218  0.70306  1.0000
  C   C1071     1.0  0.46341  0.64730  0.74149  1.0000
  C   C1072     1.0  0.38243  0.55045  0.77495  1.0000
  H   H1264     1.0  0.43849  0.73602  0.66781  1.0000
  C   C1073     1.0  0.36829  0.61611  0.93333  1.0000
  H   H1265     1.0  0.39159  0.58715  0.79590  1.0000
  C   C1074     1.0  0.51341  0.62976  0.53760  1.0000
  H   H1266     1.0  0.44905  0.73323  0.93010  1.0000
  N   N72       1.0  0.37714  0.56969  0.79711  1.0000
  C   C1075     1.0  0.45598  0.66673  0.74056  1.0000
  H   H1267     1.0  0.37040  0.56829  0.85562  1.0000
  H   H1268     1.0  0.55374  0.55980  0.96982  1.0000
  C   C1076     1.0  0.44292  0.70138  0.95880  1.0000
  C   C1077     1.0  0.57222  0.52271  0.77764  1.0000
  H   H1269     1.0  0.46019  0.63539  0.50994  1.0000
  N   N73       1.0  0.52910  0.57807  0.66485  1.0000
  C   C1078     1.0  0.52496  0.57364  0.70580  1.0000
  C   C1079     1.0  0.53882  0.57117  0.65106  1.0000
  C   C1080     1.0  0.53581  0.59222  0.65543  1.0000
  C   C1081     1.0  0.51757  0.57502  0.64901  1.0000
  C   C1082     1.0  0.51038  0.56187  0.65440  1.0000
  H   H1270     1.0  0.52093  0.56289  0.71544  1.0000
  H   H1271     1.0  0.53329  0.57620  0.71887  1.0000
  H   H1272     1.0  0.51734  0.57828  0.71714  1.0000
  H   H1273     1.0  0.54789  0.57374  0.66109  1.0000
  H   H1274     1.0  0.54165  0.57363  0.62020  1.0000
  H   H1275     1.0  0.52923  0.59792  0.66686  1.0000
  H   H1276     1.0  0.54451  0.59418  0.66737  1.0000
  H   H1277     1.0  0.53937  0.59621  0.62488  1.0000
  H   H1278     1.0  0.51306  0.55390  0.67049  1.0000
  H   H1279     1.0  0.38603  0.63895  0.87186  1.0000
  C   C1083     1.0  0.41384  0.66360  0.96283  1.0000
  H   H1280     1.0  0.42993  0.64903  0.82139  1.0000
  H   H1281     1.0  0.52339  0.62579  0.75702  1.0000
  C   C1084     1.0  0.44046  0.64811  0.86304  1.0000
  H   H1282     1.0  0.38201  0.58906  0.76177  1.0000
  H   H1283     1.0  0.41789  0.65511  0.96006  1.0000
  C   C1085     1.0  0.54484  0.64535  0.72233  1.0000
  C   C1086     1.0  0.50235  0.64471  0.50848  1.0000
  H   H1284     1.0  0.53388  0.65974  0.76340  1.0000
  C   C1087     1.0  0.42181  0.64404  0.71967  1.0000
  C   C1088     1.0  0.58447  0.50893  0.72477  1.0000
  N   N74       1.0  0.49122  0.51390  0.95914  1.0000
  H   H1285     1.0  0.54549  0.63668  0.71095  1.0000
  C   C1089     1.0  0.46652  0.51528  0.63605  1.0000
  H   H1286     1.0  0.44688  0.71887  0.72655  1.0000
  H   H1287     1.0  0.41368  0.62903  0.69411  1.0000
  H   H1288     1.0  0.47255  0.65234  0.74782  1.0000
  C   C1090     1.0  0.53896  0.62045  0.80651  1.0000
  H   H1289     1.0  0.43190  0.65858  0.74200  1.0000
  H   H1290     1.0  0.48729  0.56602  0.60655  1.0000
  H   H1291     1.0  0.52856  0.61629  0.81160  1.0000
  H   H1292     1.0  0.41454  0.59143  0.50607  1.0000
  C   C1091     1.0  0.51312  0.58481  0.62803  1.0000
  S   S307      1.0  0.62186  0.52975  0.69078  1.0000
  H   H1293     1.0  0.53475  0.65067  0.80754  1.0000
  C   C1092     1.0  0.55397  0.52097  0.74971  1.0000
  H   H1294     1.0  0.51976  0.64134  0.75092  1.0000
  H   H1295     1.0  0.54049  0.51205  0.92044  1.0000
  C   C1093     1.0  0.49962  0.55871  0.63913  1.0000
  C   C1094     1.0  0.43316  0.65138  0.72626  1.0000
  N   N75       1.0  0.45787  0.65666  0.71961  1.0000
  Fe  Fe158     1.0  0.62968  0.51184  0.69004  1.0000
  H   H1296     1.0  0.48535  0.58989  0.53062  1.0000
  H   H1297     1.0  0.42841  0.63259  0.95392  1.0000
  H   H1298     1.0  0.50308  0.64137  0.56598  1.0000
  H   H1299     1.0  0.45194  0.67420  0.72545  1.0000
  C   C1095     1.0  0.37255  0.60921  0.96182  1.0000
  H   H1300     1.0  0.57271  0.53279  0.68664  1.0000
  H   H1301     1.0  0.47676  0.66934  0.68868  1.0000
  H   H1302     1.0  0.54927  0.53711  0.98253  1.0000
  C   C1096     1.0  0.49560  0.56853  0.61846  1.0000
  C   C1097     1.0  0.42252  0.63467  0.69919  1.0000
  H   H1303     1.0  0.46761  0.72576  0.68181  1.0000
  C   C1098     1.0  0.42859  0.63611  0.92499  1.0000
  H   H1304     1.0  0.56487  0.64655  0.76062  1.0000
  C   C1099     1.0  0.38570  0.56407  0.77275  1.0000
  H   H1305     1.0  0.49919  0.58923  0.59700  1.0000
  H   H1306     1.0  0.46362  0.66996  0.66580  1.0000
  H   H1307     1.0  0.54945  0.65912  0.77257  1.0000
  H   H1308     1.0  0.40580  0.61465  0.86168  1.0000
  H   H1309     1.0  0.44939  0.66235  0.76862  1.0000
  H   H1310     1.0  0.45509  0.63787  0.67982  1.0000
  H   H1311     1.0  0.55489  0.65183  0.71578  1.0000
  H   H1312     1.0  0.55703  0.50868  0.87722  1.0000
  Fe  Fe159     1.0  0.51072  0.62595  0.63250  1.0000
  C   C1100     1.0  0.44565  0.64946  0.71231  1.0000
  H   H1313     1.0  0.55187  0.52973  0.75855  1.0000
  S   S308      1.0  0.65088  0.51183  0.67208  1.0000
  H   H1314     1.0  0.42065  0.67253  0.94322  1.0000
  C   C1101     1.0  0.56607  0.62914  0.79517  1.0000
  H   H1315     1.0  0.56740  0.52405  0.87710  1.0000
  N   N76       1.0  0.40468  0.63423  0.86282  1.0000
  C   C1102     1.0  0.45738  0.73464  0.90593  1.0000
  H   H1316     1.0  0.44422  0.61613  0.53936  1.0000
  H   H1317     1.0  0.58295  0.52430  0.77414  1.0000
  C   C1103     1.0  0.46765  0.66337  0.68409  1.0000
  H   H1318     1.0  0.38980  0.61723  0.86310  1.0000
  H   H1319     1.0  0.39572  0.61589  0.90380  1.0000
  C   C1104     1.0  0.39881  0.61991  0.87329  1.0000
  C   C1105     1.0  0.55940  0.61691  0.81806  1.0000
  C   C1106     1.0  0.38174  0.58408  0.79058  1.0000
  H   H1320     1.0  0.49680  0.65188  0.51046  1.0000
  H   H1321     1.0  0.38640  0.56575  0.84199  1.0000
  S   S309      1.0  0.38194  0.61788  0.98698  1.0000
  C   C1107     1.0  0.41712  0.63308  0.91272  1.0000
  H   H1322     1.0  0.61883  0.50492  0.48784  1.0000
  C   C1108     1.0  0.44599  0.63989  0.69133  1.0000
  H   H1323     1.0  0.54078  0.60304  0.84157  1.0000
  H   H1324     1.0  0.43515  0.62528  0.66914  1.0000
  Fe  Fe160     1.0  0.51489  0.51479  0.73059  1.0000
  H   H1325     1.0  0.46966  0.50958  0.72493  1.0000
  C   C1109     1.0  0.65182  0.50255  0.53997  1.0000
  H   H1326     1.0  0.36387  0.57029  0.76142  1.0000
  N   N77       1.0  0.56814  0.52150  0.74287  1.0000
  H   H1327     1.0  0.59985  0.53709  0.93395  1.0000
  C   C1110     1.0  0.41701  0.63738  0.87494  1.0000
  H   H1328     1.0  0.39259  0.63693  0.91190  1.0000
  H   H1329     1.0  0.40826  0.62738  0.93314  1.0000
  C   C1111     1.0  0.44134  0.61215  0.51718  1.0000
  H   H1330     1.0  0.41312  0.63399  0.80651  1.0000
  C   C1112     1.0  0.54587  0.61266  0.82412  1.0000
  H   H1331     1.0  0.61913  0.51821  0.76903  1.0000
  C   C1113     1.0  0.45792  0.52154  0.70310  1.0000
  C   C1114     1.0  0.40639  0.63865  0.82216  1.0000
  H   H1332     1.0  0.48840  0.53332  0.95361  1.0000
  H   H1333     1.0  0.37509  0.58796  0.80925  1.0000
  S   S310      1.0  0.47481  0.73996  0.78139  1.0000
  H   H1334     1.0  0.39691  0.63617  0.81411  1.0000
  C   C1115     1.0  0.52456  0.63491  0.76708  1.0000
  H   H1335     1.0  0.47316  0.73703  0.70766  1.0000
  H   H1336     1.0  0.45439  0.52369  0.72939  1.0000
  C   C1116     1.0  0.39533  0.64063  0.88125  1.0000
  H   H1337     1.0  0.45636  0.64186  0.76824  1.0000
  H   H1338     1.0  0.39954  0.65136  0.87507  1.0000
  C   C1117     1.0  0.42906  0.64509  0.85040  1.0000
  C   C1118     1.0  0.40516  0.56610  0.72382  1.0000
  H   H1339     1.0  0.44955  0.65409  0.84401  1.0000
  C   C1119     1.0  0.55925  0.63712  0.77788  1.0000
  H   H1340     1.0  0.51890  0.63253  0.79642  1.0000
  H   H1341     1.0  0.47086  0.65642  0.66845  1.0000
  N   N78       1.0  0.55927  0.51100  0.93133  1.0000
  C   C1120     1.0  0.44892  0.73578  0.66207  1.0000
  H   H1342     1.0  0.51068  0.51227  0.93849  1.0000
  H   H1343     1.0  0.45414  0.74304  0.63551  1.0000
  C   C1121     1.0  0.57528  0.53344  0.71347  1.0000
  H   H1344     1.0  0.44913  0.64608  0.90965  1.0000
  C   C1122     1.0  0.49129  0.52249  0.89243  1.0000
  H   H1345     1.0  0.47883  0.50734  0.83097  1.0000
  H   H1346     1.0  0.35718  0.57120  0.80795  1.0000
  H   H1347     1.0  0.35894  0.55601  0.79890  1.0000
  H   H1348     1.0  0.56475  0.61058  0.83059  1.0000
  H   H1349     1.0  0.57662  0.63234  0.79044  1.0000
  C   C1123     1.0  0.48818  0.52082  0.85911  1.0000
  H   H1350     1.0  0.40728  0.54852  0.70742  1.0000
  H   H1351     1.0  0.36898  0.62638  0.93070  1.0000
  H   H1352     1.0  0.49437  0.54857  0.64338  1.0000
  N   N79       1.0  0.45511  0.73851  0.69255  1.0000
  H   H1353     1.0  0.59233  0.51651  0.72752  1.0000
  C   C1124     1.0  0.48504  0.52356  0.97331  1.0000
  C   C1125     1.0  0.47084  0.51030  0.66717  1.0000
  C   C1126     1.0  0.58171  0.52465  0.93136  1.0000
  S   S311      1.0  0.43605  0.54154  0.49980  1.0000
  C   C1127     1.0  0.57689  0.57791  0.98320  1.0000
  C   C1128     1.0  0.44729  0.72918  0.72764  1.0000
  H   H1354     1.0  0.43699  0.72977  0.73467  1.0000
  C   C1129     1.0  0.46824  0.73594  0.68464  1.0000
  S   S312      1.0  0.49342  0.50625  0.75451  1.0000
  H   H1355     1.0  0.44821  0.74310  0.80024  1.0000
  C   C1130     1.0  0.46689  0.62937  0.50169  1.0000
  H   H1356     1.0  0.54148  0.51247  0.96639  1.0000
  H   H1357     1.0  0.55028  0.52066  0.72423  1.0000
  H   H1358     1.0  0.48210  0.73542  0.87293  1.0000
  H   H1359     1.0  0.47509  0.72641  0.93783  1.0000
  H   H1360     1.0  0.48259  0.74142  0.94687  1.0000
  S   S313      1.0  0.62352  0.49998  0.65037  1.0000
  H   H1361     1.0  0.52303  0.61974  0.50128  1.0000
  H   H1362     1.0  0.47697  0.63596  0.49297  1.0000
  H   H1363     1.0  0.50762  0.60038  0.49075  1.0000
  H   H1364     1.0  0.54974  0.52655  0.92887  1.0000
  C   C1131     1.0  0.59006  0.53146  0.94934  1.0000
  C   C1132     1.0  0.48018  0.74486  0.87680  1.0000
  S   S314      1.0  0.48109  0.49961  0.66392  1.0000
  C   C1133     1.0  0.58494  0.56936  0.98369  1.0000
  C   C1134     1.0  0.56181  0.49954  0.72629  1.0000
  H   H1365     1.0  0.37489  0.59051  0.98678  1.0000
  H   H1366     1.0  0.50895  0.51975  0.97709  1.0000
  H   H1367     1.0  0.53687  0.55914  0.97477  1.0000
  H   H1368     1.0  0.47419  0.52031  0.97840  1.0000
  H   H1369     1.0  0.45450  0.73874  0.88045  1.0000
  H   H1370     1.0  0.55160  0.49943  0.73005  1.0000
  C   C1135     1.0  0.47989  0.49989  0.92151  1.0000
  C   C1136     1.0  0.58584  0.53112  0.98673  1.0000
  C   C1137     1.0  0.47807  0.58209  0.48796  1.0000
  Fe  Fe161     1.0  0.51051  0.94042  0.30565  1.0000
  S   S315      1.0  0.50240  0.92053  0.34388  1.0000
  S   S316      1.0  0.49654  0.95167  0.28898  1.0000
  Fe  Fe162     1.0  0.53825  0.93933  0.29641  1.0000
  S   S317      1.0  0.53240  0.91887  0.33277  1.0000
  S   S318      1.0  0.55980  0.94915  0.27143  1.0000
  Fe  Fe163     1.0  0.51634  0.91431  0.30292  1.0000
  S   S319      1.0  0.50905  0.89359  0.29453  1.0000
  Fe  Fe164     1.0  0.51881  0.92647  0.37095  1.0000
  S   S320      1.0  0.51583  0.91941  0.43347  1.0000
  S   S321      1.0  0.52372  0.93413  0.26286  1.0000
  S   S322      1.0  0.52559  0.94709  0.33631  1.0000
  Fe  Fe165     1.0  0.43739  0.91213  0.24876  1.0000
  S   S323      1.0  0.42329  0.89347  0.28199  1.0000
  S   S324      1.0  0.45829  0.91202  0.23133  1.0000
  Fe  Fe166     1.0  0.41669  0.92619  0.24478  1.0000
  S   S325      1.0  0.40034  0.90831  0.27761  1.0000
  S   S326      1.0  0.41520  0.94677  0.22333  1.0000
  Fe  Fe167     1.0  0.41409  0.90572  0.31507  1.0000
  S   S327      1.0  0.40850  0.89718  0.37773  1.0000
  Fe  Fe168     1.0  0.41077  0.89717  0.24193  1.0000
  S   S328      1.0  0.40601  0.87896  0.21867  1.0000
  S   S329      1.0  0.42948  0.92417  0.28483  1.0000
  S   S330      1.0  0.42583  0.91529  0.20656  1.0000
  H   H1371     1.0  0.49782  0.92769  0.26861  1.0000
  H   H1372     1.0  0.48244  0.77367  0.14503  1.0000
  Fe  Fe169     1.0  0.44930  0.82932  0.18243  1.0000
  S   S331      1.0  0.46092  0.84863  0.14583  1.0000
  S   S332      1.0  0.42897  0.82904  0.21157  1.0000
  Fe  Fe170     1.0  0.47035  0.81603  0.15998  1.0000
  S   S333      1.0  0.48393  0.83475  0.12173  1.0000
  S   S334      1.0  0.47622  0.79680  0.16238  1.0000
  Fe  Fe171     1.0  0.47806  0.84480  0.16743  1.0000
  S   S335      1.0  0.49160  0.86381  0.17284  1.0000
  Fe  Fe172     1.0  0.46590  0.83747  0.10351  1.0000
  S   S336      1.0  0.46362  0.84575  0.04641  1.0000
  S   S337      1.0  0.46594  0.82579  0.20748  1.0000
  S   S338      1.0  0.45282  0.81838  0.13847  1.0000
  H   H1373     1.0  0.52236  0.99058  0.00486  1.0000
  H   H1374     1.0  0.46162  0.89724  0.30569  1.0000
  H   H1375     1.0  0.46670  0.88871  0.34328  1.0000
  H   H1376     1.0  0.35599  0.82879  0.21736  1.0000
  H   H1377     1.0  0.44396  0.88205  0.38352  1.0000
  H   H1378     1.0  0.39275  0.81307  0.31084  1.0000
  C   C1138     1.0  0.37041  0.81985  0.23566  1.0000
  H   H1379     1.0  0.52197  0.85961  0.24771  1.0000
  H   H1380     1.0  0.53056  0.95976  0.47427  1.0000
  H   H1381     1.0  0.44089  0.94398  0.19149  1.0000
  H   H1382     1.0  0.57447  0.95236  0.33028  1.0000
  C   C1139     1.0  0.56139  0.95175  0.42022  1.0000
  C   C1140     1.0  0.44692  0.86120  0.22526  1.0000
  H   H1383     1.0  0.53748  0.99188  0.15925  1.0000
  H   H1384     1.0  0.45275  0.74979  0.24113  1.0000
  C   C1141     1.0  0.46613  0.78187  0.15875  1.0000
  C   C1142     1.0  0.45249  0.77939  0.16610  1.0000
  C   C1143     1.0  0.44475  0.76700  0.16649  1.0000
  H   H1385     1.0  0.44786  0.78688  0.17263  1.0000
  H   H1386     1.0  0.43421  0.76512  0.17311  1.0000
  C   C1144     1.0  0.39697  0.80546  0.16910  1.0000
  C   C1145     1.0  0.39772  0.81855  0.16881  1.0000
  C   C1146     1.0  0.40768  0.82582  0.18137  1.0000
  C   C1147     1.0  0.41702  0.82009  0.19380  1.0000
  C   C1148     1.0  0.41635  0.80703  0.19380  1.0000
  C   C1149     1.0  0.40625  0.79969  0.18188  1.0000
  H   H1387     1.0  0.39052  0.82303  0.15948  1.0000
  H   H1388     1.0  0.40814  0.83592  0.18113  1.0000
  H   H1389     1.0  0.42346  0.80251  0.20371  1.0000
  H   H1390     1.0  0.40565  0.78953  0.18242  1.0000
  C   C1150     1.0  0.39439  0.87193  0.19549  1.0000
  C   C1151     1.0  0.39623  0.86120  0.18101  1.0000
  C   C1152     1.0  0.38701  0.85476  0.16422  1.0000
  N   N80       1.0  0.52088  0.99338  0.19843  1.0000
  H   H1391     1.0  0.55374  0.96019  0.33711  1.0000
  H   H1392     1.0  0.40477  0.85772  0.18308  1.0000
  H   H1393     1.0  0.38848  0.84640  0.15380  1.0000
  H   H1394     1.0  0.36793  0.81162  0.22342  1.0000
  C   C1153     1.0  0.41371  0.90520  0.41122  1.0000
  C   C1154     1.0  0.41989  0.91854  0.40224  1.0000
  C   C1155     1.0  0.52679  0.86877  0.22754  1.0000
  C   C1156     1.0  0.41151  0.89797  0.44792  1.0000
  H   H1395     1.0  0.42163  0.92424  0.37417  1.0000
  H   H1396     1.0  0.55180  0.89305  0.27041  1.0000
  Fe  Fe173     1.0  0.37251  0.80779  0.12601  1.0000
  H   H1397     1.0  0.49682  0.85577  0.01070  1.0000
  H   H1398     1.0  0.43937  0.85402  0.21989  1.0000
  C   C1157     1.0  0.50313  0.88578  0.26095  1.0000
  C   C1158     1.0  0.49768  0.87215  0.27087  1.0000
  C   C1159     1.0  0.49363  0.86533  0.24484  1.0000
  C   C1160     1.0  0.49508  0.87202  0.20819  1.0000
  C   C1161     1.0  0.50037  0.88567  0.19841  1.0000
  C   C1162     1.0  0.50422  0.89252  0.22460  1.0000
  H   H1399     1.0  0.49679  0.86677  0.29879  1.0000
  H   H1400     1.0  0.48973  0.85484  0.25284  1.0000
  H   H1401     1.0  0.50160  0.89098  0.17020  1.0000
  H   H1402     1.0  0.50824  0.90298  0.21635  1.0000
  C   C1163     1.0  0.51950  0.92869  0.46595  1.0000
  H   H1403     1.0  0.57251  0.97401  0.46851  1.0000
  S   S339      1.0  0.38144  0.82819  0.09143  1.0000
  H   H1404     1.0  0.53050  0.98973  0.24307  1.0000
  C   C1164     1.0  0.52381  0.94231  0.45594  1.0000
  C   C1165     1.0  0.37746  0.84159  0.26430  1.0000
  H   H1405     1.0  0.55040  0.93154  0.44899  1.0000
  H   H1406     1.0  0.52468  0.94748  0.42785  1.0000
  C   C1166     1.0  0.56768  0.96616  0.25928  1.0000
  C   C1167     1.0  0.58128  0.96977  0.25411  1.0000
  H   H1407     1.0  0.52024  0.86182  0.18285  1.0000
  H   H1408     1.0  0.40489  0.81972  0.26737  1.0000
  C   C1168     1.0  0.49238  0.97486  0.14552  1.0000
  C   C1169     1.0  0.56105  0.97601  0.25461  1.0000
  H   H1409     1.0  0.58653  0.96232  0.25732  1.0000
  H   H1410     1.0  0.45585  0.77232  0.24429  1.0000
  H   H1411     1.0  0.40333  0.85398  0.26065  1.0000
  H   H1412     1.0  0.55054  0.97335  0.25848  1.0000
  C   C1170     1.0  0.48605  0.94140  0.27032  1.0000
  C   C1171     1.0  0.47451  0.94416  0.26350  1.0000
  C   C1172     1.0  0.46597  0.93538  0.25024  1.0000
  C   C1173     1.0  0.46915  0.92400  0.24347  1.0000
  C   C1174     1.0  0.48088  0.92156  0.24894  1.0000
  C   C1175     1.0  0.48916  0.93010  0.26296  1.0000
  H   H1413     1.0  0.47203  0.95287  0.26930  1.0000
  H   H1414     1.0  0.45697  0.93737  0.24538  1.0000
  H   H1415     1.0  0.48335  0.91276  0.24380  1.0000
  H   H1416     1.0  0.46033  0.87564  0.13201  1.0000
  H   H1417     1.0  0.59874  0.98546  0.24127  1.0000
  H   H1418     1.0  0.58052  0.96335  0.35639  1.0000
  H   H1419     1.0  0.56507  0.89998  0.20432  1.0000
  C   C1176     1.0  0.41485  0.82522  0.02208  1.0000
  C   C1177     1.0  0.39181  0.79450  0.00266  1.0000
  H   H1420     1.0  0.57951  0.94629  0.37134  1.0000
  C   C1178     1.0  0.53146  0.88187  0.16522  1.0000
  C   C1179     1.0  0.47191  0.77189  0.15072  1.0000
  C   C1180     1.0  0.46418  0.75958  0.15036  1.0000
  C   C1181     1.0  0.55331  0.93811  0.37935  1.0000
  H   H1421     1.0  0.43773  0.86082  0.16062  1.0000
  H   H1422     1.0  0.45181  0.88698  0.11369  1.0000
  H   H1423     1.0  0.47443  0.90582  0.32246  1.0000
  C   C1182     1.0  0.53927  0.89174  0.21304  1.0000
  C   C1183     1.0  0.55607  0.94214  0.48725  1.0000
  H   H1424     1.0  0.43738  0.79995  0.05010  1.0000
  H   H1425     1.0  0.46654  0.86225  0.28573  1.0000
  H   H1426     1.0  0.46877  0.75210  0.14369  1.0000
  H   H1427     1.0  0.40744  0.82544  0.04549  1.0000
  C   C1184     1.0  0.45052  0.75696  0.15895  1.0000
  S   S340      1.0  0.35473  0.81199  0.15785  1.0000
  Fe  Fe174     1.0  0.34534  0.80677  0.11222  1.0000
  H   H1428     1.0  0.44872  0.91291  0.47261  1.0000
  C   C1185     1.0  0.39100  0.83633  0.32416  1.0000
  H   H1429     1.0  0.48503  0.97037  0.13255  1.0000
  C   C1186     1.0  0.45223  0.97618  0.14566  1.0000
  H   H1430     1.0  0.43473  0.83150  0.07462  1.0000
  H   H1431     1.0  0.50639  0.96697  0.21585  1.0000
  H   H1432     1.0  0.44912  0.84682  0.26976  1.0000
  C   C1187     1.0  0.50463  0.97330  0.19275  1.0000
  C   C1188     1.0  0.45132  0.87429  0.20367  1.0000
  C   C1189     1.0  0.37573  0.85894  0.16176  1.0000
  C   C1190     1.0  0.45241  0.85694  0.25440  1.0000
  H   H1433     1.0  0.49024  0.95721  0.18601  1.0000
  H   H1434     1.0  0.38023  0.85054  0.27304  1.0000
  H   H1435     1.0  0.40478  0.80546  0.08548  1.0000
  C   C1191     1.0  0.53974  0.91397  0.21680  1.0000
  H   H1436     1.0  0.38887  0.80339  0.00784  1.0000
  C   C1192     1.0  0.38063  0.82095  0.25370  1.0000
  H   H1437     1.0  0.41411  0.79699  0.11027  1.0000
  H   H1438     1.0  0.46564  0.89270  0.19725  1.0000
  C   C1193     1.0  0.56816  0.98937  0.24422  1.0000
  N   N81       1.0  0.44563  0.87924  0.17294  1.0000
  S   S341      1.0  0.36329  0.85052  0.14343  1.0000
  H   H1439     1.0  0.54456  0.92276  0.22528  1.0000
  H   H1440     1.0  0.43947  0.88961  0.34286  1.0000
  H   H1441     1.0  0.56308  0.99694  0.24043  1.0000
  H   H1442     1.0  0.53672  0.89779  0.28200  1.0000
  C   C1194     1.0  0.44880  0.96616  0.25262  1.0000
  H   H1443     1.0  0.36213  0.84793  0.24287  1.0000
  C   C1195     1.0  0.53814  0.89260  0.17591  1.0000
  H   H1444     1.0  0.38191  0.90659  0.41520  1.0000
  C   C1196     1.0  0.48650  0.76979  0.24605  1.0000
  C   C1197     1.0  0.47529  0.90426  0.43110  1.0000
  H   H1445     1.0  0.51406  0.97995  0.25249  1.0000
  C   C1198     1.0  0.54673  0.90078  0.26334  1.0000
  C   C1199     1.0  0.38817  0.91560  0.45702  1.0000
  H   H1446     1.0  0.44076  0.99016  0.14634  1.0000
  C   C1200     1.0  0.46714  0.90823  0.45747  1.0000
  H   H1447     1.0  0.36530  0.87314  0.17390  1.0000
  H   H1448     1.0  0.44658  0.81555  0.05411  1.0000
  H   H1449     1.0  0.38557  0.81326  0.25450  1.0000
  C   C1201     1.0  0.48498  0.75673  0.24463  1.0000
  C   C1202     1.0  0.44088  0.98018  0.15659  1.0000
  C   C1203     1.0  0.58824  0.98294  0.24484  1.0000
  H   H1450     1.0  0.36766  0.79359  0.01024  1.0000
  H   H1451     1.0  0.44234  0.81496  0.99529  1.0000
  H   H1452     1.0  0.40677  0.88764  0.45510  1.0000
  H   H1453     1.0  0.55760  0.93008  0.38973  1.0000
  H   H1454     1.0  0.55312  0.93788  0.35021  1.0000
  H   H1455     1.0  0.44184  0.90894  0.41725  1.0000
  H   H1456     1.0  0.46183  0.92239  0.33247  1.0000
  H   H1457     1.0  0.45021  0.91324  0.31248  1.0000
  C   C1204     1.0  0.44280  0.89138  0.36801  1.0000
  C   C1205     1.0  0.45290  0.91413  0.33902  1.0000
  C   C1206     1.0  0.46493  0.89822  0.33145  1.0000
  C   C1207     1.0  0.46697  0.83752  0.01126  1.0000
  C   C1208     1.0  0.50808  0.99399  0.14926  1.0000
  N   N82       1.0  0.54628  0.90332  0.22368  1.0000
  C   C1209     1.0  0.42125  0.91743  0.46666  1.0000
  N   N83       1.0  0.45518  0.90184  0.35829  1.0000
  C   C1210     1.0  0.55564  0.94094  0.45134  1.0000
  H   H1458     1.0  0.56091  0.97113  0.36148  1.0000
  H   H1459     1.0  0.54507  0.96008  0.38277  1.0000
  C   C1211     1.0  0.56775  0.96363  0.42738  1.0000
  C   C1212     1.0  0.55492  0.96103  0.36522  1.0000
  H   H1460     1.0  0.44474  0.91692  0.35560  1.0000
  N   N84       1.0  0.56096  0.95097  0.38180  1.0000
  C   C1213     1.0  0.57445  0.95335  0.35907  1.0000
  H   H1461     1.0  0.47823  0.89878  0.38002  1.0000
  H   H1462     1.0  0.46395  0.89191  0.13804  1.0000
  S   S342      1.0  0.38477  0.79624  0.15268  1.0000
  C   C1214     1.0  0.45935  0.90368  0.39245  1.0000
  C   C1215     1.0  0.45586  0.88364  0.13764  1.0000
  H   H1463     1.0  0.43027  0.87344  0.14535  1.0000
  C   C1216     1.0  0.43459  0.86936  0.16796  1.0000
  C   C1217     1.0  0.38442  0.83188  0.26884  1.0000
  H   H1464     1.0  0.53322  0.87792  0.26776  1.0000
  C   C1218     1.0  0.46222  0.86559  0.26334  1.0000
  H   H1465     1.0  0.44856  0.89919  0.17863  1.0000
  C   C1219     1.0  0.44061  0.89049  0.18024  1.0000
  H   H1466     1.0  0.42649  0.86588  0.19350  1.0000
  H   H1467     1.0  0.43399  0.88796  0.20842  1.0000
  C   C1220     1.0  0.40624  0.84465  0.26432  1.0000
  H   H1468     1.0  0.44709  0.95564  0.25943  1.0000
  C   C1221     1.0  0.46157  0.88271  0.21295  1.0000
  C   C1222     1.0  0.46676  0.87847  0.24273  1.0000
  H   H1469     1.0  0.43494  0.89367  0.16015  1.0000
  C   C1223     1.0  0.42507  0.81920  0.02706  1.0000
  H   H1470     1.0  0.34658  0.79090  0.99550  1.0000
  C   C1224     1.0  0.36712  0.84025  0.24684  1.0000
  S   S343      1.0  0.35204  0.82756  0.07805  1.0000
  S   S344      1.0  0.46696  0.98703  0.11676  1.0000
  C   C1225     1.0  0.46050  0.97401  0.22885  1.0000
  H   H1471     1.0  0.39874  0.83674  0.33993  1.0000
  N   N85       1.0  0.42574  0.81304  0.06482  1.0000
  C   C1226     1.0  0.42631  0.82277  0.08783  1.0000
  C   C1227     1.0  0.41389  0.80211  0.08206  1.0000
  H   H1472     1.0  0.42748  0.81866  0.11586  1.0000
  H   H1473     1.0  0.47516  0.82391  0.04239  1.0000
  H   H1474     1.0  0.41294  0.79473  0.06522  1.0000
  H   H1475     1.0  0.47456  0.88516  0.24920  1.0000
  H   H1476     1.0  0.41725  0.82617  0.09269  1.0000
  H   H1477     1.0  0.46785  0.96953  0.21702  1.0000
  C   C1228     1.0  0.45206  0.96304  0.15815  1.0000
  C   C1229     1.0  0.42360  0.92461  0.42985  1.0000
  C   C1230     1.0  0.52703  0.94924  0.48240  1.0000
  H   H1478     1.0  0.54219  0.90164  0.15498  1.0000
  C   C1231     1.0  0.43731  0.80771  0.06563  1.0000
  H   H1479     1.0  0.43749  0.80317  0.09446  1.0000
  H   H1480     1.0  0.42824  0.93497  0.42269  1.0000
  S   S345      1.0  0.36254  0.80086  0.08374  1.0000
  H   H1481     1.0  0.48025  0.81307  0.99105  1.0000
  C   C1232     1.0  0.42946  0.95798  0.19307  1.0000
  H   H1482     1.0  0.55204  0.90967  0.27044  1.0000
  C   C1233     1.0  0.44079  0.95401  0.18186  1.0000
  H   H1483     1.0  0.35551  0.83476  0.99514  1.0000
  C   C1234     1.0  0.46388  0.76783  0.24530  1.0000
  H   H1484     1.0  0.40858  0.82326  0.30853  1.0000
  C   C1235     1.0  0.51125  0.98680  0.18025  1.0000
  C   C1236     1.0  0.40054  0.82185  0.29392  1.0000
  C   C1237     1.0  0.38324  0.87628  0.19243  1.0000
  C   C1238     1.0  0.56794  0.96475  0.46351  1.0000
  H   H1485     1.0  0.48473  0.90315  0.43522  1.0000
  C   C1239     1.0  0.49530  0.96749  0.17564  1.0000
  Fe  Fe175     1.0  0.36971  0.82179  0.05192  1.0000
  H   H1486     1.0  0.40953  0.84312  0.23618  1.0000
  C   C1240     1.0  0.47145  0.90188  0.39916  1.0000
  C   C1241     1.0  0.45123  0.90754  0.42020  1.0000
  H   H1487     1.0  0.49344  0.75289  0.24432  1.0000
  H   H1488     1.0  0.43462  0.89386  0.38554  1.0000
  H   H1489     1.0  0.38165  0.88451  0.20339  1.0000
  H   H1490     1.0  0.52709  0.97652  0.22121  1.0000
  H   H1491     1.0  0.33760  0.77690  0.09257  1.0000
  C   C1242     1.0  0.37398  0.86981  0.17567  1.0000
  C   C1243     1.0  0.47273  0.82710  0.01632  1.0000
  H   H1492     1.0  0.56569  0.91633  0.20939  1.0000
  H   H1493     1.0  0.46073  0.95980  0.14971  1.0000
  N   N86       1.0  0.39535  0.83353  0.28749  1.0000
  C   C1244     1.0  0.36366  0.82946  0.23230  1.0000
  H   H1494     1.0  0.38866  0.84593  0.32167  1.0000
  H   H1495     1.0  0.41489  0.84606  0.27654  1.0000
  H   H1496     1.0  0.38521  0.78587  0.02399  1.0000
  H   H1497     1.0  0.42077  0.97422  0.18855  1.0000
  H   H1498     1.0  0.38211  0.82871  0.34130  1.0000
  Fe  Fe176     1.0  0.36318  0.83227  0.12096  1.0000
  C   C1245     1.0  0.42954  0.97110  0.18025  1.0000
  H   H1499     1.0  0.52932  0.91073  0.23267  1.0000
  C   C1246     1.0  0.55999  0.90792  0.20112  1.0000
  C   C1247     1.0  0.53334  0.87946  0.23868  1.0000
  H   H1500     1.0  0.47133  0.99304  0.19809  1.0000
  H   H1501     1.0  0.49594  0.77575  0.24630  1.0000
  H   H1502     1.0  0.54293  0.93581  0.39518  1.0000
  C   C1248     1.0  0.47599  0.77534  0.24615  1.0000
  H   H1503     1.0  0.47730  0.78560  0.24581  1.0000
  C   C1249     1.0  0.52581  0.86998  0.19097  1.0000
  C   C1250     1.0  0.44089  0.98532  0.25630  1.0000
  H   H1504     1.0  0.43276  0.98895  0.26715  1.0000
  H   H1505     1.0  0.53979  0.91722  0.18713  1.0000
  C   C1251     1.0  0.38092  0.90573  0.44470  1.0000
  C   C1252     1.0  0.45509  0.90980  0.45212  1.0000
  C   C1253     1.0  0.41533  0.90402  0.47549  1.0000
  C   C1254     1.0  0.43418  0.81921  0.99443  1.0000
  H   H1506     1.0  0.53032  0.88281  0.13706  1.0000
  H   H1507     1.0  0.39478  0.92411  0.43697  1.0000
  H   H1508     1.0  0.56059  0.91131  0.17110  1.0000
  C   C1255     1.0  0.52320  0.98448  0.23012  1.0000
  H   H1509     1.0  0.42968  0.96553  0.28316  1.0000
  H   H1510     1.0  0.49642  0.99372  0.10884  1.0000
  C   C1256     1.0  0.58184  0.99286  0.23940  1.0000
  C   C1257     1.0  0.43899  0.97179  0.26606  1.0000
  H   H1511     1.0  0.57247  0.97220  0.40511  1.0000
  C   C1258     1.0  0.46227  0.75480  0.24339  1.0000
  H   H1512     1.0  0.47018  0.91010  0.48205  1.0000
  H   H1513     1.0  0.40181  0.79563  0.00738  1.0000
  C   C1259     1.0  0.46243  0.98752  0.21843  1.0000
  C   C1260     1.0  0.45279  0.99365  0.23243  1.0000
  C   C1261     1.0  0.49881  0.98805  0.13223  1.0000
  S   S346      1.0  0.37887  0.82519  0.99088  1.0000
  C   C1262     1.0  0.37274  0.89460  0.47025  1.0000
  H   H1514     1.0  0.36725  0.88688  0.46035  1.0000
  Fe  Fe177     1.0  0.52708  0.94515  0.61379  1.0000
  S   S347      1.0  0.51178  0.92793  0.65204  1.0000
  S   S348      1.0  0.53067  0.95183  0.55084  1.0000
  Fe  Fe178     1.0  0.53491  0.95648  0.67878  1.0000
  S   S349      1.0  0.52027  0.93997  0.72221  1.0000
  S   S350      1.0  0.54796  0.97552  0.68447  1.0000
  Fe  Fe179     1.0  0.52637  0.92669  0.68687  1.0000
  S   S351      1.0  0.52878  0.90710  0.71505  1.0000
  Fe  Fe180     1.0  0.50667  0.94210  0.68491  1.0000
  S   S352      1.0  0.48610  0.94274  0.70657  1.0000
  S   S353      1.0  0.54243  0.94302  0.64588  1.0000
  S   S354      1.0  0.52060  0.95951  0.64408  1.0000
  Fe  Fe181     1.0  0.42400  0.93484  0.62557  1.0000
  S   S355      1.0  0.43936  0.92996  0.58550  1.0000
  Fe  Fe182     1.0  0.40556  0.90715  0.64063  1.0000
  S   S356      1.0  0.41969  0.90038  0.60175  1.0000
  S   S357      1.0  0.38600  0.89469  0.67769  1.0000
  Fe  Fe183     1.0  0.43454  0.91092  0.62748  1.0000
  S   S358      1.0  0.44976  0.90196  0.64654  1.0000
  Fe  Fe184     1.0  0.42304  0.92004  0.56303  1.0000
  C   C1263     1.0  0.50270  0.98891  0.72033  1.0000
  S   S359      1.0  0.42026  0.91634  0.66916  1.0000
  S   S360      1.0  0.40783  0.92622  0.60041  1.0000
  H   H1515     1.0  0.49964  0.98678  0.69515  1.0000
  C   C1264     1.0  0.42751  0.85876  0.72965  1.0000
  S   S361      1.0  0.37925  0.79515  0.80747  1.0000
  C   C1265     1.0  0.57710  0.96705  0.79324  1.0000
  H   H1516     1.0  0.58201  0.95665  0.66691  1.0000
  Fe  Fe185     1.0  0.46830  0.82154  0.86703  1.0000
  S   S362      1.0  0.44956  0.80783  0.86646  1.0000
  S   S363      1.0  0.47690  0.81776  0.91662  1.0000
  Fe  Fe186     1.0  0.47155  0.83851  0.79050  1.0000
  S   S364      1.0  0.45320  0.82577  0.78313  1.0000
  S   S365      1.0  0.47937  0.85808  0.74808  1.0000
  Fe  Fe187     1.0  0.44430  0.82581  0.84125  1.0000
  S   S366      1.0  0.42480  0.83017  0.85652  1.0000
  Fe  Fe188     1.0  0.45979  0.80845  0.80829  1.0000
  S   S367      1.0  0.45304  0.78983  0.78955  1.0000
  S   S368      1.0  0.46201  0.83955  0.84749  1.0000
  S   S369      1.0  0.47917  0.82115  0.81013  1.0000
  C   C1266     1.0  0.46405  0.76392  0.88587  1.0000
  H   H1517     1.0  0.48765  0.92964  0.61573  1.0000
  C   C1267     1.0  0.45551  0.75200  0.69614  1.0000
  H   H1518     1.0  0.39414  0.89133  0.55789  1.0000
  C   C1268     1.0  0.44640  0.85051  0.71283  1.0000
  H   H1519     1.0  0.37885  0.81818  0.92154  1.0000
  H   H1520     1.0  0.45686  0.85123  0.71308  1.0000
  C   C1269     1.0  0.49980  0.98150  0.84730  1.0000
  H   H1521     1.0  0.43772  0.86339  0.78608  1.0000
  H   H1522     1.0  0.44091  0.84024  0.72669  1.0000
  H   H1523     1.0  0.44173  0.97834  0.82132  1.0000
  H   H1524     1.0  0.50239  0.94095  0.58534  1.0000
  C   C1270     1.0  0.50478  0.98027  0.78206  1.0000
  C   C1271     1.0  0.45928  0.77590  0.79197  1.0000
  C   C1272     1.0  0.47272  0.77690  0.78469  1.0000
  C   C1273     1.0  0.47732  0.76579  0.78176  1.0000
  N   N87       1.0  0.42732  0.98946  0.82026  1.0000
  H   H1525     1.0  0.55123  0.93392  0.51075  1.0000
  C   C1274     1.0  0.45052  0.76361  0.79767  1.0000
  H   H1526     1.0  0.47957  0.78633  0.77974  1.0000
  H   H1527     1.0  0.48774  0.76674  0.77493  1.0000
  S   S370      1.0  0.46167  0.98337  0.72849  1.0000
  H   H1528     1.0  0.44012  0.76277  0.80293  1.0000
  C   C1275     1.0  0.46662  0.83539  0.94852  1.0000
  C   C1276     1.0  0.47260  0.82515  0.95323  1.0000
  H   H1529     1.0  0.46422  0.83862  0.92259  1.0000
  H   H1530     1.0  0.43731  0.84680  0.78518  1.0000
  C   C1277     1.0  0.39211  0.80526  0.81954  1.0000
  C   C1278     1.0  0.39014  0.81579  0.83430  1.0000
  C   C1279     1.0  0.40027  0.82349  0.84518  1.0000
  C   C1280     1.0  0.41252  0.82080  0.84088  1.0000
  C   C1281     1.0  0.41460  0.81035  0.82580  1.0000
  C   C1282     1.0  0.40437  0.80253  0.81540  1.0000
  H   H1531     1.0  0.38072  0.81779  0.83811  1.0000
  H   H1532     1.0  0.39854  0.83139  0.85759  1.0000
  H   H1533     1.0  0.42400  0.80811  0.82272  1.0000
  H   H1534     1.0  0.40595  0.79436  0.80413  1.0000
  C   C1283     1.0  0.37964  0.87772  0.68332  1.0000
  N   N88       1.0  0.50082  0.97683  0.74901  1.0000
  C   C1284     1.0  0.57255  0.95703  0.77662  1.0000
  H   H1535     1.0  0.49028  0.87958  0.91624  1.0000
  C   C1285     1.0  0.37666  0.85817  0.65944  1.0000
  C   C1286     1.0  0.38317  0.87133  0.65556  1.0000
  H   H1536     1.0  0.34390  0.78757  0.93422  1.0000
  H   H1537     1.0  0.48546  0.97330  0.82130  1.0000
  H   H1538     1.0  0.37913  0.85339  0.63742  1.0000
  H   H1539     1.0  0.39061  0.87659  0.63067  1.0000
  C   C1287     1.0  0.51495  0.89341  0.72612  1.0000
  C   C1288     1.0  0.51610  0.88073  0.73926  1.0000
  C   C1289     1.0  0.50521  0.86978  0.74744  1.0000
  C   C1290     1.0  0.49308  0.87144  0.74245  1.0000
  C   C1291     1.0  0.49195  0.88411  0.72964  1.0000
  C   C1292     1.0  0.50276  0.89501  0.72190  1.0000
  H   H1540     1.0  0.52552  0.87936  0.74232  1.0000
  H   H1541     1.0  0.50637  0.86005  0.75604  1.0000
  H   H1542     1.0  0.48270  0.88556  0.72524  1.0000
  H   H1543     1.0  0.50168  0.90466  0.71225  1.0000
  C   C1293     1.0  0.55167  0.98350  0.71995  1.0000
  H   H1544     1.0  0.36896  0.88973  0.61628  1.0000
  C   C1294     1.0  0.46729  0.76129  0.69463  1.0000
  H   H1545     1.0  0.43381  0.98226  0.63859  1.0000
  C   C1295     1.0  0.55247  0.98351  0.78391  1.0000
  C   C1296     1.0  0.54828  0.97701  0.75748  1.0000
  C   C1297     1.0  0.49307  0.94664  0.52699  1.0000
  C   C1298     1.0  0.41782  0.84689  0.74760  1.0000
  H   H1546     1.0  0.55013  0.97826  0.81265  1.0000
  H   H1547     1.0  0.54274  0.96690  0.76613  1.0000
  C   C1299     1.0  0.47526  0.93074  0.69391  1.0000
  C   C1300     1.0  0.47783  0.91867  0.69270  1.0000
  C   C1301     1.0  0.46979  0.90964  0.67902  1.0000
  C   C1302     1.0  0.45918  0.91273  0.66650  1.0000
  C   C1303     1.0  0.45644  0.92468  0.66859  1.0000
  C   C1304     1.0  0.46440  0.93359  0.68263  1.0000
  H   H1548     1.0  0.48604  0.91631  0.70223  1.0000
  H   H1549     1.0  0.47198  0.90043  0.67740  1.0000
  H   H1550     1.0  0.44838  0.92724  0.65862  1.0000
  H   H1551     1.0  0.46248  0.94295  0.68324  1.0000
  C   C1305     1.0  0.51800  0.98658  0.77971  1.0000
  C   C1306     1.0  0.40343  0.96823  0.76037  1.0000
  C   C1307     1.0  0.49696  0.85774  0.98141  1.0000
  C   C1308     1.0  0.48000  0.96451  0.62444  1.0000
  H   H1552     1.0  0.42199  0.89863  0.74234  1.0000
  H   H1553     1.0  0.49595  0.92591  0.57503  1.0000
  S   S371      1.0  0.34396  0.79853  0.85034  1.0000
  H   H1554     1.0  0.36466  0.86619  0.80996  1.0000
  H   H1555     1.0  0.49279  0.95232  0.61969  1.0000
  H   H1556     1.0  0.35931  0.85824  0.85757  1.0000
  N   N89       1.0  0.49503  0.86449  0.86656  1.0000
  H   H1557     1.0  0.39762  0.83607  0.75911  1.0000
  C   C1309     1.0  0.50604  0.87566  0.84435  1.0000
  H   H1558     1.0  0.50157  0.95448  0.52769  1.0000
  C   C1310     1.0  0.40477  0.84534  0.74575  1.0000
  H   H1559     1.0  0.42101  0.97413  0.87018  1.0000
  C   C1311     1.0  0.57360  0.95942  0.73780  1.0000
  C   C1312     1.0  0.50033  0.84915  0.96044  1.0000
  H   H1560     1.0  0.40643  0.86383  0.82890  1.0000
  H   H1561     1.0  0.49679  0.99525  0.73113  1.0000
  C   C1313     1.0  0.46920  0.76082  0.94591  1.0000
  C   C1314     1.0  0.48254  0.86773  0.86289  1.0000
  H   H1562     1.0  0.34143  0.83727  0.95080  1.0000
  C   C1315     1.0  0.58383  0.98244  0.73378  1.0000
  C   C1316     1.0  0.49298  0.87091  0.92767  1.0000
  C   C1317     1.0  0.46757  0.75585  0.91437  1.0000
  H   H1563     1.0  0.39785  0.78063  0.93012  1.0000
  C   C1318     1.0  0.37930  0.85020  0.82211  1.0000
  H   H1564     1.0  0.37290  0.85287  0.89394  1.0000
  C   C1319     1.0  0.42326  0.86899  0.70993  1.0000
  H   H1565     1.0  0.46042  0.87378  0.71498  1.0000
  C   C1320     1.0  0.41015  0.86735  0.70852  1.0000
  C   C1321     1.0  0.40095  0.85555  0.72619  1.0000
  H   H1566     1.0  0.42988  0.87834  0.69516  1.0000
  H   H1567     1.0  0.40711  0.87529  0.69335  1.0000
  H   H1568     1.0  0.38504  0.92231  0.55994  1.0000
  C   C1322     1.0  0.44224  0.85710  0.77044  1.0000
  H   H1569     1.0  0.56801  0.94743  0.79454  1.0000
  H   H1570     1.0  0.57602  0.96510  0.82299  1.0000
  C   C1323     1.0  0.46470  0.96401  0.58562  1.0000
  C   C1324     1.0  0.35742  0.83145  0.96989  1.0000
  C   C1325     1.0  0.39634  0.78154  0.95933  1.0000
  C   C1326     1.0  0.37643  0.78971  0.92195  1.0000
  H   H1571     1.0  0.36787  0.87521  0.84460  1.0000
  H   H1572     1.0  0.52535  0.98920  0.75385  1.0000
  C   C1327     1.0  0.36813  0.82625  0.96148  1.0000
  C   C1328     1.0  0.33451  0.79963  0.68330  1.0000
  C   C1329     1.0  0.52585  0.94266  0.51919  1.0000
  H   H1573     1.0  0.44692  0.99431  0.82851  1.0000
  H   H1574     1.0  0.39746  0.81382  0.94121  1.0000
  H   H1575     1.0  0.55024  0.93539  0.72317  1.0000
  Fe  Fe189     1.0  0.34583  0.82000  0.83541  1.0000
  H   H1576     1.0  0.57995  0.97547  0.68751  1.0000
  H   H1577     1.0  0.57201  0.92987  0.71642  1.0000
  H   H1578     1.0  0.42518  0.88060  0.78758  1.0000
  C   C1330     1.0  0.39155  0.87250  0.81037  1.0000
  H   H1579     1.0  0.55157  0.93947  0.76614  1.0000
  C   C1331     1.0  0.57503  0.93790  0.73018  1.0000
  C   C1332     1.0  0.38187  0.85960  0.87405  1.0000
  C   C1333     1.0  0.40584  0.98179  0.80408  1.0000
  H   H1580     1.0  0.56794  0.94417  0.66783  1.0000
  H   H1581     1.0  0.47775  0.74927  0.85096  1.0000
  H   H1582     1.0  0.41369  0.89832  0.50344  1.0000
  N   N90       1.0  0.44133  0.85999  0.73124  1.0000
  H   H1583     1.0  0.45257  0.85864  0.77270  1.0000
  S   S372      1.0  0.34270  0.83131  0.87908  1.0000
  C   C1334     1.0  0.43824  0.97670  0.65705  1.0000
  H   H1584     1.0  0.58589  0.94156  0.72128  1.0000
  H   H1585     1.0  0.49274  0.97969  0.87347  1.0000
  C   C1335     1.0  0.34945  0.83287  0.94480  1.0000
  H   H1586     1.0  0.45550  0.78714  0.70943  1.0000
  C   C1336     1.0  0.46722  0.77387  0.69876  1.0000
  H   H1587     1.0  0.52047  0.92385  0.55745  1.0000
  H   H1588     1.0  0.41077  0.80637  0.94273  1.0000
  H   H1589     1.0  0.38793  0.97521  0.78767  1.0000
  H   H1590     1.0  0.38066  0.88399  0.78007  1.0000
  C   C1337     1.0  0.49336  0.86863  0.96503  1.0000
  H   H1591     1.0  0.40160  0.80431  0.90899  1.0000
  C   C1338     1.0  0.42316  0.83117  0.95550  1.0000
  H   H1592     1.0  0.38401  0.86876  0.88376  1.0000
  C   C1339     1.0  0.43313  0.82508  0.95923  1.0000
  H   H1593     1.0  0.50842  0.95995  0.75498  1.0000
  C   C1340     1.0  0.44109  0.98857  0.81292  1.0000
  C   C1341     1.0  0.40454  0.87179  0.81058  1.0000
  C   C1342     1.0  0.49305  0.93393  0.58629  1.0000
  C   C1343     1.0  0.45015  0.87316  0.71269  1.0000
  Fe  Fe190     1.0  0.36182  0.80322  0.80357  1.0000
  H   H1594     1.0  0.45064  0.87569  0.68245  1.0000
  H   H1595     1.0  0.37809  0.85183  0.79317  1.0000
  H   H1596     1.0  0.49396  0.85465  0.82190  1.0000
  H   H1597     1.0  0.40019  0.90864  0.54996  1.0000
  H   H1598     1.0  0.48483  0.95990  0.77747  1.0000
  C   C1344     1.0  0.36392  0.85740  0.72015  1.0000
  C   C1345     1.0  0.35190  0.82862  0.91200  1.0000
  H   H1599     1.0  0.38975  0.85466  0.87728  1.0000
  H   H1600     1.0  0.41177  0.98611  0.86939  1.0000
  H   H1601     1.0  0.44701  0.88088  0.72506  1.0000
  H   H1602     1.0  0.42030  0.83861  0.76280  1.0000
  H   H1603     1.0  0.44761  0.99350  0.67480  1.0000
  H   H1604     1.0  0.44611  0.99252  0.78308  1.0000
  S   S373      1.0  0.35823  0.83496  0.69498  1.0000
  C   C1346     1.0  0.36224  0.82294  0.90447  1.0000
  H   H1605     1.0  0.49058  0.87517  0.98172  1.0000
  C   C1347     1.0  0.41922  0.98187  0.80013  1.0000
  C   C1348     1.0  0.39810  0.97505  0.78446  1.0000
  H   H1606     1.0  0.58778  0.99243  0.71754  1.0000
  H   H1607     1.0  0.46583  0.97577  0.62538  1.0000
  H   H1608     1.0  0.48947  0.75136  0.87844  1.0000
  H   H1609     1.0  0.46862  0.93282  0.54180  1.0000
  H   H1610     1.0  0.33380  0.79104  0.70578  1.0000
  H   H1611     1.0  0.39749  0.96314  0.74480  1.0000
  Fe  Fe191     1.0  0.35176  0.82166  0.75268  1.0000
  H   H1612     1.0  0.46342  0.79061  0.92077  1.0000
  H   H1613     1.0  0.43433  0.97410  0.77072  1.0000
  H   H1614     1.0  0.44574  0.85223  0.68339  1.0000
  C   C1349     1.0  0.52132  0.92906  0.52935  1.0000
  C   C1350     1.0  0.57927  0.97251  0.71685  1.0000
  C   C1351     1.0  0.57136  0.95256  0.67982  1.0000
  C   C1352     1.0  0.49574  0.97785  0.81691  1.0000
  H   H1615     1.0  0.39086  0.85426  0.72435  1.0000
  C   C1353     1.0  0.37691  0.91343  0.57372  1.0000
  C   C1354     1.0  0.44383  0.76865  0.70680  1.0000
  C   C1355     1.0  0.36900  0.89020  0.58653  1.0000
  H   H1616     1.0  0.47743  0.92131  0.55418  1.0000
  H   H1617     1.0  0.40131  0.98705  0.82209  1.0000
  C   C1356     1.0  0.44378  0.75608  0.70247  1.0000
  S   S374      1.0  0.42594  0.92576  0.50015  1.0000
  H   H1618     1.0  0.35903  0.89059  0.58338  1.0000
  H   H1619     1.0  0.44019  0.82504  0.93465  1.0000
  H   H1620     1.0  0.37619  0.91229  0.60404  1.0000
  N   N91       1.0  0.37917  0.90166  0.56146  1.0000
  C   C1357     1.0  0.42430  0.97467  0.77565  1.0000
  H   H1621     1.0  0.50564  0.87805  0.81473  1.0000
  H   H1622     1.0  0.46679  0.92550  0.58988  1.0000
  H   H1623     1.0  0.53205  0.99527  0.80744  1.0000
  H   H1624     1.0  0.48220  0.87747  0.86778  1.0000
  H   H1625     1.0  0.50596  0.88465  0.85451  1.0000
  N   N92       1.0  0.48491  0.94018  0.56487  1.0000
  H   H1626     1.0  0.42785  0.99005  0.87663  1.0000
  H   H1627     1.0  0.36389  0.81935  0.87977  1.0000
  H   H1628     1.0  0.48100  0.86809  0.83442  1.0000
  H   H1629     1.0  0.42248  0.83586  0.92824  1.0000
  C   C1358     1.0  0.45510  0.75244  0.79587  1.0000
  C   C1359     1.0  0.49569  0.85308  0.85029  1.0000
  H   H1630     1.0  0.44019  0.94570  0.68717  1.0000
  C   C1360     1.0  0.35338  0.78854  0.94061  1.0000
  H   H1631     1.0  0.47664  0.75900  0.69144  1.0000
  H   H1632     1.0  0.36545  0.88429  0.52641  1.0000
  C   C1361     1.0  0.46977  0.95494  0.56964  1.0000
  N   N93       1.0  0.38022  0.86228  0.83543  1.0000
  S   S375      1.0  0.42626  0.95558  0.63361  1.0000
  H   H1633     1.0  0.34335  0.80736  0.68259  1.0000
  H   H1634     1.0  0.47404  0.86037  0.88283  1.0000
  H   H1635     1.0  0.50546  0.85103  0.84749  1.0000
  H   H1636     1.0  0.50216  0.84391  0.90911  1.0000
  C   C1362     1.0  0.49980  0.85121  0.92321  1.0000
  H   H1637     1.0  0.48011  0.97506  0.76653  1.0000
  C   C1363     1.0  0.49583  0.86207  0.90583  1.0000
  H   H1638     1.0  0.51564  0.87353  0.84533  1.0000
  C   C1364     1.0  0.47985  0.95000  0.58160  1.0000
  H   H1639     1.0  0.39247  0.89903  0.59610  1.0000
  H   H1640     1.0  0.48815  0.84414  0.86749  1.0000
  C   C1365     1.0  0.37183  0.89324  0.50826  1.0000
  C   C1366     1.0  0.46983  0.96880  0.61289  1.0000
  H   H1641     1.0  0.36713  0.87557  0.73700  1.0000
  C   C1367     1.0  0.40099  0.89215  0.75939  1.0000
  C   C1368     1.0  0.48504  0.95532  0.60898  1.0000
  C   C1369     1.0  0.51815  0.92213  0.50285  1.0000
  C   C1370     1.0  0.46854  0.75353  0.78706  1.0000
  C   C1371     1.0  0.36413  0.78821  0.91407  1.0000
  C   C1372     1.0  0.40071  0.80488  0.93826  1.0000
  C   C1373     1.0  0.44184  0.95611  0.68425  1.0000
  C   C1374     1.0  0.37060  0.82217  0.92842  1.0000
  C   C1375     1.0  0.37834  0.79153  0.95692  1.0000
  C   C1376     1.0  0.50899  0.96879  0.73356  1.0000
  H   H1642     1.0  0.46561  0.95177  0.54807  1.0000
  H   H1643     1.0  0.36772  0.91548  0.56796  1.0000
  H   H1644     1.0  0.35640  0.85215  0.74496  1.0000
  C   C1377     1.0  0.39205  0.90011  0.56657  1.0000
  H   H1645     1.0  0.37076  0.84228  0.83965  1.0000
  C   C1378     1.0  0.47397  0.92956  0.56255  1.0000
  H   H1646     1.0  0.46252  0.76074  0.86131  1.0000
  C   C1379     1.0  0.37005  0.87067  0.71565  1.0000
  C   C1380     1.0  0.41536  0.88123  0.78666  1.0000
  S   S376      1.0  0.36452  0.82481  0.79176  1.0000
  H   H1647     1.0  0.38815  0.84652  0.82245  1.0000
  H   H1648     1.0  0.45396  0.95688  0.72345  1.0000
  C   C1381     1.0  0.55886  0.99670  0.70962  1.0000
  H   H1649     1.0  0.45938  0.84962  0.97342  1.0000
  C   C1382     1.0  0.43616  0.96319  0.66004  1.0000
  H   H1650     1.0  0.56612  0.95995  0.67072  1.0000
  H   H1651     1.0  0.56178  0.95501  0.52151  1.0000
  C   C1383     1.0  0.38748  0.91429  0.49483  1.0000
  H   H1652     1.0  0.48376  0.96803  0.64632  1.0000
  H   H1653     1.0  0.50570  0.96543  0.71005  1.0000
  C   C1384     1.0  0.46255  0.77627  0.88825  1.0000
  C   C1385     1.0  0.45185  0.97602  0.70145  1.0000
  C   C1386     1.0  0.46444  0.78096  0.91917  1.0000
  H   H1654     1.0  0.58592  0.98757  0.78492  1.0000
  C   C1387     1.0  0.44960  0.96249  0.70486  1.0000
  H   H1655     1.0  0.36302  0.78694  0.88698  1.0000
  N   N94       1.0  0.39150  0.79309  0.96450  1.0000
  C   C1388     1.0  0.45554  0.77753  0.70487  1.0000
  C   C1389     1.0  0.36754  0.86574  0.83680  1.0000
  H   H1656     1.0  0.38446  0.78959  0.90008  1.0000
  H   H1657     1.0  0.47623  0.78069  0.69864  1.0000
  H   H1658     1.0  0.39960  0.89992  0.73898  1.0000
  S   S377      1.0  0.35028  0.80014  0.76085  1.0000
  C   C1390     1.0  0.41359  0.89140  0.76115  1.0000
  H   H1659     1.0  0.40595  0.78205  0.96647  1.0000
  C   C1391     1.0  0.48691  0.96933  0.75677  1.0000
  H   H1660     1.0  0.57237  0.93328  0.76035  1.0000
  N   N95       1.0  0.56871  0.94860  0.72090  1.0000
  H   H1661     1.0  0.54930  0.95126  0.72957  1.0000
  C   C1392     1.0  0.36697  0.85118  0.69167  1.0000
  C   C1393     1.0  0.44606  0.98311  0.67754  1.0000
  C   C1394     1.0  0.55436  0.94344  0.73563  1.0000
  C   C1395     1.0  0.39010  0.88287  0.78346  1.0000
  C   C1396     1.0  0.51287  0.98762  0.84398  1.0000
  H   H1662     1.0  0.38927  0.77237  0.97704  1.0000
  H   H1663     1.0  0.45661  0.96723  0.57724  1.0000
  H   H1664     1.0  0.48424  0.96688  0.73138  1.0000
  C   C1397     1.0  0.42171  0.98471  0.86083  1.0000
  H   H1665     1.0  0.45998  0.78228  0.86582  1.0000
  C   C1398     1.0  0.41649  0.96803  0.75606  1.0000
  C   C1399     1.0  0.52194  0.99019  0.81026  1.0000
  H   H1666     1.0  0.51947  0.97420  0.72247  1.0000
  H   H1667     1.0  0.37078  0.88082  0.58164  1.0000
  H   H1668     1.0  0.39390  0.92193  0.50259  1.0000
  C   C1400     1.0  0.46388  0.84161  0.97736  1.0000
  H   H1669     1.0  0.43473  0.77147  0.71258  1.0000
  H   H1670     1.0  0.40622  0.83590  0.98386  1.0000
  C   C1401     1.0  0.47559  0.82097  0.98725  1.0000
  C   C1402     1.0  0.56203  0.95404  0.49339  1.0000
  H   H1671     1.0  0.42064  0.96279  0.73704  1.0000
  C   C1403     1.0  0.37922  0.90310  0.52172  1.0000
  C   C1404     1.0  0.58277  0.97972  0.77183  1.0000
  H   H1672     1.0  0.50288  0.84054  0.97354  1.0000
  H   H1673     1.0  0.51481  0.91159  0.51089  1.0000
  H   H1674     1.0  0.53787  0.99246  0.94225  1.0000
  S   S378      1.0  0.33306  0.81871  0.79533  1.0000
  C   C1405     1.0  0.35490  0.79036  0.97514  1.0000
  H   H1675     1.0  0.51598  0.99052  0.86744  1.0000
  C   C1406     1.0  0.46770  0.77323  0.94800  1.0000
  H   H1676     1.0  0.33652  0.79673  0.65660  1.0000
  H   H1677     1.0  0.48743  0.95121  0.50904  1.0000
  C   C1407     1.0  0.36716  0.79185  0.98335  1.0000
  H   H1678     1.0  0.47168  0.75537  0.96932  1.0000
  C   C1408     1.0  0.55987  0.99665  0.77347  1.0000
  H   H1679     1.0  0.51307  0.99478  0.71128  1.0000
  C   C1409     1.0  0.41401  0.83119  0.98684  1.0000
  H   H1680     1.0  0.49705  0.93960  0.51319  1.0000
  Fe  Fe192     1.0  0.33246  0.79729  0.80676  1.0000
  H   H1681     1.0  0.33200  0.82351  0.65486  1.0000
  H   H1682     1.0  0.46914  0.77695  0.97202  1.0000
  H   H1683     1.0  0.43440  0.74948  0.70495  1.0000
  C   C1410     1.0  0.69254  0.19657  0.32711  1.0000
  C   C1411     1.0  0.67584  0.19923  0.24096  1.0000
  H   H1684     1.0  0.71331  0.20281  0.22683  1.0000
  C   C1412     1.0  0.66620  0.22699  0.16881  1.0000
  H   H1685     1.0  0.71166  0.22137  0.25501  1.0000
  C   C1413     1.0  0.69328  0.18563  0.31184  1.0000
  H   H1686     1.0  0.68656  0.19540  0.35450  1.0000
  C   C1414     1.0  0.69923  0.20927  0.30694  1.0000
  H   H1687     1.0  0.69837  0.21751  0.31884  1.0000
  H   H1688     1.0  0.70242  0.21956  0.15228  1.0000
  C   C1415     1.0  0.68867  0.16939  0.37011  1.0000
  H   H1689     1.0  0.68522  0.16287  0.28781  1.0000
  C   C1416     1.0  0.69050  0.20031  0.18290  1.0000
  H   H1690     1.0  0.68536  0.17561  0.38822  1.0000
  S   S379      1.0  0.69660  0.23716  0.19966  1.0000
  N   N96       1.0  0.68564  0.17232  0.33324  1.0000
  C   C1417     1.0  0.69495  0.21397  0.17686  1.0000
  H   H1691     1.0  0.67609  0.23308  0.15288  1.0000
  C   C1418     1.0  0.70107  0.18824  0.27506  1.0000
  H   H1692     1.0  0.69938  0.17076  0.36723  1.0000
  H   H1693     1.0  0.70186  0.18069  0.26039  1.0000
  C   C1419     1.0  0.68826  0.16190  0.31454  1.0000
  H   H1694     1.0  0.66847  0.17838  0.35516  1.0000
  S   S380      1.0  0.67685  0.17558  0.22343  1.0000
  C   C1420     1.0  0.67151  0.17158  0.33869  1.0000
  C   C1421     1.0  0.68104  0.19285  0.21513  1.0000
  C   C1422     1.0  0.70681  0.21148  0.27105  1.0000
  H   H1695     1.0  0.66571  0.21697  0.16490  1.0000
  C   C1423     1.0  0.69028  0.22025  0.20367  1.0000
  H   H1696     1.0  0.69880  0.16205  0.30902  1.0000
  H   H1697     1.0  0.66904  0.17409  0.31146  1.0000
  H   H1698     1.0  0.67700  0.21757  0.25655  1.0000
  C   C1424     1.0  0.70774  0.20099  0.25522  1.0000
  H   H1699     1.0  0.69463  0.19547  0.16282  1.0000
  C   C1425     1.0  0.68063  0.21281  0.23557  1.0000
  H   H1700     1.0  0.68264  0.15200  0.33166  1.0000
  H   H1701     1.0  0.67335  0.19758  0.12492  1.0000
  H   H1702     1.0  0.66726  0.23799  0.10010  1.0000
  H   H1703     1.0  0.67084  0.13876  0.45817  1.0000
  H   H1704     1.0  0.68365  0.15916  0.38593  1.0000
  H   H1705     1.0  0.66590  0.22698  0.19838  1.0000
  H   H1706     1.0  0.66530  0.16164  0.35367  1.0000
  H   H1707     1.0  0.66860  0.19364  0.26593  1.0000
  H   H1708     1.0  0.69850  0.24737  0.02548  1.0000
  C   C1426     1.0  0.70229  0.24890  0.99606  1.0000
  H   H1709     1.0  0.68437  0.23775  0.98771  1.0000
  H   H1710     1.0  0.68021  0.18584  0.76592  1.0000
  S   S381      1.0  0.68921  0.23778  0.91033  1.0000
  H   H1711     1.0  0.68525  0.21485  0.64340  1.0000
  H   H1712     1.0  0.69255  0.22419  0.69349  1.0000
  C   C1427     1.0  0.68388  0.20850  0.67035  1.0000
  C   C1428     1.0  0.67665  0.18695  0.71129  1.0000
  C   C1429     1.0  0.67822  0.19501  0.67631  1.0000
  C   C1430     1.0  0.68111  0.19226  0.73938  1.0000
  C   C1431     1.0  0.68696  0.20570  0.73324  1.0000
  S   S382      1.0  0.71360  0.23615  0.81726  1.0000
  C   C1432     1.0  0.68809  0.21384  0.69870  1.0000
  Fe  Fe193     1.0  0.70011  0.23204  0.77921  1.0000
  S   S383      1.0  0.68402  0.23787  0.81349  1.0000
  S   S384      1.0  0.69276  0.21165  0.76959  1.0000
  H   H1713     1.0  0.67241  0.17657  0.71635  1.0000
  H   H1714     1.0  0.66539  0.21412  0.61611  1.0000
  C   C1433     1.0  0.69923  0.24507  0.93646  1.0000
  H   H1715     1.0  0.66880  0.24831  0.93969  1.0000
  H   H1716     1.0  0.67401  0.20951  0.89109  1.0000
  H   H1717     1.0  0.68209  0.24717  0.72784  1.0000
  S   S385      1.0  0.66549  0.14437  0.53068  1.0000
  C   C1434     1.0  0.69431  0.24342  0.97462  1.0000
  H   H1718     1.0  0.66647  0.22040  0.77517  1.0000
  Fe  Fe194     1.0  0.69780  0.24323  0.84863  1.0000
  S   S386      1.0  0.67370  0.18879  0.63877  1.0000
  H   H1719     1.0  0.66783  0.23356  0.69813  1.0000
  H   H1720     1.0  0.66953  0.20830  0.83149  1.0000
  C   C1435     1.0  0.67281  0.24904  0.72549  1.0000
  C   C1436     1.0  0.87083  0.49041  0.24250  1.0000
  H   H1721     1.0  0.81798  0.47922  0.01793  1.0000
  S   S387      1.0  0.93978  0.48323  0.34491  1.0000
  C   C1437     1.0  0.66836  0.44235  0.17935  1.0000
  C   C1438     1.0  0.71309  0.44708  0.32256  1.0000
  S   S388      1.0  0.70210  0.27264  0.15323  1.0000
  H   H1722     1.0  0.72245  0.49594  0.26215  1.0000
  C   C1439     1.0  0.68986  0.32393  0.10217  1.0000
  Fe  Fe195     1.0  0.91087  0.40768  0.32102  1.0000
  S   S389      1.0  0.91206  0.39819  0.27207  1.0000
  S   S390      1.0  0.91388  0.39934  0.37797  1.0000
  Fe  Fe196     1.0  0.90437  0.43090  0.27880  1.0000
  S   S391      1.0  0.90522  0.42383  0.22706  1.0000
  S   S392      1.0  0.89879  0.44959  0.27988  1.0000
  Fe  Fe197     1.0  0.89377  0.40434  0.26396  1.0000
  S   S393      1.0  0.87359  0.39514  0.25517  1.0000
  Fe  Fe198     1.0  0.92341  0.41851  0.23810  1.0000
  S   S394      1.0  0.94031  0.42565  0.18656  1.0000
  S   S395      1.0  0.89184  0.41206  0.31569  1.0000
  S   S396      1.0  0.92342  0.42729  0.28708  1.0000
  Fe  Fe199     1.0  0.82932  0.36131  0.13267  1.0000
  S   S397      1.0  0.82652  0.37798  0.09267  1.0000
  S   S398      1.0  0.84966  0.36430  0.14437  1.0000
  Fe  Fe200     1.0  0.80256  0.34345  0.13190  1.0000
  S   S399      1.0  0.79830  0.35903  0.09141  1.0000
  S   S400      1.0  0.78849  0.32316  0.15510  1.0000
  Fe  Fe201     1.0  0.81936  0.36320  0.06190  1.0000
  H   H1723     1.0  0.67869  0.45881  0.30215  1.0000
  Fe  Fe202     1.0  0.80586  0.37222  0.12604  1.0000
  S   S401      1.0  0.79563  0.38759  0.13731  1.0000
  S   S402      1.0  0.82331  0.34665  0.09953  1.0000
  S   S403      1.0  0.80892  0.35651  0.16894  1.0000
  Fe  Fe203     1.0  0.70158  0.42860  0.16958  1.0000
  S   S404      1.0  0.70146  0.44494  0.12362  1.0000
  S   S405      1.0  0.68390  0.41131  0.18943  1.0000
  Fe  Fe204     1.0  0.72748  0.44357  0.18171  1.0000
  S   S406      1.0  0.72917  0.46100  0.13651  1.0000
  S   S407      1.0  0.74222  0.44214  0.21685  1.0000
  Fe  Fe205     1.0  0.70758  0.45787  0.16067  1.0000
  S   S408      1.0  0.69823  0.47443  0.16781  1.0000
  Fe  Fe206     1.0  0.72282  0.44625  0.10462  1.0000
  S   S409      1.0  0.73343  0.44684  0.04673  1.0000
  S   S410      1.0  0.70632  0.44142  0.20811  1.0000
  S   S411      1.0  0.72254  0.42890  0.14826  1.0000
  Fe  Fe207     1.0  0.84382  0.47385  0.20175  1.0000
  S   S412      1.0  0.82300  0.46154  0.22703  1.0000
  S   S413      1.0  0.85492  0.48094  0.24363  1.0000
  Fe  Fe208     1.0  0.84280  0.46764  0.12584  1.0000
  S   S414      1.0  0.82228  0.45502  0.14534  1.0000
  S   S415      1.0  0.85391  0.46810  0.06835  1.0000
  Fe  Fe209     1.0  0.81832  0.47060  0.17420  1.0000
  S   S416      1.0  0.80061  0.47817  0.16722  1.0000
  Fe  Fe210     1.0  0.82852  0.44701  0.19600  1.0000
  S   S417      1.0  0.82554  0.42557  0.21972  1.0000
  S   S418      1.0  0.83868  0.48412  0.15082  1.0000
  S   S419      1.0  0.84943  0.45844  0.17469  1.0000
  C   C1440     1.0  0.84486  0.46970  0.03433  1.0000
  C   C1441     1.0  0.83350  0.47402  0.04078  1.0000
  C   C1442     1.0  0.96699  0.47248  0.28341  1.0000
  H   H1724     1.0  0.74643  0.48978  0.22543  1.0000
  H   H1725     1.0  0.91674  0.49248  0.43950  1.0000
  H   H1726     1.0  0.83025  0.47650  0.06678  1.0000
  C   C1443     1.0  0.75524  0.29917  0.14423  1.0000
  H   H1727     1.0  0.98442  0.45241  0.11958  1.0000
  C   C1444     1.0  0.75835  0.45234  0.20309  1.0000
  C   C1445     1.0  0.76167  0.46430  0.17705  1.0000
  C   C1446     1.0  0.77460  0.47220  0.16692  1.0000
  C   C1447     1.0  0.78440  0.46810  0.18199  1.0000
  C   C1448     1.0  0.78112  0.45608  0.20770  1.0000
  C   C1449     1.0  0.76810  0.44834  0.21868  1.0000
  H   H1728     1.0  0.75427  0.46751  0.16494  1.0000
  H   H1729     1.0  0.77708  0.48150  0.14698  1.0000
  H   H1730     1.0  0.78858  0.45283  0.21954  1.0000
  H   H1731     1.0  0.76560  0.43912  0.23894  1.0000
  C   C1450     1.0  0.80418  0.39825  0.15942  1.0000
  C   C1451     1.0  0.81385  0.39488  0.17623  1.0000
  C   C1452     1.0  0.82025  0.40325  0.19509  1.0000
  C   C1453     1.0  0.81739  0.41525  0.19593  1.0000
  C   C1454     1.0  0.80789  0.41873  0.17853  1.0000
  C   C1455     1.0  0.80116  0.41014  0.16076  1.0000
  H   H1732     1.0  0.81619  0.38568  0.17544  1.0000
  H   H1733     1.0  0.82746  0.40042  0.20888  1.0000
  H   H1734     1.0  0.80542  0.42783  0.17989  1.0000
  H   H1735     1.0  0.79357  0.41267  0.14821  1.0000
  C   C1456     1.0  0.76322  0.36506  0.20923  1.0000
  H   H1736     1.0  0.87424  0.44700  0.26060  1.0000
  H   H1737     1.0  0.70471  0.48031  0.30000  1.0000
  H   H1738     1.0  0.77284  0.33623  0.11279  1.0000
  C   C1457     1.0  0.82154  0.43557  0.03011  1.0000
  C   C1458     1.0  0.77370  0.31742  0.14182  1.0000
  C   C1459     1.0  0.68323  0.42786  0.05694  1.0000
  C   C1460     1.0  0.76723  0.30403  0.15299  1.0000
  H   H1739     1.0  0.87009  0.42608  0.31618  1.0000
  H   H1740     1.0  0.77153  0.29735  0.16854  1.0000
  H   H1741     1.0  0.79872  0.33806  0.27384  1.0000
  C   C1461     1.0  0.70280  0.44976  0.34563  1.0000
  C   C1462     1.0  0.69749  0.30724  0.13785  1.0000
  C   C1463     1.0  0.97516  0.43875  0.21226  1.0000
  C   C1464     1.0  0.93827  0.48008  0.19251  1.0000
  C   C1465     1.0  0.77310  0.35059  0.17975  1.0000
  C   C1466     1.0  0.68311  0.48539  0.21326  1.0000
  C   C1467     1.0  0.68878  0.47493  0.21101  1.0000
  C   C1468     1.0  0.68703  0.46528  0.24320  1.0000
  C   C1469     1.0  0.72070  0.45648  0.29081  1.0000
  N   N97       1.0  0.86076  0.35596  0.03407  1.0000
  C   C1470     1.0  0.97817  0.44711  0.14648  1.0000
  H   H1742     1.0  0.69126  0.45715  0.24202  1.0000
  C   C1471     1.0  0.86728  0.38661  0.22379  1.0000
  C   C1472     1.0  0.85376  0.38403  0.22566  1.0000
  C   C1473     1.0  0.84824  0.37752  0.20107  1.0000
  C   C1474     1.0  0.85616  0.37324  0.17471  1.0000
  C   C1475     1.0  0.86968  0.37585  0.17275  1.0000
  C   C1476     1.0  0.87524  0.38259  0.19689  1.0000
  H   H1743     1.0  0.84748  0.38705  0.24637  1.0000
  H   H1744     1.0  0.83784  0.37556  0.20306  1.0000
  H   H1745     1.0  0.87591  0.37255  0.15260  1.0000
  H   H1746     1.0  0.88563  0.38447  0.19507  1.0000
  C   C1477     1.0  0.91386  0.40813  0.41330  1.0000
  C   C1478     1.0  0.91061  0.42007  0.40934  1.0000
  C   C1479     1.0  0.91065  0.42678  0.43789  1.0000
  H   H1747     1.0  0.76018  0.36809  0.23537  1.0000
  H   H1748     1.0  0.73121  0.48020  0.18786  1.0000
  H   H1749     1.0  0.95735  0.49465  0.17293  1.0000
  H   H1750     1.0  0.90800  0.42410  0.38430  1.0000
  H   H1751     1.0  0.90815  0.43603  0.43431  1.0000
  H   H1752     1.0  0.75733  0.44127  0.00716  1.0000
  H   H1753     1.0  0.96112  0.44149  0.12525  1.0000
  C   C1480     1.0  0.81207  0.34748  0.98937  1.0000
  S   S420      1.0  0.72586  0.26225  0.00589  1.0000
  C   C1481     1.0  0.87499  0.48959  0.27580  1.0000
  C   C1482     1.0  0.67796  0.31593  0.09935  1.0000
  H   H1754     1.0  0.78475  0.46786  0.08412  1.0000
  H   H1755     1.0  0.69157  0.42697  0.00223  1.0000
  H   H1756     1.0  0.80952  0.35994  0.27979  1.0000
  H   H1757     1.0  0.93312  0.49185  0.41885  1.0000
  C   C1483     1.0  0.92283  0.48595  0.43093  1.0000
  H   H1758     1.0  0.69184  0.43492  0.05822  1.0000
  C   C1484     1.0  0.67992  0.46626  0.27736  1.0000
  C   C1485     1.0  0.78619  0.36788  0.23747  1.0000
  C   C1486     1.0  0.92765  0.47364  0.32952  1.0000
  C   C1487     1.0  0.92520  0.46006  0.33844  1.0000
  C   C1488     1.0  0.91575  0.45254  0.32487  1.0000
  C   C1489     1.0  0.90886  0.45859  0.30224  1.0000
  C   C1490     1.0  0.91085  0.47208  0.29490  1.0000
  C   C1491     1.0  0.92035  0.47960  0.30810  1.0000
  H   H1759     1.0  0.93063  0.45534  0.35555  1.0000
  H   H1760     1.0  0.91378  0.44207  0.33201  1.0000
  H   H1761     1.0  0.90538  0.47679  0.27792  1.0000
  C   C1492     1.0  0.66638  0.27072  0.07611  1.0000
  C   C1493     1.0  0.67399  0.38692  0.10685  1.0000
  H   H1762     1.0  0.92914  0.46407  0.42424  1.0000
  H   H1763     1.0  0.75150  0.32782  0.09861  1.0000
  H   H1764     1.0  0.91982  0.39382  0.44937  1.0000
  C   C1494     1.0  0.71279  0.32795  0.10856  1.0000
  C   C1495     1.0  0.85628  0.36797  0.03504  1.0000
  H   H1765     1.0  0.90105  0.47104  0.48461  1.0000
  H   H1766     1.0  0.70033  0.46254  0.99241  1.0000
  H   H1767     1.0  0.97915  0.43757  0.23644  1.0000
  C   C1496     1.0  0.88697  0.49769  0.27727  1.0000
  H   H1768     1.0  0.71052  0.33166  0.13390  1.0000
  C   C1497     1.0  0.90826  0.46631  0.47139  1.0000
  H   H1769     1.0  0.80232  0.45221  0.02540  1.0000
  C   C1498     1.0  0.74004  0.48222  0.25013  1.0000
  N   N98       1.0  0.72630  0.47860  0.24696  1.0000
  H   H1770     1.0  0.69319  0.39738  0.07281  1.0000
  N   N99       1.0  0.92180  0.47487  0.46229  1.0000
  C   C1499     1.0  0.91995  0.49022  0.20178  1.0000
  C   C1500     1.0  0.76887  0.44405  0.04700  1.0000
  H   H1771     1.0  0.70597  0.30322  0.14157  1.0000
  H   H1772     1.0  0.77282  0.47967  0.00338  1.0000
  H   H1773     1.0  0.85140  0.34748  0.09203  1.0000
  Fe  Fe211     1.0  0.70550  0.25326  0.14634  1.0000
  C   C1501     1.0  0.86578  0.45132  0.26519  1.0000
  H   H1774     1.0  0.86215  0.37453  0.04871  1.0000
  C   C1502     1.0  0.71814  0.46887  0.28097  1.0000
  C   C1503     1.0  0.85233  0.43080  0.30433  1.0000
  N   N100      1.0  0.86483  0.42469  0.16873  1.0000
  C   C1504     1.0  0.85738  0.41965  0.20807  1.0000
  C   C1505     1.0  0.85510  0.42463  0.14567  1.0000
  C   C1506     1.0  0.87270  0.41563  0.15887  1.0000
  C   C1507     1.0  0.87372  0.43776  0.16355  1.0000
  C   C1508     1.0  0.88231  0.43981  0.18721  1.0000
  C   C1509     1.0  0.87437  0.44866  0.13486  1.0000
  C   C1510     1.0  0.89060  0.45210  0.18350  1.0000
  C   C1511     1.0  0.88265  0.46093  0.13151  1.0000
  C   C1512     1.0  0.89068  0.46268  0.15594  1.0000
  H   H1775     1.0  0.85249  0.42689  0.21772  1.0000
  H   H1776     1.0  0.84965  0.41049  0.21226  1.0000
  H   H1777     1.0  0.86360  0.41716  0.22715  1.0000
  H   H1778     1.0  0.84821  0.41479  0.15137  1.0000
  H   H1779     1.0  0.85987  0.42723  0.11554  1.0000
  H   H1780     1.0  0.84900  0.43145  0.15157  1.0000
  H   H1781     1.0  0.86637  0.40579  0.16088  1.0000
  H   H1782     1.0  0.87889  0.41934  0.13005  1.0000
  H   H1783     1.0  0.87933  0.41419  0.17764  1.0000
  H   H1784     1.0  0.88263  0.43189  0.20890  1.0000
  H   H1785     1.0  0.86833  0.44810  0.11518  1.0000
  H   H1786     1.0  0.89692  0.45341  0.20234  1.0000
  H   H1787     1.0  0.88265  0.46918  0.11009  1.0000
  H   H1788     1.0  0.89696  0.47225  0.15348  1.0000
  H   H1789     1.0  0.68238  0.26505  0.04561  1.0000
  C   C1513     1.0  0.97350  0.46657  0.25871  1.0000
  C   C1514     1.0  0.91714  0.40966  0.47493  1.0000
  C   C1515     1.0  0.98800  0.48767  0.22536  1.0000
  H   H1790     1.0  0.96557  0.48986  0.29964  1.0000
  C   C1516     1.0  0.81395  0.41201  0.04379  1.0000
  H   H1791     1.0  0.74442  0.47375  0.25226  1.0000
  C   C1517     1.0  0.81816  0.42347  0.05518  1.0000
  H   H1792     1.0  0.90952  0.48925  0.21028  1.0000
  C   C1518     1.0  0.67934  0.34205  0.09879  1.0000
  H   H1793     1.0  0.71516  0.43765  0.32911  1.0000
  C   C1519     1.0  0.68032  0.40196  0.15737  1.0000
  H   H1794     1.0  0.68979  0.29894  0.13555  1.0000
  C   C1520     1.0  0.76713  0.44340  0.01163  1.0000
  H   H1795     1.0  0.66979  0.43767  0.25103  1.0000
  C   C1521     1.0  0.98394  0.47417  0.22963  1.0000
  H   H1796     1.0  0.69884  0.34412  0.10352  1.0000
  C   C1522     1.0  0.71442  0.45517  0.01764  1.0000
  H   H1797     1.0  0.67634  0.45002  0.18345  1.0000
  H   H1798     1.0  0.81168  0.40298  0.06455  1.0000
  Fe  Fe212     1.0  0.69433  0.27277  0.10264  1.0000
  H   H1799     1.0  0.81897  0.42289  0.08357  1.0000
  C   C1523     1.0  0.96183  0.43289  0.21577  1.0000
  H   H1800     1.0  0.81205  0.38637  0.03729  1.0000
  N   N101      1.0  0.78388  0.44743  0.09088  1.0000
  C   C1524     1.0  0.79216  0.43864  0.10098  1.0000
  C   C1525     1.0  0.79077  0.46093  0.09029  1.0000
  C   C1526     1.0  0.77164  0.44341  0.12078  1.0000
  C   C1527     1.0  0.78160  0.44691  0.05377  1.0000
  H   H1801     1.0  0.98888  0.46959  0.21007  1.0000
  C   C1528     1.0  0.80436  0.38833  0.02291  1.0000
  H   H1802     1.0  0.71657  0.33631  0.08378  1.0000
  H   H1803     1.0  0.93019  0.45842  0.47089  1.0000
  N   N102      1.0  0.80937  0.40048  0.99290  1.0000
  H   H1804     1.0  0.80229  0.44211  0.08330  1.0000
  H   H1805     1.0  0.79321  0.43802  0.12996  1.0000
  H   H1806     1.0  0.78792  0.42858  0.09857  1.0000
  H   H1807     1.0  0.80029  0.46456  0.06937  1.0000
  H   H1808     1.0  0.79308  0.46160  0.11738  1.0000
  C   C1529     1.0  0.82655  0.47553  0.01313  1.0000
  H   H1809     1.0  0.76590  0.43334  0.12264  1.0000
  H   H1810     1.0  0.77373  0.44345  0.14843  1.0000
  H   H1811     1.0  0.76530  0.45020  0.11685  1.0000
  H   H1812     1.0  0.80994  0.34367  0.01906  1.0000
  H   H1813     1.0  0.76004  0.44232  0.06841  1.0000
  H   H1814     1.0  0.70730  0.32158  0.04570  1.0000
  H   H1815     1.0  0.86776  0.35684  0.08376  1.0000
  C   C1530     1.0  0.72596  0.47291  0.21436  1.0000
  N   N103      1.0  0.94296  0.46814  0.19352  1.0000
  H   H1816     1.0  0.94227  0.46539  0.25183  1.0000
  H   H1817     1.0  0.94279  0.45108  0.23406  1.0000
  C   C1531     1.0  0.95741  0.47083  0.18126  1.0000
  C   C1532     1.0  0.79235  0.44946  0.02282  1.0000
  S   S421      1.0  0.72626  0.26274  0.11149  1.0000
  H   H1818     1.0  0.92214  0.49003  0.30081  1.0000
  C   C1533     1.0  0.70522  0.31371  0.07131  1.0000
  N   N104      1.0  0.76854  0.35346  0.21600  1.0000
  H   H1819     1.0  0.86875  0.48287  0.30089  1.0000
  H   H1820     1.0  0.79575  0.38876  0.04377  1.0000
  C   C1534     1.0  0.97107  0.48595  0.27959  1.0000
  C   C1535     1.0  0.67600  0.48637  0.24751  1.0000
  H   H1821     1.0  0.73058  0.46465  0.21527  1.0000
  H   H1822     1.0  0.67694  0.30578  0.09922  1.0000
  H   H1823     1.0  0.69195  0.46388  0.35469  1.0000
  H   H1824     1.0  0.67295  0.43459  0.17220  1.0000
  H   H1825     1.0  0.96063  0.46166  0.18306  1.0000
  H   H1826     1.0  0.71571  0.46923  0.21260  1.0000
  C   C1536     1.0  0.91383  0.42160  0.47094  1.0000
  C   C1537     1.0  0.98341  0.44583  0.17761  1.0000
  H   H1827     1.0  0.75474  0.34343  0.26793  1.0000
  C   C1538     1.0  0.96495  0.44088  0.14977  1.0000
  H   H1828     1.0  0.69685  0.44242  0.37010  1.0000
  C   C1539     1.0  0.82058  0.43629  0.99364  1.0000
  C   C1540     1.0  0.69025  0.33722  0.10170  1.0000
  C   C1541     1.0  0.93717  0.46065  0.16890  1.0000
  C   C1542     1.0  0.75587  0.32112  0.11373  1.0000
  H   H1829     1.0  0.71302  0.45995  0.04023  1.0000
  H   H1830     1.0  0.82503  0.44442  0.03884  1.0000
  H   H1831     1.0  0.96237  0.47625  0.19903  1.0000
  H   H1832     1.0  0.75455  0.36314  0.19723  1.0000
  S   S422      1.0  0.67580  0.27900  0.10163  1.0000
  C   C1543     1.0  0.74942  0.30772  0.12479  1.0000
  C   C1544     1.0  0.95673  0.43368  0.18434  1.0000
  C   C1545     1.0  0.75758  0.34229  0.23909  1.0000
  H   H1833     1.0  0.72857  0.45391  0.27383  1.0000
  H   H1834     1.0  0.84155  0.39341  0.30827  1.0000
  H   H1835     1.0  0.91757  0.46971  0.21241  1.0000
  H   H1836     1.0  0.84593  0.36554  0.05080  1.0000
  C   C1546     1.0  0.84445  0.40373  0.30733  1.0000
  H   H1837     1.0  0.77050  0.37349  0.18870  1.0000
  H   H1838     1.0  0.86480  0.34108  0.07373  1.0000
  H   H1839     1.0  0.67191  0.49461  0.24904  1.0000
  H   H1840     1.0  0.95564  0.42728  0.24248  1.0000
  H   H1841     1.0  0.85781  0.46322  0.99533  1.0000
  H   H1842     1.0  0.74875  0.34132  0.22758  1.0000
  N   N105      1.0  0.70118  0.31842  0.10496  1.0000
  H   H1843     1.0  0.71165  0.48863  0.23608  1.0000
  H   H1844     1.0  0.82736  0.40769  0.29124  1.0000
  H   H1845     1.0  0.93918  0.46682  0.14032  1.0000
  H   H1846     1.0  0.75038  0.28886  0.15315  1.0000
  H   H1847     1.0  0.69375  0.31017  0.16364  1.0000
  S   S423      1.0  0.71364  0.28356  0.06438  1.0000
  H   H1848     1.0  0.80176  0.37905  0.25579  1.0000
  H   H1849     1.0  0.69867  0.41077  0.11705  1.0000
  C   C1547     1.0  0.70760  0.47130  0.30524  1.0000
  H   H1850     1.0  0.69759  0.30533  0.06902  1.0000
  H   H1851     1.0  0.72106  0.32343  0.11100  1.0000
  Fe  Fe213     1.0  0.72197  0.28213  0.11467  1.0000
  C   C1548     1.0  0.68303  0.42312  0.02511  1.0000
  C   C1549     1.0  0.77956  0.35540  0.23426  1.0000
  C   C1550     1.0  0.68930  0.40365  0.12373  1.0000
  H   H1852     1.0  0.86601  0.45805  0.33164  1.0000
  H   H1853     1.0  0.85780  0.44174  0.35907  1.0000
  C   C1551     1.0  0.70733  0.45672  0.99041  1.0000
  H   H1854     1.0  0.91952  0.48252  0.40747  1.0000
  H   H1855     1.0  0.84143  0.45200  0.28147  1.0000
  H   H1856     1.0  0.83775  0.44568  0.33123  1.0000
  C   C1552     1.0  0.86371  0.44754  0.33113  1.0000
  H   H1857     1.0  0.78362  0.37671  0.22658  1.0000
  H   H1858     1.0  0.83386  0.43081  0.28791  1.0000
  C   C1553     1.0  0.91712  0.40296  0.44628  1.0000
  H   H1859     1.0  0.95872  0.46661  0.30579  1.0000
  C   C1554     1.0  0.84565  0.45116  0.30619  1.0000
  H   H1860     1.0  0.87340  0.44535  0.32645  1.0000
  C   C1555     1.0  0.76799  0.32593  0.12180  1.0000
  N   N106      1.0  0.85672  0.44496  0.30190  1.0000
  H   H1861     1.0  0.86981  0.46194  0.26233  1.0000
  H   H1862     1.0  0.84878  0.46136  0.30896  1.0000
  H   H1863     1.0  0.78115  0.35886  0.16140  1.0000
  H   H1864     1.0  0.86269  0.40280  0.32089  1.0000
  H   H1865     1.0  0.67978  0.35222  0.09846  1.0000
  C   C1556     1.0  0.72189  0.49074  0.23955  1.0000
  C   C1557     1.0  0.72356  0.44778  0.01501  1.0000
  H   H1866     1.0  0.88985  0.49708  0.30325  1.0000
  C   C1558     1.0  0.86044  0.42242  0.31223  1.0000
  H   H1867     1.0  0.97035  0.45611  0.26188  1.0000
  H   H1868     1.0  0.86082  0.45027  0.24231  1.0000
  C   C1559     1.0  0.84034  0.42510  0.29630  1.0000
  C   C1560     1.0  0.85638  0.40906  0.31448  1.0000
  H   H1869     1.0  0.71424  0.31024  0.07140  1.0000
  C   C1561     1.0  0.79676  0.36941  0.25409  1.0000
  C   C1562     1.0  0.79503  0.34634  0.26437  1.0000
  C   C1563     1.0  0.78446  0.34470  0.24772  1.0000
  H   H1870     1.0  0.92641  0.45657  0.17924  1.0000
  H   H1871     1.0  0.90541  0.46388  0.44622  1.0000
  C   C1564     1.0  0.83648  0.41175  0.29797  1.0000
  S   S424      1.0  0.67034  0.37752  0.07501  1.0000
  H   H1872     1.0  0.76004  0.33276  0.24045  1.0000
  Fe  Fe214     1.0  0.71664  0.26382  0.06324  1.0000
  H   H1873     1.0  0.76513  0.34881  0.16504  1.0000
  H   H1874     1.0  0.77692  0.34177  0.18270  1.0000
  H   H1875     1.0  0.78051  0.33505  0.24421  1.0000
  C   C1565     1.0  0.98187  0.49396  0.25074  1.0000
  C   C1566     1.0  0.70010  0.46185  0.33705  1.0000
  C   C1567     1.0  0.67200  0.26435  0.05096  1.0000
  H   H1876     1.0  0.66512  0.44674  0.15484  1.0000
  S   S425      1.0  0.73380  0.30241  0.11551  1.0000
  H   H1877     1.0  0.94123  0.45212  0.16670  1.0000
  C   C1568     1.0  0.80116  0.35867  0.26758  1.0000
  C   C1569     1.0  0.93887  0.45987  0.23190  1.0000
  H   H1878     1.0  0.66630  0.42278  0.23669  1.0000
  H   H1879     1.0  0.84446  0.33046  0.06663  1.0000
  H   H1880     1.0  0.92807  0.45612  0.24175  1.0000
  C   C1570     1.0  0.67457  0.47691  0.27982  1.0000
  C   C1571     1.0  0.68618  0.39606  0.09871  1.0000
  H   H1881     1.0  0.96114  0.47643  0.15181  1.0000
  S   S426      1.0  0.82712  0.36989  0.00006  1.0000
  C   C1572     1.0  0.66781  0.33387  0.09634  1.0000
  H   H1882     1.0  0.68436  0.49287  0.18848  1.0000
  H   H1883     1.0  0.74069  0.48609  0.27516  1.0000
  C   C1573     1.0  0.84908  0.46667  0.00030  1.0000
  H   H1884     1.0  0.68373  0.39550  0.00501  1.0000
  C   C1574     1.0  0.94686  0.49287  0.18126  1.0000
  H   H1885     1.0  0.85679  0.37373  0.00694  1.0000
  C   C1575     1.0  0.67208  0.41357  0.02290  1.0000
  C   C1576     1.0  0.86118  0.35000  0.07243  1.0000
  C   C1577     1.0  0.81301  0.41240  0.00660  1.0000
  C   C1578     1.0  0.92466  0.47911  0.20286  1.0000
  H   H1886     1.0  0.67283  0.42680  0.11228  1.0000
  C   C1579     1.0  0.66713  0.32085  0.09662  1.0000
  H   H1887     1.0  0.83033  0.31693  0.03836  1.0000
  C   C1580     1.0  0.84444  0.33445  0.03827  1.0000
  S   S427      1.0  0.66704  0.47840  0.32406  1.0000
  H   H1888     1.0  0.66783  0.25175  0.14708  1.0000
  H   H1889     1.0  0.94133  0.47335  0.44207  1.0000
  N   N107      1.0  0.67223  0.40856  0.98901  1.0000
  S   S428      1.0  0.69644  0.25300  0.09772  1.0000
  C   C1581     1.0  0.85203  0.34719  0.01814  1.0000
  C   C1582     1.0  0.66818  0.39273  0.16566  1.0000
  C   C1583     1.0  0.83625  0.32649  0.02230  1.0000
  C   C1584     1.0  0.93102  0.46736  0.44941  1.0000
  H   H1890     1.0  0.99596  0.49314  0.20180  1.0000
  C   C1585     1.0  0.67249  0.42336  0.08731  1.0000
  H   H1891     1.0  0.88126  0.36582  0.02279  1.0000
  H   H1892     1.0  0.72803  0.49775  0.21343  1.0000
  H   H1893     1.0  0.80137  0.37958  0.01185  1.0000
  H   H1894     1.0  0.66858  0.25204  0.01330  1.0000
  C   C1586     1.0  0.87432  0.35967  0.01073  1.0000
  H   H1895     1.0  0.87782  0.35085  0.00788  1.0000
  H   H1896     1.0  0.96556  0.49801  0.47103  1.0000
  H   H1897     1.0  0.79040  0.40320  0.98956  1.0000
  C   C1587     1.0  0.79049  0.44870  0.98770  1.0000
  C   C1588     1.0  0.98114  0.44586  0.67601  1.0000
  H   H1898     1.0  0.95571  0.48833  0.79637  1.0000
  S   S429      1.0  0.70532  0.26404  0.81643  1.0000
  S   S430      1.0  0.94677  0.48901  0.68372  1.0000
  H   H1899     1.0  0.81880  0.39055  0.95580  1.0000
  H   H1900     1.0  0.97996  0.43612  0.63133  1.0000
  Fe  Fe215     1.0  0.91458  0.42440  0.56639  1.0000
  S   S431      1.0  0.92160  0.40883  0.59951  1.0000
  C   C1589     1.0  0.82109  0.39923  0.96757  1.0000
  Fe  Fe216     1.0  0.90744  0.43535  0.63385  1.0000
  S   S432      1.0  0.91360  0.42069  0.67223  1.0000
  S   S433      1.0  0.89972  0.45144  0.65134  1.0000
  Fe  Fe217     1.0  0.93131  0.42456  0.62524  1.0000
  Fe  Fe218     1.0  0.90331  0.40642  0.64411  1.0000
  S   S434      1.0  0.89013  0.38688  0.67963  1.0000
  S   S435      1.0  0.92558  0.44013  0.58852  1.0000
  S   S436      1.0  0.89583  0.42097  0.60946  1.0000
  H   H1901     1.0  0.77635  0.30880  0.75153  1.0000
  H   H1902     1.0  0.74252  0.28930  0.70158  1.0000
  H   H1903     1.0  0.68245  0.42720  0.95111  1.0000
  H   H1904     1.0  0.97312  0.46323  0.54297  1.0000
  Fe  Fe219     1.0  0.81250  0.35544  0.76175  1.0000
  S   S437      1.0  0.79256  0.35790  0.75688  1.0000
  S   S438      1.0  0.82839  0.36520  0.70828  1.0000
  Fe  Fe220     1.0  0.80269  0.34372  0.84471  1.0000
  S   S439      1.0  0.78252  0.34596  0.84560  1.0000
  S   S440      1.0  0.80493  0.33388  0.90045  1.0000
  Fe  Fe221     1.0  0.78405  0.33781  0.79488  1.0000
  S   S441      1.0  0.76418  0.32396  0.79862  1.0000
  Fe  Fe222     1.0  0.79254  0.36555  0.80781  1.0000
  S   S442      1.0  0.78608  0.38395  0.80999  1.0000
  S   S443      1.0  0.80397  0.33450  0.79580  1.0000
  S   S444      1.0  0.81273  0.36415  0.81101  1.0000
  Fe  Fe223     1.0  0.70160  0.44224  0.80266  1.0000
  S   S445      1.0  0.70729  0.42323  0.80575  1.0000
  S   S446      1.0  0.69488  0.45020  0.75186  1.0000
  Fe  Fe224     1.0  0.70322  0.44244  0.88163  1.0000
  S   S447      1.0  0.70814  0.42324  0.89145  1.0000
  S   S448      1.0  0.70040  0.45320  0.92662  1.0000
  Fe  Fe225     1.0  0.72217  0.43157  0.83549  1.0000
  S   S449      1.0  0.74199  0.42728  0.83407  1.0000
  Fe  Fe226     1.0  0.69294  0.41679  0.86111  1.0000
  S   S450      1.0  0.67714  0.39781  0.88446  1.0000
  S   S451      1.0  0.71791  0.45126  0.82702  1.0000
  S   S452      1.0  0.68661  0.43530  0.85669  1.0000
  Fe  Fe227     1.0  0.82362  0.44323  0.86148  1.0000
  S   S453      1.0  0.83986  0.45685  0.87496  1.0000
  S   S454      1.0  0.82234  0.42188  0.87853  1.0000
  Fe  Fe228     1.0  0.81279  0.46490  0.82782  1.0000
  S   S455      1.0  0.82857  0.48061  0.83724  1.0000
  S   S456      1.0  0.79613  0.46997  0.80448  1.0000
  Fe  Fe229     1.0  0.84253  0.46915  0.81764  1.0000
  S   S457      1.0  0.86378  0.47444  0.78505  1.0000
  Fe  Fe230     1.0  0.82485  0.46712  0.89339  1.0000
  S   S458      1.0  0.82145  0.47434  0.94582  1.0000
  S   S459      1.0  0.82712  0.45461  0.80300  1.0000
  S   S460      1.0  0.80821  0.45232  0.88528  1.0000
  H   H1905     1.0  0.72723  0.26279  0.62965  1.0000
  H   H1906     1.0  0.97005  0.49834  0.59875  1.0000
  C   C1590     1.0  0.75684  0.43939  0.82626  1.0000
  C   C1591     1.0  0.75849  0.45228  0.80721  1.0000
  C   C1592     1.0  0.77067  0.46147  0.79999  1.0000
  C   C1593     1.0  0.78118  0.45798  0.81256  1.0000
  C   C1594     1.0  0.77947  0.44514  0.83196  1.0000
  C   C1595     1.0  0.76739  0.43588  0.83849  1.0000
  H   H1907     1.0  0.75050  0.45507  0.79723  1.0000
  H   H1908     1.0  0.77196  0.47135  0.78455  1.0000
  H   H1909     1.0  0.78749  0.44229  0.84162  1.0000
  H   H1910     1.0  0.76625  0.42597  0.85332  1.0000
  H   H1911     1.0  0.82888  0.32480  0.97390  1.0000
  H   H1912     1.0  0.86566  0.47048  0.88932  1.0000
  H   H1913     1.0  0.67221  0.41573  0.76176  1.0000
  C   C1596     1.0  0.70931  0.45087  0.96051  1.0000
  C   C1597     1.0  0.71835  0.44334  0.95810  1.0000
  H   H1914     1.0  0.90711  0.45667  0.49017  1.0000
  C   C1598     1.0  0.71918  0.29048  0.73672  1.0000
  H   H1915     1.0  0.67364  0.25508  0.85560  1.0000
  H   H1916     1.0  0.72005  0.43890  0.93500  1.0000
  C   C1599     1.0  0.75304  0.45731  0.89990  1.0000
  C   C1600     1.0  0.79543  0.39436  0.83109  1.0000
  C   C1601     1.0  0.80229  0.38946  0.85586  1.0000
  C   C1602     1.0  0.81024  0.39797  0.87113  1.0000
  C   C1603     1.0  0.81148  0.41141  0.86135  1.0000
  C   C1604     1.0  0.80439  0.41631  0.83729  1.0000
  C   C1605     1.0  0.79631  0.40777  0.82232  1.0000
  H   H1917     1.0  0.80150  0.37910  0.86319  1.0000
  H   H1918     1.0  0.81571  0.39413  0.88973  1.0000
  H   H1919     1.0  0.80525  0.42668  0.82982  1.0000
  H   H1920     1.0  0.79101  0.41161  0.80319  1.0000
  C   C1606     1.0  0.70174  0.49084  0.65894  1.0000
  C   C1607     1.0  0.93100  0.48668  0.55938  1.0000
  C   C1608     1.0  0.74550  0.30131  0.80575  1.0000
  C   C1609     1.0  0.75853  0.30848  0.78913  1.0000
  H   H1921     1.0  0.80251  0.40905  0.94617  1.0000
  H   H1922     1.0  0.87517  0.36542  0.98235  1.0000
  H   H1923     1.0  0.73935  0.30516  0.82460  1.0000
  C   C1610     1.0  0.85085  0.35136  0.98131  1.0000
  C   C1611     1.0  0.90253  0.49646  0.59183  1.0000
  C   C1612     1.0  0.81783  0.35709  0.91230  1.0000
  C   C1613     1.0  0.81026  0.34429  0.92826  1.0000
  H   H1924     1.0  0.96276  0.47853  0.63752  1.0000
  H   H1925     1.0  0.82023  0.36080  0.88259  1.0000
  C   C1614     1.0  0.84196  0.46794  0.97287  1.0000
  C   C1615     1.0  0.75932  0.47971  0.86472  1.0000
  C   C1616     1.0  0.93117  0.49227  0.49415  1.0000
  C   C1617     1.0  0.67617  0.39386  0.81508  1.0000
  H   H1926     1.0  0.95052  0.46203  0.56861  1.0000
  H   H1927     1.0  0.91216  0.38261  0.56917  1.0000
  C   C1618     1.0  0.66921  0.47115  0.72766  1.0000
  H   H1928     1.0  0.75119  0.25685  0.90424  1.0000
  H   H1929     1.0  0.68499  0.40175  0.80461  1.0000
  H   H1930     1.0  0.73532  0.47127  0.90691  1.0000
  C   C1619     1.0  0.76424  0.28934  0.89834  1.0000
  H   H1931     1.0  0.84597  0.36523  0.59231  1.0000
  H   H1932     1.0  0.71101  0.30679  0.69080  1.0000
  H   H1933     1.0  0.74325  0.30554  0.70484  1.0000
  H   H1934     1.0  0.72149  0.28117  0.74752  1.0000
  H   H1935     1.0  0.70833  0.28861  0.74398  1.0000
  C   C1620     1.0  0.86704  0.37163  0.58093  1.0000
  H   H1936     1.0  0.69927  0.28678  0.69306  1.0000
  H   H1937     1.0  0.84516  0.46542  0.94695  1.0000
  C   C1621     1.0  0.68174  0.46594  0.78515  1.0000
  C   C1622     1.0  0.68382  0.46011  0.75532  1.0000
  H   H1938     1.0  0.92014  0.49038  0.68751  1.0000
  H   H1939     1.0  0.68663  0.46410  0.80726  1.0000
  C   C1623     1.0  0.87276  0.38217  0.68991  1.0000
  C   C1624     1.0  0.86585  0.37188  0.72080  1.0000
  C   C1625     1.0  0.85216  0.36700  0.72798  1.0000
  C   C1626     1.0  0.84527  0.37216  0.70368  1.0000
  C   C1627     1.0  0.85215  0.38257  0.67308  1.0000
  C   C1628     1.0  0.86577  0.38774  0.66660  1.0000
  H   H1940     1.0  0.87117  0.36746  0.73888  1.0000
  H   H1941     1.0  0.84703  0.35888  0.75137  1.0000
  H   H1942     1.0  0.84694  0.38651  0.65384  1.0000
  H   H1943     1.0  0.87090  0.39561  0.64267  1.0000
  H   H1944     1.0  0.79539  0.48106  0.96984  1.0000
  H   H1945     1.0  0.85302  0.48508  0.88690  1.0000
  H   H1946     1.0  0.88870  0.47329  0.62270  1.0000
  H   H1947     1.0  0.71397  0.47829  0.72998  1.0000
  H   H1948     1.0  0.90196  0.37897  0.61457  1.0000
  C   C1629     1.0  0.75712  0.27607  0.91368  1.0000
  H   H1949     1.0  0.68112  0.26465  0.88277  1.0000
  H   H1950     1.0  0.89147  0.48055  0.75736  1.0000
  C   C1630     1.0  0.75604  0.29456  0.95822  1.0000
  C   C1631     1.0  0.67080  0.38734  0.79054  1.0000
  C   C1632     1.0  0.93284  0.47770  0.68165  1.0000
  C   C1633     1.0  0.93376  0.46543  0.67688  1.0000
  C   C1634     1.0  0.92339  0.45714  0.66870  1.0000
  C   C1635     1.0  0.91187  0.46092  0.66686  1.0000
  C   C1636     1.0  0.91054  0.47274  0.67488  1.0000
  C   C1637     1.0  0.92109  0.48119  0.68187  1.0000
  H   H1951     1.0  0.94271  0.46256  0.67785  1.0000
  H   H1952     1.0  0.92447  0.44796  0.66312  1.0000
  H   H1953     1.0  0.90149  0.47549  0.67512  1.0000
  H   H1954     1.0  0.96426  0.47737  0.51316  1.0000
  C   C1638     1.0  0.77791  0.44563  0.98210  1.0000
  H   H1955     1.0  0.88279  0.47497  0.88407  1.0000
  C   C1639     1.0  0.67381  0.47472  0.78550  1.0000
  N   N108      1.0  0.74874  0.39407  0.80573  1.0000
  C   C1640     1.0  0.75184  0.38230  0.79538  1.0000
  C   C1641     1.0  0.75405  0.40530  0.77298  1.0000
  C   C1642     1.0  0.75576  0.39692  0.83463  1.0000
  C   C1643     1.0  0.73437  0.39190  0.81789  1.0000
  C   C1644     1.0  0.72620  0.38825  0.79422  1.0000
  C   C1645     1.0  0.72809  0.39355  0.85269  1.0000
  C   C1646     1.0  0.71261  0.38603  0.80514  1.0000
  C   C1647     1.0  0.71449  0.39135  0.86324  1.0000
  C   C1648     1.0  0.70678  0.38749  0.83969  1.0000
  H   H1956     1.0  0.74806  0.38005  0.77142  1.0000
  H   H1957     1.0  0.76260  0.38352  0.78710  1.0000
  H   H1958     1.0  0.74774  0.37356  0.81905  1.0000
  H   H1959     1.0  0.75007  0.40352  0.74890  1.0000
  H   H1960     1.0  0.76491  0.40752  0.76374  1.0000
  H   H1961     1.0  0.75162  0.41426  0.77947  1.0000
  H   H1962     1.0  0.75233  0.38881  0.86004  1.0000
  H   H1963     1.0  0.76649  0.39825  0.82489  1.0000
  H   H1964     1.0  0.75459  0.40613  0.84214  1.0000
  H   H1965     1.0  0.73028  0.38720  0.76692  1.0000
  H   H1966     1.0  0.73347  0.39682  0.87197  1.0000
  H   H1967     1.0  0.70654  0.38327  0.78667  1.0000
  H   H1968     1.0  0.70989  0.39282  0.88967  1.0000
  H   H1969     1.0  0.69626  0.38577  0.84810  1.0000
  C   C1649     1.0  0.67237  0.26271  0.87098  1.0000
  H   H1970     1.0  0.74438  0.30175  0.66028  1.0000
  C   C1650     1.0  0.78733  0.47904  0.95666  1.0000
  H   H1971     1.0  0.73037  0.28374  0.81204  1.0000
  C   C1651     1.0  0.70796  0.26560  0.64422  1.0000
  C   C1652     1.0  0.77465  0.47829  0.97539  1.0000
  H   H1972     1.0  0.97470  0.48629  0.72333  1.0000
  C   C1653     1.0  0.73938  0.29807  0.69022  1.0000
  Fe  Fe231     1.0  0.69308  0.25791  0.77807  1.0000
  C   C1654     1.0  0.96046  0.44708  0.71112  1.0000
  H   H1973     1.0  0.72311  0.29757  0.75227  1.0000
  S   S461      1.0  0.74180  0.26907  0.76264  1.0000
  H   H1974     1.0  0.76778  0.47794  0.84648  1.0000
  C   C1655     1.0  0.86422  0.35523  0.64997  1.0000
  C   C1656     1.0  0.92490  0.47375  0.56147  1.0000
  H   H1975     1.0  0.78454  0.31014  0.89414  1.0000
  H   H1976     1.0  0.94597  0.47019  0.60422  1.0000
  C   C1657     1.0  0.72130  0.26837  0.64277  1.0000
  N   N109      1.0  0.84178  0.40465  0.75420  1.0000
  C   C1658     1.0  0.82835  0.40173  0.77799  1.0000
  C   C1659     1.0  0.84057  0.40510  0.71562  1.0000
  C   C1660     1.0  0.84736  0.39365  0.76655  1.0000
  C   C1661     1.0  0.85048  0.41707  0.75576  1.0000
  C   C1662     1.0  0.86364  0.42124  0.73443  1.0000
  C   C1663     1.0  0.84634  0.42531  0.77829  1.0000
  C   C1664     1.0  0.87205  0.43295  0.73527  1.0000
  C   C1665     1.0  0.85485  0.43703  0.77874  1.0000
  C   C1666     1.0  0.86765  0.44086  0.75718  1.0000
  H   H1977     1.0  0.82341  0.40951  0.77014  1.0000
  H   H1978     1.0  0.82193  0.39250  0.77568  1.0000
  H   H1979     1.0  0.82851  0.40051  0.80771  1.0000
  H   H1980     1.0  0.83663  0.41339  0.70503  1.0000
  H   H1981     1.0  0.83389  0.39593  0.71366  1.0000
  H   H1982     1.0  0.85009  0.40619  0.69626  1.0000
  H   H1983     1.0  0.84905  0.39335  0.79477  1.0000
  H   H1984     1.0  0.84072  0.38406  0.76757  1.0000
  H   H1985     1.0  0.85684  0.39426  0.74760  1.0000
  H   H1986     1.0  0.86758  0.41543  0.71705  1.0000
  H   H1987     1.0  0.83661  0.42292  0.79609  1.0000
  H   H1988     1.0  0.88209  0.43587  0.71895  1.0000
  H   H1989     1.0  0.85153  0.44316  0.79615  1.0000
  H   H1990     1.0  0.87418  0.44998  0.75761  1.0000
  S   S462      1.0  0.70853  0.25212  0.74099  1.0000
  H   H1991     1.0  0.66636  0.41874  0.82375  1.0000
  H   H1992     1.0  0.90275  0.36614  0.59028  1.0000
  H   H1993     1.0  0.77665  0.28607  0.81097  1.0000
  H   H1994     1.0  0.97551  0.48232  0.76984  1.0000
  N   N110      1.0  0.76432  0.29951  0.91969  1.0000
  H   H1995     1.0  0.75141  0.27255  0.94206  1.0000
  C   C1667     1.0  0.87205  0.46589  0.66750  1.0000
  H   H1996     1.0  0.68377  0.39872  0.95659  1.0000
  C   C1668     1.0  0.89179  0.39303  0.56871  1.0000
  C   C1669     1.0  0.87849  0.37091  0.59368  1.0000
  C   C1670     1.0  0.66898  0.25924  0.73865  1.0000
  H   H1997     1.0  0.66817  0.43536  0.80252  1.0000
  C   C1671     1.0  0.88157  0.48936  0.63998  1.0000
  C   C1672     1.0  0.75939  0.31008  0.90068  1.0000
  H   H1998     1.0  0.73248  0.43600  0.98338  1.0000
  H   H1999     1.0  0.95149  0.45573  0.61478  1.0000
  H   H2000     1.0  0.73915  0.46642  0.94995  1.0000
  C   C1673     1.0  0.71527  0.25597  0.97948  1.0000
  C   C1674     1.0  0.87480  0.47790  0.87286  1.0000
  H   H2001     1.0  0.75948  0.28688  0.97467  1.0000
  H   H2002     1.0  0.87249  0.45589  0.66876  1.0000
  H   H2003     1.0  0.87627  0.47686  0.84372  1.0000
  H   H2004     1.0  0.68981  0.27012  0.66383  1.0000
  H   H2005     1.0  0.71595  0.25377  0.89027  1.0000
  H   H2006     1.0  0.77836  0.31269  0.93838  1.0000
  N   N111      1.0  0.89148  0.37912  0.57123  1.0000
  C   C1675     1.0  0.88143  0.47610  0.64107  1.0000
  H   H2007     1.0  0.72998  0.26338  0.92804  1.0000
  C   C1676     1.0  0.87669  0.36251  0.62909  1.0000
  H   H2008     1.0  0.75122  0.47814  0.85032  1.0000
  H   H2009     1.0  0.90745  0.49108  0.61053  1.0000
  C   C1677     1.0  0.76634  0.47379  0.92170  1.0000
  C   C1678     1.0  0.85321  0.35616  0.63662  1.0000
  H   H2010     1.0  0.84353  0.35085  0.65358  1.0000
  H   H2011     1.0  0.76721  0.28743  0.73819  1.0000
  S   S463      1.0  0.98200  0.45853  0.73420  1.0000
  C   C1679     1.0  0.66766  0.47752  0.75652  1.0000
  H   H2012     1.0  0.74498  0.45473  0.88587  1.0000
  C   C1680     1.0  0.75692  0.26685  0.89221  1.0000
  C   C1681     1.0  0.95378  0.44051  0.68848  1.0000
  H   H2013     1.0  0.70405  0.49381  0.75800  1.0000
  Fe  Fe232     1.0  0.72046  0.25691  0.78223  1.0000
  C   C1682     1.0  0.96766  0.48574  0.55976  1.0000
  H   H2014     1.0  0.86592  0.48594  0.93374  1.0000
  C   C1683     1.0  0.74809  0.28407  0.77406  1.0000
  C   C1684     1.0  0.74316  0.47317  0.92212  1.0000
  H   H2015     1.0  0.70354  0.25793  0.63225  1.0000
  H   H2016     1.0  0.90392  0.38218  0.51657  1.0000
  H   H2017     1.0  0.86302  0.34918  0.67738  1.0000
  H   H2018     1.0  0.76603  0.31547  0.87330  1.0000
  H   H2019     1.0  0.75623  0.30242  0.97351  1.0000
  N   N112      1.0  0.72492  0.29518  0.69628  1.0000
  C   C1685     1.0  0.86240  0.46852  0.69293  1.0000
  H   H2020     1.0  0.76346  0.26336  0.83847  1.0000
  C   C1686     1.0  0.96073  0.43657  0.65935  1.0000
  H   H2021     1.0  0.73730  0.27939  0.65777  1.0000
  C   C1687     1.0  0.90252  0.37652  0.58708  1.0000
  C   C1688     1.0  0.70582  0.28211  0.67844  1.0000
  H   H2022     1.0  0.88468  0.36169  0.64195  1.0000
  H   H2023     1.0  0.67261  0.47954  0.80804  1.0000
  C   C1689     1.0  0.78964  0.47686  0.92119  1.0000
  H   H2024     1.0  0.93337  0.48954  0.58380  1.0000
  C   C1690     1.0  0.77122  0.28329  0.83972  1.0000
  C   C1691     1.0  0.72700  0.27802  0.65911  1.0000
  H   H2025     1.0  0.90148  0.39964  0.55291  1.0000
  H   H2026     1.0  0.66882  0.27154  0.93027  1.0000
  C   C1692     1.0  0.70931  0.48452  0.71414  1.0000
  H   H2027     1.0  0.95492  0.45008  0.73346  1.0000
  C   C1693     1.0  0.72169  0.30764  0.68290  1.0000
  C   C1694     1.0  0.71938  0.28523  0.67744  1.0000
  H   H2028     1.0  0.72642  0.31553  0.69492  1.0000
  C   C1695     1.0  0.93416  0.49589  0.52579  1.0000
  H   H2029     1.0  0.82896  0.39817  0.98224  1.0000
  H   H2030     1.0  0.96957  0.46507  0.63876  1.0000
  C   C1696     1.0  0.84274  0.34327  0.96553  1.0000
  H   H2031     1.0  0.67206  0.43184  0.73934  1.0000
  H   H2032     1.0  0.67552  0.39028  0.76123  1.0000
  H   H2033     1.0  0.85535  0.46062  0.71401  1.0000
  H   H2034     1.0  0.67887  0.45806  0.70381  1.0000
  C   C1697     1.0  0.70025  0.27248  0.66194  1.0000
  C   C1698     1.0  0.97419  0.44986  0.70506  1.0000
  H   H2035     1.0  0.98878  0.49451  0.73654  1.0000
  C   C1699     1.0  0.96932  0.49770  0.57104  1.0000
  H   H2036     1.0  0.74449  0.48335  0.92546  1.0000
  H   H2037     1.0  0.72501  0.31099  0.65216  1.0000
  C   C1700     1.0  0.76425  0.47567  0.95840  1.0000
  C   C1701     1.0  0.67739  0.46261  0.72685  1.0000
  C   C1702     1.0  0.68373  0.40318  0.98083  1.0000
  H   H2038     1.0  0.79889  0.45078  0.96458  1.0000
  H   H2039     1.0  0.97537  0.45689  0.58707  1.0000
  C   C1703     1.0  0.76634  0.30337  0.76478  1.0000
  N   N113      1.0  0.75560  0.47108  0.90267  1.0000
  H   H2040     1.0  0.92240  0.46660  0.58771  1.0000
  C   C1704     1.0  0.96991  0.47459  0.62083  1.0000
  C   C1705     1.0  0.77932  0.47409  0.90410  1.0000
  H   H2041     1.0  0.86090  0.49224  0.83894  1.0000
  H   H2042     1.0  0.80153  0.32962  0.97937  1.0000
  C   C1706     1.0  0.82280  0.36494  0.93467  1.0000
  C   C1707     1.0  0.77138  0.29263  0.86075  1.0000
  S   S464      1.0  0.95290  0.42900  0.62829  1.0000
  H   H2043     1.0  0.77653  0.44524  0.95465  1.0000
  H   H2044     1.0  0.75023  0.45052  0.92783  1.0000
  H   H2045     1.0  0.79950  0.47724  0.90693  1.0000
  N   N114      1.0  0.87419  0.49138  0.87469  1.0000
  H   H2046     1.0  0.94324  0.43851  0.69363  1.0000
  C   C1708     1.0  0.67026  0.39002  0.85303  1.0000
  H   H2047     1.0  0.89906  0.49021  0.57361  1.0000
  S   S465      1.0  0.91376  0.43058  0.50582  1.0000
  C   C1709     1.0  0.76112  0.29126  0.75722  1.0000
  C   C1710     1.0  0.74034  0.28916  0.79853  1.0000
  N   N115      1.0  0.96667  0.47314  0.58515  1.0000
  C   C1711     1.0  0.97569  0.46618  0.56772  1.0000
  C   C1712     1.0  0.67318  0.41941  0.95730  1.0000
  C   C1713     1.0  0.70825  0.48323  0.67886  1.0000
  H   H2048     1.0  0.77699  0.30253  0.84707  1.0000
  H   H2049     1.0  0.76180  0.45525  0.88378  1.0000
  C   C1714     1.0  0.77789  0.30516  0.92187  1.0000
  C   C1715     1.0  0.92209  0.46994  0.52991  1.0000
  H   H2050     1.0  0.74964  0.30611  0.89564  1.0000
  H   H2051     1.0  0.97992  0.48098  0.61646  1.0000
  C   C1716     1.0  0.83071  0.47246  0.97920  1.0000
  H   H2052     1.0  0.86760  0.37805  0.55476  1.0000
  H   H2053     1.0  0.88342  0.49119  0.92059  1.0000
  H   H2054     1.0  0.75467  0.47507  0.97479  1.0000
  C   C1717     1.0  0.80736  0.33952  0.96686  1.0000
  H   H2055     1.0  0.85594  0.36105  0.96467  1.0000
  S   S466      1.0  0.67919  0.26892  0.75958  1.0000
  C   C1718     1.0  0.89385  0.37689  0.53325  1.0000
  H   H2056     1.0  0.82898  0.37468  0.92197  1.0000
  C   C1719     1.0  0.87538  0.48952  0.76194  1.0000
  C   C1720     1.0  0.97445  0.43920  0.65354  1.0000
  C   C1721     1.0  0.97796  0.49070  0.74546  1.0000
  H   H2057     1.0  0.78163  0.47211  0.87698  1.0000
  C   C1722     1.0  0.86195  0.48136  0.69167  1.0000
  H   H2058     1.0  0.82532  0.40785  0.94381  1.0000
  H   H2059     1.0  0.91779  0.45967  0.53281  1.0000
  C   C1723     1.0  0.76386  0.27047  0.85523  1.0000
  C   C1724     1.0  0.72006  0.25780  0.94119  1.0000
  C   C1725     1.0  0.85462  0.36434  0.60216  1.0000
  C   C1726     1.0  0.95309  0.46493  0.59347  1.0000
  H   H2060     1.0  0.85452  0.48335  0.71190  1.0000
  H   H2061     1.0  0.88976  0.39489  0.59690  1.0000
  H   H2062     1.0  0.67050  0.49424  0.67128  1.0000
  C   C1727     1.0  0.79903  0.40129  0.97230  1.0000
  H   H2063     1.0  0.67279  0.27180  0.85072  1.0000
  H   H2064     1.0  0.99167  0.44781  0.67102  1.0000
  H   H2065     1.0  0.88443  0.39609  0.55460  1.0000
  C   C1728     1.0  0.88860  0.48957  0.75108  1.0000
  H   H2066     1.0  0.84174  0.34678  0.93767  1.0000
  C   C1729     1.0  0.66577  0.42174  0.75217  1.0000
  H   H2067     1.0  0.76196  0.49017  0.86554  1.0000
  C   C1730     1.0  0.95748  0.49527  0.76909  1.0000
  C   C1731     1.0  0.72544  0.44177  0.98539  1.0000
  H   H2068     1.0  0.82320  0.44567  0.97402  1.0000
  H   H2069     1.0  0.75852  0.31755  0.91696  1.0000
  H   H2070     1.0  0.97714  0.49028  0.81805  1.0000
  H   H2071     1.0  0.90025  0.49159  0.86477  1.0000
  H   H2072     1.0  0.78216  0.29748  0.93484  1.0000
  H   H2073     1.0  0.71217  0.47600  0.66747  1.0000
  H   H2074     1.0  0.88720  0.38043  0.51707  1.0000
  H   H2075     1.0  0.74559  0.29040  0.95862  1.0000
  H   H2076     1.0  0.89259  0.36633  0.53416  1.0000
  C   C1732     1.0  0.81999  0.36013  0.97319  1.0000
  H   H2077     1.0  0.79565  0.39211  0.96353  1.0000
  H   H2078     1.0  0.95291  0.48966  0.75101  1.0000
  C   C1733     1.0  0.87134  0.49165  0.66559  1.0000
  H   H2079     1.0  0.68039  0.49203  0.63035  1.0000
  C   C1734     1.0  0.70370  0.49328  0.72987  1.0000
  C   C1735     1.0  0.87441  0.49291  0.91267  1.0000
  C   C1736     1.0  0.81651  0.42492  0.98190  1.0000
  H   H2080     1.0  0.92003  0.40575  0.49961  1.0000
  C   C1737     1.0  0.86141  0.49285  0.86773  1.0000
  C   C1738     1.0  0.96674  0.49789  0.49889  1.0000
  C   C1739     1.0  0.92488  0.47912  0.49537  1.0000
  H   H2081     1.0  0.69315  0.41075  0.97406  1.0000
  C   C1740     1.0  0.71208  0.25242  0.91970  1.0000
  H   H2082     1.0  0.81646  0.42601  0.95295  1.0000
  H   H2083     1.0  0.67286  0.41596  0.93150  1.0000
  C   C1741     1.0  0.96613  0.48616  0.52312  1.0000
  H   H2084     1.0  0.98598  0.47229  0.55945  1.0000
  H   H2085     1.0  0.70097  0.48930  0.63197  1.0000
  C   C1742     1.0  0.83543  0.33088  0.98600  1.0000
  C   C1743     1.0  0.89484  0.50696  0.24555  1.0000
  H   H2086     1.0  0.89885  0.51974  0.32239  1.0000
  H   H2087     1.0  0.98812  0.51217  0.18681  1.0000
  S   S467      1.0  0.97045  0.54078  0.24006  1.0000
  Fe  Fe233     1.0  0.93808  0.50360  0.32806  1.0000
  C   C1744     1.0  0.85886  0.51230  0.31046  1.0000
  S   S468      1.0  0.91863  0.50754  0.34568  1.0000
  S   S469      1.0  0.93280  0.53775  0.29957  1.0000
  Fe  Fe234     1.0  0.92249  0.51909  0.28705  1.0000
  S   S470      1.0  0.92112  0.52825  0.41353  1.0000
  Fe  Fe235     1.0  0.93049  0.52545  0.35735  1.0000
  C   C1745     1.0  0.86043  0.51528  0.27219  1.0000
  H   H2088     1.0  0.87841  0.54886  0.33487  1.0000
  C   C1746     1.0  0.90041  0.54527  0.29468  1.0000
  H   H2089     1.0  0.87266  0.52687  0.21976  1.0000
  H   H2090     1.0  0.89040  0.54708  0.36139  1.0000
  S   S471      1.0  0.94982  0.52054  0.34346  1.0000
  H   H2091     1.0  0.99776  0.60006  0.06304  1.0000
  H   H2092     1.0  0.87548  0.53470  0.37190  1.0000
  H   H2093     1.0  0.90597  0.54094  0.27455  1.0000
  H   H2094     1.0  0.94871  0.51359  0.17229  1.0000
  C   C1747     1.0  0.88311  0.54172  0.34858  1.0000
  S   S472      1.0  0.90901  0.51881  0.24686  1.0000
  C   C1748     1.0  0.98346  0.51495  0.21186  1.0000
  H   H2095     1.0  0.97273  0.51267  0.21410  1.0000
  H   H2096     1.0  0.98705  0.52574  0.20661  1.0000
  C   C1749     1.0  0.93002  0.52958  0.44823  1.0000
  S   S473      1.0  0.94130  0.51386  0.26891  1.0000
  C   C1750     1.0  0.86817  0.51886  0.32630  1.0000
  Fe  Fe236     1.0  0.95154  0.53160  0.28503  1.0000
  C   C1751     1.0  0.89483  0.52535  0.34151  1.0000
  C   C1752     1.0  0.98399  0.55435  0.23367  1.0000
  H   H2097     1.0  0.89701  0.55313  0.27898  1.0000
  H   H2098     1.0  0.88743  0.51817  0.36502  1.0000
  H   H2099     1.0  0.86662  0.51605  0.35606  1.0000
  C   C1753     1.0  0.87129  0.52487  0.24962  1.0000
  C   C1754     1.0  0.98390  0.56367  0.25481  1.0000
  C   C1755     1.0  0.98014  0.51302  0.27735  1.0000
  H   H2100     1.0  0.90288  0.52991  0.35336  1.0000
  C   C1756     1.0  0.88072  0.53146  0.26511  1.0000
  H   H2101     1.0  0.97535  0.56264  0.27652  1.0000
  N   N116      1.0  0.98642  0.50825  0.24593  1.0000
  C   C1757     1.0  0.92862  0.50258  0.19062  1.0000
  C   C1758     1.0  0.94366  0.53221  0.43958  1.0000
  C   C1759     1.0  0.87900  0.49927  0.21040  1.0000
  C   C1760     1.0  0.99516  0.55593  0.20539  1.0000
  N   N117      1.0  0.88932  0.53520  0.32160  1.0000
  H   H2102     1.0  0.90764  0.55004  0.30868  1.0000
  H   H2103     1.0  0.98425  0.52369  0.27372  1.0000
  H   H2104     1.0  0.96111  0.53634  0.45977  1.0000
  H   H2105     1.0  0.94897  0.53338  0.41136  1.0000
  H   H2106     1.0  0.89681  0.51473  0.18734  1.0000
  H   H2107     1.0  0.99792  0.59940  0.99920  1.0000
  C   C1761     1.0  0.95053  0.53389  0.46716  1.0000
  C   C1762     1.0  0.89085  0.50757  0.21206  1.0000
  H   H2108     1.0  0.92494  0.51117  0.19011  1.0000
  H   H2109     1.0  0.98159  0.50803  0.30418  1.0000
  C   C1763     1.0  0.87943  0.52865  0.30411  1.0000
  H   H2110     1.0  0.88913  0.53837  0.24576  1.0000
  H   H2111     1.0  0.99530  0.54895  0.18842  1.0000
  H   H2112     1.0  0.96947  0.51170  0.27953  1.0000
  H   H2113     1.0  0.99463  0.58179  0.26334  1.0000
  C   C1764     1.0  0.99484  0.57453  0.24724  1.0000
  C   C1765     1.0  0.92332  0.52831  0.48506  1.0000
  H   H2114     1.0  0.93396  0.49997  0.46907  1.0000
  H   H2115     1.0  0.85341  0.50989  0.25986  1.0000
  H   H2116     1.0  0.85049  0.50466  0.32777  1.0000
  C   C1766     1.0  0.94203  0.50391  0.18051  1.0000
  H   H2117     1.0  0.87595  0.50010  0.18463  1.0000
  Fe  Fe237     1.0  0.94688  0.53097  0.60029  1.0000
  Fe  Fe238     1.0  0.92760  0.52744  0.67418  1.0000
  Fe  Fe239     1.0  0.95718  0.53714  0.66899  1.0000
  S   S474      1.0  0.97709  0.54641  0.67930  1.0000
  S   S475      1.0  0.96140  0.52449  0.62974  1.0000
  S   S476      1.0  0.94358  0.54485  0.63673  1.0000
  H   H2118     1.0  0.96724  0.51727  0.71789  1.0000
  N   N118      1.0  0.97162  0.50122  0.75267  1.0000
  S   S477      1.0  0.95323  0.53491  0.53720  1.0000
  C   C1767     1.0  0.97324  0.51015  0.71607  1.0000
  H   H2119     1.0  0.99593  0.60089  0.71973  1.0000
  H   H2120     1.0  0.87793  0.51148  0.60110  1.0000
  C   C1768     1.0  0.98511  0.52793  0.79927  1.0000
  H   H2121     1.0  0.67710  0.51272  0.69714  1.0000
  N   N119      1.0  0.68935  0.50804  0.65202  1.0000
  H   H2122     1.0  0.98367  0.51567  0.70403  1.0000
  H   H2123     1.0  0.97704  0.57029  0.77903  1.0000
  C   C1769     1.0  0.93020  0.52978  0.51288  1.0000
  S   S478      1.0  0.94087  0.52099  0.70912  1.0000
  Fe  Fe240     1.0  0.94450  0.50917  0.66764  1.0000
  H   H2124     1.0  0.92499  0.52896  0.54096  1.0000
  C   C1770     1.0  0.89822  0.50119  0.73224  1.0000
  S   S479      1.0  0.93030  0.51436  0.63527  1.0000
  C   C1771     1.0  0.96988  0.50936  0.54657  1.0000
  H   H2125     1.0  0.98748  0.53849  0.79424  1.0000
  C   C1772     1.0  0.68465  0.51766  0.67076  1.0000
  C   C1773     1.0  0.69840  0.51543  0.61586  1.0000
  H   H2126     1.0  0.87863  0.52186  0.72706  1.0000
  C   C1774     1.0  0.98400  0.55451  0.71068  1.0000
  H   H2127     1.0  0.91623  0.52635  0.77831  1.0000
  H   H2128     1.0  0.87510  0.51441  0.82336  1.0000
  H   H2129     1.0  0.97830  0.52805  0.75058  1.0000
  C   C1775     1.0  0.98280  0.56636  0.75947  1.0000
  C   C1776     1.0  0.97662  0.55926  0.73700  1.0000
  C   C1777     1.0  0.98765  0.52061  0.83020  1.0000
  C   C1778     1.0  0.89761  0.50974  0.63364  1.0000
  C   C1779     1.0  0.90783  0.51952  0.79830  1.0000
  H   H2130     1.0  0.96623  0.55779  0.73937  1.0000
  C   C1780     1.0  0.88145  0.51285  0.73384  1.0000
  C   C1781     1.0  0.99636  0.56861  0.75640  1.0000
  H   H2131     1.0  0.89430  0.52985  0.78124  1.0000
  S   S480      1.0  0.90661  0.52762  0.69864  1.0000
  H   H2132     1.0  0.90573  0.51788  0.61493  1.0000
  C   C1782     1.0  0.90938  0.50868  0.82177  1.0000
  C   C1783     1.0  0.96866  0.50947  0.51059  1.0000
  H   H2133     1.0  0.89286  0.51567  0.56607  1.0000
  C   C1784     1.0  0.94389  0.53272  0.50390  1.0000
  C   C1785     1.0  0.97987  0.52177  0.77409  1.0000
  C   C1786     1.0  0.97717  0.50799  0.77896  1.0000
  H   H2134     1.0  0.95220  0.50285  0.77331  1.0000
  H   H2135     1.0  0.69282  0.52447  0.67692  1.0000
  H   H2136     1.0  0.97112  0.51840  0.55561  1.0000
  C   C1787     1.0  0.89470  0.51288  0.72320  1.0000
  H   H2137     1.0  0.67989  0.52374  0.65332  1.0000
  H   H2138     1.0  0.99289  0.57905  0.63794  1.0000
  H   H2139     1.0  0.97003  0.50479  0.69564  1.0000
  H   H2140     1.0  0.70113  0.50892  0.59794  1.0000
  H   H2141     1.0  0.70755  0.52142  0.61991  1.0000
  H   H2142     1.0  0.69385  0.52210  0.59952  1.0000
  C   C1788     1.0  0.88552  0.50736  0.58691  1.0000
  C   C1789     1.0  0.88442  0.51241  0.82435  1.0000
  C   C1790     1.0  0.89542  0.52148  0.80004  1.0000
  H   H2143     1.0  0.93910  0.50591  0.52423  1.0000
  C   C1791     1.0  0.88560  0.50107  0.84812  1.0000
  H   H2144     1.0  0.91024  0.50503  0.57328  1.0000
  H   H2145     1.0  0.98276  0.58669  0.69090  1.0000
  H   H2146     1.0  0.90159  0.50467  0.65553  1.0000
  H   H2147     1.0  0.67289  0.50518  0.62718  1.0000
  H   H2148     1.0  0.89059  0.51452  0.64743  1.0000
  H   H2149     1.0  0.91277  0.52637  0.49197  1.0000
  H   H2150     1.0  0.99203  0.52547  0.84906  1.0000
  H   H2151     1.0  0.91908  0.50724  0.82040  1.0000
  C   C1792     1.0  0.99324  0.59016  0.67939  1.0000
  H   H2152     1.0  0.69252  0.50702  0.72493  1.0000
  H   H2153     1.0  0.96901  0.51857  0.49205  1.0000
  N   N120      1.0  0.89167  0.50045  0.61346  1.0000
  H   H2154     1.0  0.86168  0.50133  0.76139  1.0000
  H   H2155     1.0  0.87403  0.50293  0.91513  1.0000
  C   C1793     1.0  0.98468  0.50706  0.83655  1.0000
  C   C1794     1.0  0.97935  0.50079  0.81166  1.0000
  C   C1795     1.0  0.99753  0.55655  0.70813  1.0000
  C   C1796     1.0  0.87183  0.50124  0.75342  1.0000
  H   H2156     1.0  0.90838  0.50112  0.72478  1.0000
  H   H2157     1.0  0.98672  0.50138  0.86054  1.0000
  C   C1797     1.0  0.69707  0.50085  0.71036  1.0000
  H   H2158     1.0  0.87062  0.50142  0.66624  1.0000
  H   H2159     1.0  0.85952  0.50220  0.87239  1.0000
  C   C1798     1.0  0.89848  0.49968  0.84671  1.0000
  C   C1799     1.0  0.69605  0.49999  0.67392  1.0000
  C   C1800     1.0  0.67784  0.49948  0.64491  1.0000
  H   H2160     1.0  0.88071  0.50064  0.57168  1.0000
