data_image0
_chemical_formula_structural       HFeHCS2HFeSFeSH3CSHFeSCSCH6NC2HC2H3CH2FeSCFeSCFeHFeSCSFeS2FeSHFeSFeS3C6HCH2C2H5CSH2CHC6H4C2H6NH3CH2C2H6C3H2SC2H2C2H2C2NC2HC3HCHCHCHCHC2H2C2H2CHSCHC2HCHCHCHCHCH2SC7H2SH3CH3NH5C2H3C2HNC2H2C3SH6FeS2FeHSFeCFeS3HCHC2H3SNH3C6HCH2CH3C3HCHCHC2HCH8CHC2SC2H3CSC3HFeSH2SHCNC3SFeS2FeSFeCSC3H4C2HC10H4CH3CH3CHCH2FeH2C2HCHCH5CH2CH2C2H7SCSCNCSHCFeHC2HCH3CHCHCHSCHC2NH2CHCH2CFeC2H3C5HCNCHCH2CH2C2H3C3HCHFeS2FeSHFeCFeSHSFeS2FeS2FeCFeS3CH6NH3C6H4CHCHCNC3HCHC2H5SHC3H2CHNH3CH2CHC2H2NH2CH3CH2CHCHCHC2HCHC2S2C2HC3H3CH2NC2HNHC2HCHC2HCHCH2SCH4CSH2C2H4C3H5C4H2CH4SHCH4C2H2C2H2NH5C2H2C3SH2FeCHCFeS2FeS2FeSFeS3FeCFeS2FeS3HC2H2C6H4CHCH4CSC2H3C2SC2H2C2HSC3H3C4H2NCH2CHC3H3CH4CH3NCHNC9H14FeH2CNH2CHCHC3H2CH2C2H4C4HC3H2C3H5NHCH2C3HC2HC5HCSC3H2CH2C2HCH2CHCSCSFe2S2FeSFeNHC2HC2H4C2HSCHC3H4SC3H2CH7C2HSHC2H2FeSHFeSFeSFeCS2FeSFeHSFeS2C8H5C2H3CH2CH5SH7CSC2SCHC2HSHCHCHS2H3CHC2H3C6H2CNH3FeC2HC2HNHC4H3C2NHC2H3SCHSFeSFeCS2HCHC3HFeHCH3CH3C2H2CH2CH2FeH2NHCHCSH2C2SCH2C2HSH3NH3C2HC2SH
_chemical_formula_sum              "H504 Fe56 C420 S112 N28"
_cell_length_a       37.5744
_cell_length_b       42.4746
_cell_length_c       57.8638
_cell_angle_alpha    84.9438
_cell_angle_beta     84.7117
_cell_angle_gamma    116.846

_space_group_name_H-M_alt    "P 1"
_space_group_IT_number       1

loop_
  _space_group_symop_operation_xyz
  'x, y, z'

loop_
  _atom_site_type_symbol
  _atom_site_label
  _atom_site_symmetry_multiplicity
  _atom_site_fract_x
  _atom_site_fract_y
  _atom_site_fract_z
  _atom_site_occupancy
  H   H1        1.0  0.21485  0.24498  0.32505  1.0000
  Fe  Fe1       1.0  0.26821  0.37805  0.29973  1.0000
  H   H2        1.0  0.12439  0.29741  0.27521  1.0000
  C   C1        1.0  0.30135  0.47954  0.21069  1.0000
  S   S1        1.0  0.25429  0.40518  0.26928  1.0000
  S   S2        1.0  0.33514  0.41257  0.29083  1.0000
  H   H3        1.0  0.17210  0.37929  0.30135  1.0000
  Fe  Fe2       1.0  0.25040  0.44039  0.29499  1.0000
  S   S3        1.0  0.25929  0.41069  0.32595  1.0000
  Fe  Fe3       1.0  0.32052  0.44337  0.26305  1.0000
  S   S4        1.0  0.20150  0.45685  0.29627  1.0000
  H   H4        1.0  0.13400  0.25891  0.30193  1.0000
  H   H5        1.0  0.28042  0.45891  0.22456  1.0000
  H   H6        1.0  0.24783  0.47915  0.09705  1.0000
  C   C2        1.0  0.34259  0.48948  0.20873  1.0000
  S   S5        1.0  0.36161  0.46957  0.22870  1.0000
  H   H7        1.0  0.17428  0.31625  0.28377  1.0000
  Fe  Fe4       1.0  0.32518  0.44740  0.31469  1.0000
  S   S6        1.0  0.24258  0.31816  0.30624  1.0000
  C   C3        1.0  0.14688  0.32000  0.28280  1.0000
  S   S7        1.0  0.31552  0.48075  0.28642  1.0000
  C   C4        1.0  0.09503  0.32984  0.30313  1.0000
  H   H8        1.0  0.06987  0.30614  0.29799  1.0000
  H   H9        1.0  0.15666  0.34459  0.26999  1.0000
  H   H10       1.0  0.10687  0.04800  0.31456  1.0000
  H   H11       1.0  0.40839  0.47531  0.29451  1.0000
  H   H12       1.0  0.18802  0.35040  0.31671  1.0000
  H   H13       1.0  0.10345  0.35310  0.28936  1.0000
  N   N1        1.0  0.12989  0.32313  0.30622  1.0000
  C   C5        1.0  0.12052  0.26040  0.31883  1.0000
  C   C6        1.0  0.08183  0.02219  0.32180  1.0000
  H   H14       1.0  0.08312  0.33616  0.31941  1.0000
  C   C7        1.0  0.16149  0.35466  0.31426  1.0000
  C   C8        1.0  0.11698  0.29113  0.32391  1.0000
  H   H15       1.0  0.25513  0.48745  0.19547  1.0000
  H   H16       1.0  0.28312  0.47522  0.06290  1.0000
  H   H17       1.0  0.04722  0.02129  0.29402  1.0000
  C   C9        1.0  0.04841  0.00718  0.31023  1.0000
  H   H18       1.0  0.28148  0.46876  0.02141  1.0000
  H   H19       1.0  0.35397  0.36704  0.32620  1.0000
  Fe  Fe5       1.0  0.21955  0.13838  0.61423  1.0000
  S   S8        1.0  0.15711  0.11711  0.60518  1.0000
  C   C10       1.0  0.18507  0.03536  0.42258  1.0000
  Fe  Fe6       1.0  0.22063  0.20573  0.62890  1.0000
  S   S9        1.0  0.15798  0.19078  0.62119  1.0000
  C   C11       1.0  0.10025  0.29013  0.34718  1.0000
  Fe  Fe7       1.0  0.14342  0.13600  0.63822  1.0000
  H   H20       1.0  0.24035  0.12935  0.53523  1.0000
  Fe  Fe8       1.0  0.17608  0.17312  0.58871  1.0000
  S   S10       1.0  0.16147  0.18912  0.55418  1.0000
  C   C12       1.0  0.09162  0.23063  0.35863  1.0000
  S   S11       1.0  0.24005  0.19290  0.59465  1.0000
  Fe  Fe9       1.0  0.12734  0.10983  0.44454  1.0000
  S   S12       1.0  0.17426  0.14673  0.41462  1.0000
  S   S13       1.0  0.13861  0.08715  0.47797  1.0000
  Fe  Fe10      1.0  0.05742  0.10026  0.41844  1.0000
  S   S14       1.0  0.09757  0.13530  0.38562  1.0000
  H   H21       1.0  0.20752  0.07805  0.65168  1.0000
  Fe  Fe11      1.0  0.13534  0.10771  0.39254  1.0000
  S   S15       1.0  0.16014  0.08277  0.36736  1.0000
  Fe  Fe12      1.0  0.13283  0.17117  0.41049  1.0000
  S   S16       1.0  0.15349  0.23028  0.40656  1.0000
  S   S17       1.0  0.09140  0.06918  0.42285  1.0000
  S   S18       1.0  0.08950  0.13796  0.44287  1.0000
  C   C13       1.0  0.17420  0.05523  0.38451  1.0000
  C   C14       1.0  0.17792  0.05926  0.40801  1.0000
  C   C15       1.0  0.01277  0.04852  0.65206  1.0000
  C   C16       1.0  0.35402  0.37619  0.38377  1.0000
  C   C17       1.0  0.21340  0.05829  0.64393  1.0000
  C   C18       1.0  0.17870  0.02750  0.37544  1.0000
  H   H22       1.0  0.17536  0.08086  0.41511  1.0000
  C   C19       1.0  0.18461  0.00275  0.39026  1.0000
  H   H23       1.0  0.19313  0.27308  0.62015  1.0000
  H   H24       1.0  0.19852  0.40671  0.64944  1.0000
  C   C20       1.0  0.17859  0.25441  0.37873  1.0000
  C   C21       1.0  0.18933  0.29077  0.37438  1.0000
  H   H25       1.0  0.18205  0.30353  0.38811  1.0000
  H   H26       1.0  0.02236  0.03223  0.54884  1.0000
  H   H27       1.0  0.09311  0.00133  0.38924  1.0000
  H   H28       1.0  0.03609  0.12765  0.55803  1.0000
  H   H29       1.0  0.25455  0.02819  0.47044  1.0000
  C   C22       1.0  0.09941  0.99745  0.61573  1.0000
  S   S19       1.0  0.99000  0.07056  0.42598  1.0000
  H   H30       1.0  0.10970  0.01711  0.35110  1.0000
  H   H31       1.0  0.07644  0.26050  0.38209  1.0000
  C   C23       1.0  0.05537  0.09343  0.61924  1.0000
  H   H32       1.0  0.08080  0.16146  0.54148  1.0000
  C   C24       1.0  0.15821  0.16139  0.53291  1.0000
  C   C25       1.0  0.15290  0.12681  0.53913  1.0000
  C   C26       1.0  0.14728  0.10419  0.52207  1.0000
  C   C27       1.0  0.14734  0.11622  0.49878  1.0000
  C   C28       1.0  0.15346  0.15098  0.49244  1.0000
  C   C29       1.0  0.15867  0.17348  0.50953  1.0000
  H   H33       1.0  0.15259  0.11735  0.55707  1.0000
  H   H34       1.0  0.14299  0.07742  0.52682  1.0000
  H   H35       1.0  0.15427  0.16062  0.47436  1.0000
  H   H36       1.0  0.16319  0.20036  0.50463  1.0000
  C   C30       1.0  0.23680  0.06735  0.62186  1.0000
  C   C31       1.0  0.24464  0.04171  0.61201  1.0000
  H   H37       1.0  0.27829  0.31670  0.40117  1.0000
  H   H38       1.0  0.26310  0.04874  0.59505  1.0000
  H   H39       1.0  0.27920  0.36202  0.37433  1.0000
  H   H40       1.0  0.03566  0.18875  0.53061  1.0000
  H   H41       1.0  0.04102  0.03498  0.47479  1.0000
  H   H42       1.0  0.15103  0.36067  0.33110  1.0000
  N   N2        1.0  0.23254  0.00850  0.50734  1.0000
  H   H43       1.0  0.25807  0.21624  0.38158  1.0000
  H   H44       1.0  0.34249  0.31081  0.33644  1.0000
  H   H45       1.0  0.31704  0.40130  0.35616  1.0000
  C   C32       1.0  0.05418  0.13564  0.54032  1.0000
  H   H46       1.0  0.00872  0.11088  0.47963  1.0000
  H   H47       1.0  0.17679  0.02474  0.35713  1.0000
  C   C33       1.0  0.99578  0.03471  0.38980  1.0000
  C   C34       1.0  0.14017  0.02258  0.56892  1.0000
  H   H48       1.0  0.39106  0.36799  0.34446  1.0000
  H   H49       1.0  0.37568  0.36636  0.38851  1.0000
  H   H50       1.0  0.38262  0.25327  0.62977  1.0000
  H   H51       1.0  0.22723  0.11715  0.49499  1.0000
  H   H52       1.0  0.04103  0.99059  0.39517  1.0000
  H   H53       1.0  0.30710  0.24635  0.34536  1.0000
  C   C35       1.0  0.02866  0.07465  0.60419  1.0000
  C   C36       1.0  0.04793  0.08003  0.64311  1.0000
  C   C37       1.0  0.32223  0.29947  0.35281  1.0000
  H   H54       1.0  0.37081  0.40592  0.37989  1.0000
  H   H55       1.0  0.23607  0.38020  0.63395  1.0000
  S   S20       1.0  0.25728  0.11080  0.60664  1.0000
  C   C38       1.0  0.01363  0.01920  0.53350  1.0000
  C   C39       1.0  0.27442  0.24513  0.37812  1.0000
  H   H56       1.0  0.20026  0.00548  0.47787  1.0000
  H   H57       1.0  0.06555  0.11605  0.53727  1.0000
  C   C40       1.0  0.31272  0.19463  0.63375  1.0000
  C   C41       1.0  0.22995  0.06737  0.49925  1.0000
  H   H58       1.0  0.11161  0.20780  0.33196  1.0000
  H   H59       1.0  0.38108  0.40541  0.33953  1.0000
  C   C42       1.0  0.36107  0.24792  0.64594  1.0000
  C   C43       1.0  0.24474  0.08121  0.54466  1.0000
  N   N3        1.0  0.03137  0.13918  0.52145  1.0000
  C   C44       1.0  0.21674  0.32814  0.62496  1.0000
  C   C45       1.0  0.20553  0.99794  0.64626  1.0000
  H   H60       1.0  0.33347  0.20088  0.61707  1.0000
  C   C46       1.0  0.23195  0.09846  0.50676  1.0000
  C   C47       1.0  0.08800  0.26035  0.36424  1.0000
  C   C48       1.0  0.09163  0.01782  0.65249  1.0000
  H   H61       1.0  0.15621  0.03278  0.55119  1.0000
  C   C49       1.0  0.21834  0.29422  0.33437  1.0000
  H   H62       1.0  0.99118  0.14974  0.54480  1.0000
  C   C50       1.0  0.22864  0.00585  0.48219  1.0000
  H   H63       1.0  0.29684  0.02766  0.50215  1.0000
  C   C51       1.0  0.28661  0.30249  0.38895  1.0000
  H   H64       1.0  0.08316  0.20799  0.37208  1.0000
  C   C52       1.0  0.19184  0.29172  0.63145  1.0000
  H   H65       1.0  0.29015  0.36136  0.34359  1.0000
  C   C53       1.0  0.31528  0.32084  0.36844  1.0000
  C   C54       1.0  0.23584  0.04232  0.51433  1.0000
  H   H66       1.0  0.07450  0.14131  0.49343  1.0000
  H   H67       1.0  0.04773  0.16607  0.48556  1.0000
  C   C55       1.0  0.36111  0.19230  0.65754  1.0000
  C   C56       1.0  0.02311  0.01997  0.49140  1.0000
  H   H68       1.0  0.06082  0.06246  0.50939  1.0000
  H   H69       1.0  0.33160  0.37009  0.39959  1.0000
  C   C57       1.0  0.18781  0.23791  0.36090  1.0000
  H   H70       1.0  0.08483  0.03827  0.64364  1.0000
  S   S21       1.0  0.36810  0.47400  0.33953  1.0000
  C   C58       1.0  0.22843  0.00684  0.62401  1.0000
  H   H71       1.0  0.99952  0.00580  0.36171  1.0000
  C   C59       1.0  0.36668  0.37563  0.34253  1.0000
  C   C60       1.0  0.01257  0.16175  0.52809  1.0000
  H   H72       1.0  0.17967  0.20985  0.36416  1.0000
  C   C61       1.0  0.20773  0.25784  0.33878  1.0000
  H   H73       1.0  0.27188  0.00196  0.53049  1.0000
  C   C62       1.0  0.26675  0.26524  0.39371  1.0000
  H   H74       1.0  0.24407  0.25180  0.40914  1.0000
  C   C63       1.0  0.24294  0.05007  0.53735  1.0000
  H   H75       1.0  0.08671  0.18342  0.50306  1.0000
  C   C64       1.0  0.20892  0.31057  0.35224  1.0000
  H   H76       1.0  0.21643  0.33837  0.34913  1.0000
  C   C65       1.0  0.08977  0.01882  0.59978  1.0000
  H   H77       1.0  0.24677  0.03194  0.55000  1.0000
  H   H78       1.0  0.38469  0.19926  0.64211  1.0000
  S   S22       1.0  0.20453  0.15220  0.64910  1.0000
  C   C66       1.0  0.30396  0.37173  0.35927  1.0000
  C   C67       1.0  0.30202  0.26219  0.35771  1.0000
  C   C68       1.0  0.10961  0.03084  0.57670  1.0000
  C   C69       1.0  0.08302  0.00437  0.34296  1.0000
  C   C70       1.0  0.23925  0.10536  0.52941  1.0000
  C   C71       1.0  0.16621  0.27918  0.65280  1.0000
  C   C72       1.0  0.99917  0.10385  0.51830  1.0000
  H   H79       1.0  0.23705  0.33763  0.60847  1.0000
  H   H80       1.0  0.08190  0.11821  0.61230  1.0000
  S   S23       1.0  0.26551  0.25912  0.63727  1.0000
  H   H81       1.0  0.00432  0.01462  0.44604  1.0000
  H   H82       1.0  0.99523  0.16525  0.51435  1.0000
  H   H83       1.0  0.09725  0.01527  0.50301  1.0000
  C   C73       1.0  0.06118  0.15814  0.49990  1.0000
  H   H84       1.0  0.18798  0.03889  0.44071  1.0000
  H   H85       1.0  0.06774  0.02751  0.60526  1.0000
  H   H86       1.0  0.03538  0.08442  0.58566  1.0000
  N   N4        1.0  0.33491  0.36032  0.36348  1.0000
  H   H87       1.0  0.12477  0.03100  0.65271  1.0000
  H   H88       1.0  0.29432  0.16513  0.63706  1.0000
  H   H89       1.0  0.10205  0.04768  0.56512  1.0000
  H   H90       1.0  0.02590  0.05641  0.38437  1.0000
  H   H91       1.0  0.22352  0.06363  0.48159  1.0000
  C   C74       1.0  0.18757  0.00668  0.41388  1.0000
  C   C75       1.0  0.03503  0.03623  0.51131  1.0000
  H   H92       1.0  0.25753  0.48105  0.32908  1.0000
  H   H93       1.0  0.29198  0.20614  0.63058  1.0000
  H   H94       1.0  0.09710  0.31261  0.35248  1.0000
  C   C76       1.0  0.99413  0.04267  0.61298  1.0000
  C   C77       1.0  0.10772  0.23062  0.33598  1.0000
  H   H95       1.0  0.34302  0.26192  0.64163  1.0000
  N   N5        1.0  0.33470  0.20908  0.65345  1.0000
  C   C78       1.0  0.26879  0.00453  0.51159  1.0000
  C   C79       1.0  0.21618  0.35221  0.63981  1.0000
  H   H96       1.0  0.25023  0.08665  0.56231  1.0000
  H   H97       1.0  0.14755  0.25068  0.65794  1.0000
  C   C80       1.0  0.15093  0.00223  0.58423  1.0000
  C   C81       1.0  0.19848  0.02383  0.65631  1.0000
  C   C82       1.0  0.99108  0.09386  0.49576  1.0000
  S   S24       1.0  0.08463  0.10015  0.66115  1.0000
  H   H98       1.0  0.30973  0.32501  0.65428  1.0000
  H   H99       1.0  0.17565  0.99680  0.57852  1.0000
  H   H100      1.0  0.12816  0.99614  0.47137  1.0000
  H   H101      1.0  0.14729  0.37559  0.66142  1.0000
  H   H102      1.0  0.34400  0.16268  0.66067  1.0000
  H   H103      1.0  0.37928  0.26056  0.65974  1.0000
  Fe  Fe13      1.0  0.27275  0.37344  0.73603  1.0000
  S   S25       1.0  0.31805  0.41770  0.70848  1.0000
  S   S26       1.0  0.23420  0.31623  0.73068  1.0000
  Fe  Fe14      1.0  0.28065  0.42373  0.77224  1.0000
  H   H104      1.0  0.42021  0.46714  0.86786  1.0000
  S   S27       1.0  0.25660  0.42963  0.80787  1.0000
  Fe  Fe15      1.0  0.28688  0.44887  0.72064  1.0000
  C   C83       1.0  0.27835  0.16486  0.68443  1.0000
  Fe  Fe16      1.0  0.35327  0.43642  0.73808  1.0000
  S   S28       1.0  0.42068  0.46062  0.73402  1.0000
  S   S29       1.0  0.23860  0.40335  0.74581  1.0000
  S   S30       1.0  0.31078  0.38969  0.76502  1.0000
  H   H105      1.0  0.29879  0.34779  0.69087  1.0000
  C   C84       1.0  0.28052  0.45772  0.84783  1.0000
  H   H106      1.0  0.18994  0.24989  0.71381  1.0000
  C   C85       1.0  0.29269  0.45622  0.82447  1.0000
  C   C86       1.0  0.19107  0.34035  0.66195  1.0000
  H   H107      1.0  0.23477  0.40732  0.69450  1.0000
  H   H108      1.0  0.13322  0.33441  0.69852  1.0000
  H   H109      1.0  0.36708  0.41109  0.81201  1.0000
  S   S31       1.0  0.32623  0.47168  0.74772  1.0000
  N   N6        1.0  0.19173  0.36643  0.67754  1.0000
  H   H110      1.0  0.20136  0.22677  0.67732  1.0000
  H   H111      1.0  0.36661  0.41524  0.85441  1.0000
  H   H112      1.0  0.23225  0.46833  0.74340  1.0000
  C   C87       1.0  0.30541  0.20084  0.67490  1.0000
  C   C88       1.0  0.39104  0.43563  0.84177  1.0000
  C   C89       1.0  0.30263  0.22771  0.68687  1.0000
  C   C90       1.0  0.23334  0.38794  0.68241  1.0000
  C   C91       1.0  0.22245  0.25323  0.68017  1.0000
  C   C92       1.0  0.42144  0.46480  0.84931  1.0000
  H   H113      1.0  0.42008  0.45781  0.78320  1.0000
  C   C93       1.0  0.33306  0.47691  0.81447  1.0000
  H   H114      1.0  0.18098  0.01707  0.67357  1.0000
  H   H115      1.0  0.29954  0.47922  0.87959  1.0000
  C   C94       1.0  0.16552  0.34964  0.70057  1.0000
  H   H116      1.0  0.24926  0.44178  0.85561  1.0000
  H   H117      1.0  0.22916  0.12870  0.71112  1.0000
  H   H118      1.0  0.34275  0.47587  0.79652  1.0000
  C   C95       1.0  0.27727  0.32160  0.68791  1.0000
  C   C96       1.0  0.24341  0.30059  0.70471  1.0000
  C   C97       1.0  0.21609  0.26634  0.70081  1.0000
  H   H119      1.0  0.27249  0.23985  0.71562  1.0000
  C   C98       1.0  0.25010  0.15635  0.70448  1.0000
  H   H120      1.0  0.22588  0.17674  0.73109  1.0000
  C   C99       1.0  0.27452  0.21886  0.70704  1.0000
  H   H121      1.0  0.32103  0.25584  0.68074  1.0000
  C   C100      1.0  0.24817  0.18332  0.71574  1.0000
  C   C101      1.0  0.39128  0.43341  0.81790  1.0000
  H   H122      1.0  0.27820  0.14298  0.67611  1.0000
  C   C102      1.0  0.42181  0.46047  0.80150  1.0000
  H   H123      1.0  0.17475  0.33143  0.71042  1.0000
  H   H124      1.0  0.17771  0.41042  0.67737  1.0000
  H   H125      1.0  0.23375  0.48787  0.82819  1.0000
  H   H126      1.0  0.16756  0.36989  0.71211  1.0000
  H   H127      1.0  0.24485  0.37040  0.69066  1.0000
  H   H128      1.0  0.00684  0.03814  0.67053  1.0000
  H   H129      1.0  0.25496  0.40414  0.66645  1.0000
  H   H130      1.0  0.07632  0.01106  0.67097  1.0000
  C   C103      1.0  0.28353  0.30857  0.66725  1.0000
  H   H131      1.0  0.37654  0.20103  0.67306  1.0000
  C   C104      1.0  0.30881  0.47910  0.86135  1.0000
  C   C105      1.0  0.17817  0.39078  0.66591  1.0000
  S   S32       1.0  0.27476  0.48576  0.69614  1.0000
  C   C106      1.0  0.16586  0.30294  0.66799  1.0000
  C   C107      1.0  0.25612  0.27445  0.66329  1.0000
  H   H132      1.0  0.14627  0.29118  0.68457  1.0000
  H   H133      1.0  0.48386  0.48520  0.76484  1.0000
  H   H134      1.0  0.38655  0.49000  0.70098  1.0000
  C   C108      1.0  0.22262  0.55284  0.31497  1.0000
  S   S33       1.0  0.27698  0.73650  0.29835  1.0000
  C   C109      1.0  0.21832  0.49487  0.31040  1.0000
  C   C110      1.0  0.45115  0.75300  0.25833  1.0000
  C   C111      1.0  0.12961  0.72831  0.31321  1.0000
  H   H135      1.0  0.29566  0.59933  0.18723  1.0000
  Fe  Fe17      1.0  0.26420  0.68811  0.28082  1.0000
  S   S34       1.0  0.24967  0.68711  0.24396  1.0000
  H   H136      1.0  0.35515  0.54549  0.08058  1.0000
  H   H137      1.0  0.19871  0.60286  0.20430  1.0000
  S   S35       1.0  0.31567  0.68084  0.29224  1.0000
  H   H138      1.0  0.27852  0.62526  0.24386  1.0000
  C   C112      1.0  0.36765  0.59702  0.31632  1.0000
  N   N7        1.0  0.41562  0.60349  0.24427  1.0000
  C   C113      1.0  0.27495  0.60991  0.19377  1.0000
  C   C114      1.0  0.29279  0.59093  0.26552  1.0000
  C   C115      1.0  0.20528  0.52060  0.30564  1.0000
  S   S36       1.0  0.38960  0.63170  0.16491  1.0000
  Fe  Fe18      1.0  0.39655  0.64924  0.09703  1.0000
  S   S37       1.0  0.34318  0.64250  0.12207  1.0000
  S   S38       1.0  0.39388  0.66341  0.05864  1.0000
  Fe  Fe19      1.0  0.38884  0.67730  0.14305  1.0000
  S   S39       1.0  0.38764  0.72234  0.16000  1.0000
  Fe  Fe20      1.0  0.34971  0.59765  0.14125  1.0000
  C   C116      1.0  0.29284  0.55694  0.04185  1.0000
  S   S40       1.0  0.44204  0.68808  0.11671  1.0000
  C   C117      1.0  0.43318  0.79349  0.20820  1.0000
  C   C118      1.0  0.39598  0.58755  0.02085  1.0000
  C   C119      1.0  0.39818  0.60755  0.03932  1.0000
  H   H139      1.0  0.40103  0.56443  0.02345  1.0000
  H   H140      1.0  0.40570  0.60033  0.05587  1.0000
  H   H141      1.0  0.30555  0.61016  0.27740  1.0000
  H   H142      1.0  0.47572  0.75229  0.26747  1.0000
  C   C120      1.0  0.27653  0.59901  0.24648  1.0000
  C   C121      1.0  0.37699  0.62709  0.30036  1.0000
  H   H143      1.0  0.39964  0.65406  0.26576  1.0000
  C   C122      1.0  0.25661  0.53978  0.23647  1.0000
  C   C123      1.0  0.31423  0.52307  0.17657  1.0000
  C   C124      1.0  0.36508  0.78619  0.21082  1.0000
  C   C125      1.0  0.27338  0.53219  0.25537  1.0000
  C   C126      1.0  0.28816  0.69520  0.22100  1.0000
  C   C127      1.0  0.32512  0.69716  0.22531  1.0000
  C   C128      1.0  0.35518  0.70377  0.20649  1.0000
  C   C129      1.0  0.34833  0.70858  0.18336  1.0000
  C   C130      1.0  0.31113  0.70588  0.17907  1.0000
  C   C131      1.0  0.28103  0.69899  0.19785  1.0000
  H   H144      1.0  0.33099  0.69438  0.24305  1.0000
  H   H145      1.0  0.38425  0.70653  0.20984  1.0000
  H   H146      1.0  0.30600  0.71011  0.16122  1.0000
  H   H147      1.0  0.25249  0.69743  0.19442  1.0000
  C   C132      1.0  0.29051  0.52957  0.05894  1.0000
  H   H148      1.0  0.48131  0.84207  0.25302  1.0000
  H   H149      1.0  0.20496  0.55969  0.18430  1.0000
  H   H150      1.0  0.19192  0.53035  0.21151  1.0000
  C   C133      1.0  0.21366  0.59768  0.21885  1.0000
  H   H151      1.0  0.18985  0.57930  0.23349  1.0000
  H   H152      1.0  0.47700  0.62405  0.25080  1.0000
  H   H153      1.0  0.44787  0.80766  0.27626  1.0000
  C   C134      1.0  0.42335  0.63650  0.22889  1.0000
  H   H154      1.0  0.18456  0.73281  0.29492  1.0000
  C   C135      1.0  0.39122  0.63719  0.03614  1.0000
  H   H155      1.0  0.27557  0.57567  0.08500  1.0000
  H   H156      1.0  0.40120  0.52367  0.18893  1.0000
  Fe  Fe21      1.0  0.32454  0.72563  0.31251  1.0000
  H   H157      1.0  0.30320  0.55121  0.28498  1.0000
  H   H158      1.0  0.29745  0.58270  0.04599  1.0000
  C   C136      1.0  0.28709  0.49579  0.19427  1.0000
  C   C137      1.0  0.30019  0.56942  0.08922  1.0000
  H   H159      1.0  0.47562  0.69636  0.16178  1.0000
  C   C138      1.0  0.29140  0.55765  0.26988  1.0000
  H   H160      1.0  0.39723  0.57373  0.21545  1.0000
  C   C139      1.0  0.25411  0.50705  0.09844  1.0000
  H   H161      1.0  0.33981  0.78431  0.20231  1.0000
  H   H162      1.0  0.23682  0.54084  0.19136  1.0000
  H   H163      1.0  0.30184  0.57148  0.10815  1.0000
  H   H164      1.0  0.45067  0.57658  0.25325  1.0000
  H   H165      1.0  0.35677  0.57268  0.23494  1.0000
  C   C140      1.0  0.45419  0.60164  0.24328  1.0000
  H   H166      1.0  0.40343  0.79553  0.17838  1.0000
  H   H167      1.0  0.42453  0.74436  0.27207  1.0000
  C   C141      1.0  0.38072  0.62712  0.99580  1.0000
  H   H168      1.0  0.45913  0.72791  0.02037  1.0000
  H   H169      1.0  0.22830  0.51050  0.09294  1.0000
  C   C142      1.0  0.38724  0.59724  0.99904  1.0000
  C   C143      1.0  0.36096  0.78030  0.23519  1.0000
  H   H170      1.0  0.43523  0.63677  0.21049  1.0000
  H   H171      1.0  0.37663  0.55407  0.16118  1.0000
  H   H172      1.0  0.18307  0.51626  0.29402  1.0000
  H   H173      1.0  0.26429  0.61867  0.17833  1.0000
  H   H174      1.0  0.46737  0.60329  0.22496  1.0000
  H   H175      1.0  0.44344  0.73258  0.24628  1.0000
  H   H176      1.0  0.22495  0.79585  0.29981  1.0000
  S   S41       1.0  0.29703  0.54517  0.15690  1.0000
  C   C144      1.0  0.21758  0.55195  0.19917  1.0000
  S   S42       1.0  0.38693  0.76793  0.31437  1.0000
  C   C145      1.0  0.47245  0.56452  0.31689  1.0000
  N   N8        1.0  0.29269  0.53349  0.08403  1.0000
  C   C146      1.0  0.19306  0.78203  0.30672  1.0000
  S   S43       1.0  0.39992  0.60164  0.11501  1.0000
  H   H177      1.0  0.45961  0.79763  0.19662  1.0000
  C   C147      1.0  0.25757  0.57353  0.23145  1.0000
  Fe  Fe22      1.0  0.43991  0.63980  0.13734  1.0000
  H   H178      1.0  0.47176  0.52042  0.27056  1.0000
  C   C148      1.0  0.39287  0.78104  0.24620  1.0000
  C   C149      1.0  0.01637  0.97405  0.31963  1.0000
  H   H179      1.0  0.46780  0.53302  0.18905  1.0000
  C   C150      1.0  0.42619  0.49998  0.30092  1.0000
  H   H180      1.0  0.33241  0.77395  0.24559  1.0000
  H   H181      1.0  0.32916  0.53118  0.11027  1.0000
  H   H182      1.0  0.21341  0.57313  0.31078  1.0000
  C   C151      1.0  0.39288  0.62984  0.27702  1.0000
  H   H183      1.0  0.29338  0.63418  0.20143  1.0000
  C   C152      1.0  0.32582  0.52708  0.09165  1.0000
  H   H184      1.0  0.36678  0.54605  0.32158  1.0000
  C   C153      1.0  0.38248  0.64685  0.01434  1.0000
  H   H185      1.0  0.37713  0.66981  0.01177  1.0000
  S   S44       1.0  0.21819  0.64916  0.31060  1.0000
  C   C154      1.0  0.35542  0.53320  0.17482  1.0000
  H   H186      1.0  0.37169  0.64833  0.30623  1.0000
  C   C155      1.0  0.24740  0.50077  0.32521  1.0000
  C   C156      1.0  0.43021  0.78811  0.23308  1.0000
  N   N9        1.0  0.24104  0.58282  0.21116  1.0000
  H   H187      1.0  0.38131  0.54664  0.24345  1.0000
  H   H188      1.0  0.44642  0.66070  0.23488  1.0000
  C   C157      1.0  0.39967  0.60201  0.26895  1.0000
  H   H189      1.0  0.48243  0.51716  0.22549  1.0000
  C   C158      1.0  0.39021  0.57191  0.28579  1.0000
  H   H190      1.0  0.22975  0.62370  0.22509  1.0000
  H   H191      1.0  0.39520  0.54998  0.28114  1.0000
  C   C159      1.0  0.37418  0.56945  0.30905  1.0000
  Fe  Fe23      1.0  0.27104  0.64604  0.32360  1.0000
  C   C160      1.0  0.38647  0.57278  0.23420  1.0000
  C   C161      1.0  0.36941  0.51595  0.19057  1.0000
  H   H192      1.0  0.24260  0.51849  0.22633  1.0000
  H   H193      1.0  0.32938  0.59067  0.07937  1.0000
  H   H194      1.0  0.38781  0.77542  0.26511  1.0000
  C   C162      1.0  0.17035  0.74652  0.30389  1.0000
  C   C163      1.0  0.46211  0.52567  0.28727  1.0000
  C   C164      1.0  0.17542  0.79933  0.31934  1.0000
  C   C165      1.0  0.40103  0.79264  0.19737  1.0000
  C   C166      1.0  0.28410  0.49317  0.02729  1.0000
  H   H195      1.0  0.39529  0.63911  0.22816  1.0000
  C   C167      1.0  0.28689  0.52062  0.01100  1.0000
  N   N10       1.0  0.46356  0.78887  0.24524  1.0000
  C   C168      1.0  0.29072  0.55221  0.01832  1.0000
  H   H196      1.0  0.19527  0.82645  0.32152  1.0000
  C   C169      1.0  0.28550  0.49733  0.05095  1.0000
  H   H197      1.0  0.11231  0.70047  0.31129  1.0000
  H   H198      1.0  0.27122  0.50592  0.25915  1.0000
  C   C170      1.0  0.47334  0.81501  0.26205  1.0000
  H   H199      1.0  0.99004  0.96252  0.31083  1.0000
  H   H200      1.0  0.25436  0.50981  0.11744  1.0000
  C   C171      1.0  0.41496  0.74653  0.32315  1.0000
  C   C172      1.0  0.11143  0.74551  0.32546  1.0000
  H   H201      1.0  0.47212  0.79419  0.31558  1.0000
  H   H202      1.0  0.32076  0.49942  0.09071  1.0000
  H   H203      1.0  0.29378  0.57376  0.00542  1.0000
  C   C173      1.0  0.48505  0.55815  0.29507  1.0000
  C   C174      1.0  0.45689  0.76586  0.32177  1.0000
  C   C175      1.0  0.47393  0.71526  0.01066  1.0000
  H   H204      1.0  0.09859  0.81853  0.31141  1.0000
  C   C176      1.0  0.41379  0.50601  0.32288  1.0000
  H   H205      1.0  0.05987  0.77626  0.32634  1.0000
  Fe  Fe24      1.0  0.12401  0.85226  0.61723  1.0000
  S   S45       1.0  0.15472  0.91118  0.60594  1.0000
  S   S46       1.0  0.18943  0.70355  0.35336  1.0000
  Fe  Fe25      1.0  0.20004  0.85177  0.63169  1.0000
  S   S47       1.0  0.23735  0.91112  0.62121  1.0000
  H   H206      1.0  0.19995  0.97506  0.54028  1.0000
  Fe  Fe26      1.0  0.18289  0.91366  0.63861  1.0000
  C   C177      1.0  0.10989  0.94417  0.49058  1.0000
  Fe  Fe27      1.0  0.20549  0.90299  0.58964  1.0000
  S   S48       1.0  0.23302  0.92523  0.55219  1.0000
  H   H207      1.0  0.16916  0.98216  0.52054  1.0000
  S   S49       1.0  0.17282  0.84378  0.59842  1.0000
  Fe  Fe28      1.0  0.10586  0.86023  0.40464  1.0000
  S   S50       1.0  0.16757  0.90221  0.38804  1.0000
  S   S51       1.0  0.05834  0.84910  0.38114  1.0000
  Fe  Fe29      1.0  0.13504  0.84787  0.45026  1.0000
  S   S52       1.0  0.19897  0.88784  0.43662  1.0000
  S   S53       1.0  0.11745  0.82345  0.48840  1.0000
  Fe  Fe30      1.0  0.17190  0.92156  0.42290  1.0000
  C   C178      1.0  0.03030  0.83764  0.62534  1.0000
  Fe  Fe31      1.0  0.18805  0.86380  0.40340  1.0000
  S   S54       1.0  0.23598  0.85651  0.38137  1.0000
  S   S55       1.0  0.10831  0.88305  0.43821  1.0000
  S   S56       1.0  0.12577  0.82045  0.41807  1.0000
  C   C179      1.0  0.07385  0.96534  0.52618  1.0000
  H   H208      1.0  0.42715  0.76866  0.65799  1.0000
  H   H209      1.0  0.07969  0.79079  0.37656  1.0000
  H   H210      1.0  0.18278  0.74261  0.62273  1.0000
  H   H211      1.0  0.23412  0.98701  0.61622  1.0000
  H   H212      1.0  0.19020  0.95258  0.51519  1.0000
  H   H213      1.0  0.07062  0.85772  0.65072  1.0000
  N   N11       1.0  0.11397  0.79894  0.34247  1.0000
  H   H214      1.0  0.02097  0.81622  0.42912  1.0000
  H   H215      1.0  0.13074  0.71594  0.55412  1.0000
  H   H216      1.0  0.05885  0.94686  0.57440  1.0000
  C   C180      1.0  0.20105  0.89699  0.53447  1.0000
  C   C181      1.0  0.15956  0.87735  0.54226  1.0000
  C   C182      1.0  0.13404  0.85522  0.52784  1.0000
  C   C183      1.0  0.14986  0.85234  0.50576  1.0000
  C   C184      1.0  0.19142  0.87159  0.49819  1.0000
  C   C185      1.0  0.21689  0.89434  0.51233  1.0000
  H   H217      1.0  0.14714  0.87930  0.55936  1.0000
  H   H218      1.0  0.10199  0.84019  0.53371  1.0000
  H   H219      1.0  0.20428  0.86804  0.48182  1.0000
  H   H220      1.0  0.24902  0.90906  0.50636  1.0000
  C   C186      1.0  0.00444  0.89774  0.55319  1.0000
  H   H221      1.0  0.40230  0.66470  0.34567  1.0000
  C   C187      1.0  0.17884  0.75008  0.37928  1.0000
  H   H222      1.0  0.18746  0.98103  0.38337  1.0000
  C   C188      1.0  0.05036  0.97115  0.35349  1.0000
  N   N12       1.0  0.45934  0.68262  0.64202  1.0000
  C   C189      1.0  0.09871  0.75363  0.62846  1.0000
  C   C190      1.0  0.10639  0.72378  0.55284  1.0000
  C   C191      1.0  0.08951  0.92068  0.51141  1.0000
  H   H223      1.0  0.37866  0.81471  0.39568  1.0000
  C   C192      1.0  0.00833  0.82999  0.39519  1.0000
  H   H224      1.0  0.02374  0.98770  0.63366  1.0000
  C   C193      1.0  0.11237  0.97803  0.48756  1.0000
  C   C194      1.0  0.22374  0.81369  0.37437  1.0000
  H   H225      1.0  0.10219  0.72541  0.53402  1.0000
  H   H226      1.0  0.03207  0.98980  0.45059  1.0000
  H   H227      1.0  0.32372  0.76626  0.34982  1.0000
  H   H228      1.0  0.27565  0.83273  0.34770  1.0000
  H   H229      1.0  0.28643  0.53680  0.34637  1.0000
  S   S57       1.0  0.06074  0.82343  0.60923  1.0000
  H   H230      1.0  0.07847  0.75645  0.64178  1.0000
  C   C195      1.0  0.03441  0.96909  0.64105  1.0000
  C   C196      1.0  0.26386  0.53242  0.33498  1.0000
  C   C197      1.0  0.33667  0.78637  0.36179  1.0000
  H   H231      1.0  0.16584  0.83422  0.35709  1.0000
  H   H232      1.0  0.42752  0.54308  0.34790  1.0000
  C   C198      1.0  0.45947  0.71207  0.33738  1.0000
  H   H233      1.0  0.04789  0.90437  0.58930  1.0000
  N   N13       1.0  0.32833  0.76896  0.38643  1.0000
  H   H234      1.0  0.09610  0.93120  0.57166  1.0000
  H   H235      1.0  0.36947  0.80193  0.35516  1.0000
  H   H236      1.0  0.01469  0.90934  0.40386  1.0000
  C   C199      1.0  0.34594  0.79703  0.40155  1.0000
  H   H237      1.0  0.08893  0.79289  0.56421  1.0000
  H   H238      1.0  0.17032  0.78649  0.40000  1.0000
  C   C200      1.0  0.13391  0.78143  0.32925  1.0000
  H   H239      1.0  0.32361  0.80512  0.35967  1.0000
  C   C201      1.0  0.08393  0.76789  0.55710  1.0000
  C   C202      1.0  0.08807  0.95985  0.65375  1.0000
  H   H240      1.0  0.23687  0.75455  0.65466  1.0000
  H   H241      1.0  0.17353  0.74586  0.58153  1.0000
  N   N14       1.0  0.05184  0.95351  0.37639  1.0000
  H   H242      1.0  0.34221  0.78497  0.42006  1.0000
  H   H243      1.0  0.33133  0.81479  0.40140  1.0000
  C   C203      1.0  0.14250  0.83510  0.34691  1.0000
  H   H244      1.0  0.36584  0.84613  0.63938  1.0000
  H   H245      1.0  0.31515  0.83479  0.65118  1.0000
  H   H246      1.0  0.27106  0.76978  0.39258  1.0000
  C   C204      1.0  0.34683  0.74469  0.38835  1.0000
  H   H247      1.0  0.30514  0.77691  0.66040  1.0000
  H   H248      1.0  0.99998  0.92185  0.55347  1.0000
  C   C205      1.0  0.15203  0.74814  0.59410  1.0000
  H   H249      1.0  0.15772  0.85395  0.33035  1.0000
  C   C206      1.0  0.38928  0.75841  0.38291  1.0000
  H   H250      1.0  0.40873  0.78636  0.37667  1.0000
  C   C207      1.0  0.28386  0.75069  0.39363  1.0000
  H   H251      1.0  0.26813  0.73073  0.38198  1.0000
  C   C208      1.0  0.12019  0.75413  0.58691  1.0000
  C   C209      1.0  0.18912  0.78377  0.38590  1.0000
  H   H252      1.0  0.27532  0.73708  0.41208  1.0000
  C   C210      1.0  0.42314  0.64724  0.64641  1.0000
  H   H253      1.0  0.29130  0.69403  0.39930  1.0000
  C   C211      1.0  0.32380  0.70720  0.39541  1.0000
  C   C212      1.0  0.99405  0.83337  0.61809  1.0000
  S   S58       1.0  0.19397  0.97614  0.43313  1.0000
  S   S59       1.0  0.27593  0.59909  0.34080  1.0000
  C   C213      1.0  0.20355  0.74602  0.36140  1.0000
  C   C214      1.0  0.34236  0.68513  0.39680  1.0000
  H   H254      1.0  0.16406  0.81196  0.55482  1.0000
  C   C215      1.0  0.13099  0.74885  0.63479  1.0000
  C   C216      1.0  0.01906  0.86700  0.65727  1.0000
  C   C217      1.0  0.42310  0.61614  0.63908  1.0000
  H   H255      1.0  0.08183  0.93634  0.64460  1.0000
  H   H256      1.0  0.07813  0.70176  0.56303  1.0000
  H   H257      1.0  0.08894  0.89492  0.51245  1.0000
  C   C218      1.0  0.99801  0.81596  0.41903  1.0000
  H   H258      1.0  0.13602  0.74809  0.65295  1.0000
  H   H259      1.0  0.15174  0.72703  0.38810  1.0000
  N   N15       1.0  0.11611  0.75799  0.56171  1.0000
  C   C219      1.0  0.08396  0.80257  0.32903  1.0000
  C   C220      1.0  0.09274  0.77712  0.36563  1.0000
  H   H260      1.0  0.06117  0.96568  0.41152  1.0000
  N   N16       1.0  0.04746  0.90607  0.55185  1.0000
  H   H261      1.0  0.17977  0.77938  0.54813  1.0000
  C   C221      1.0  0.25216  0.55881  0.32952  1.0000
  C   C222      1.0  0.15734  0.74575  0.61768  1.0000
  H   H262      1.0  0.38921  0.55962  0.63841  1.0000
  C   C223      1.0  0.45000  0.70933  0.62941  1.0000
  H   H263      1.0  0.07628  0.92227  0.36042  1.0000
  C   C224      1.0  0.40752  0.73615  0.38472  1.0000
  C   C225      1.0  0.23889  0.77576  0.35031  1.0000
  H   H264      1.0  0.43990  0.74702  0.37986  1.0000
  C   C226      1.0  0.35291  0.58000  0.65595  1.0000
  H   H265      1.0  0.08303  0.77270  0.53793  1.0000
  C   C227      1.0  0.07059  0.93057  0.52989  1.0000
  H   H266      1.0  0.05347  0.74647  0.56504  1.0000
  H   H267      1.0  0.05988  0.97463  0.53924  1.0000
  S   S60       1.0  0.22901  0.81644  0.64022  1.0000
  C   C228      1.0  0.24882  0.80960  0.35670  1.0000
  H   H268      1.0  0.12684  0.84722  0.35730  1.0000
  H   H269      1.0  0.03196  0.85401  0.57029  1.0000
  H   H270      1.0  0.44983  0.61629  0.63031  1.0000
  H   H271      1.0  0.99880  0.93179  0.47873  1.0000
  C   C229      1.0  0.00142  0.98743  0.45014  1.0000
  S   S61       1.0  0.14759  0.85469  0.65170  1.0000
  H   H272      1.0  0.06740  0.75973  0.60143  1.0000
  H   H273      1.0  0.11350  0.96407  0.36670  1.0000
  C   C230      1.0  0.09294  0.75582  0.60496  1.0000
  C   C231      1.0  0.38411  0.69959  0.39162  1.0000
  H   H274      1.0  0.14143  0.97487  0.61838  1.0000
  H   H275      1.0  0.35558  0.78251  0.65625  1.0000
  H   H276      1.0  0.15173  0.79091  0.52909  1.0000
  H   H277      1.0  0.43933  0.70114  0.61255  1.0000
  C   C232      1.0  0.41762  0.69285  0.33877  1.0000
  C   C233      1.0  0.01736  0.95597  0.34078  1.0000
  C   C234      1.0  0.08315  0.94151  0.37328  1.0000
  H   H278      1.0  0.07969  0.73026  0.33217  1.0000
  H   H279      1.0  0.06705  0.75108  0.36415  1.0000
  H   H280      1.0  0.02394  0.94582  0.63130  1.0000
  H   H281      1.0  0.08074  0.87616  0.55353  1.0000
  H   H282      1.0  0.32634  0.55416  0.65979  1.0000
  C   C235      1.0  0.15452  0.78614  0.54794  1.0000
  C   C236      1.0  0.06330  0.92302  0.57259  1.0000
  C   C237      1.0  0.01305  0.92190  0.38654  1.0000
  C   C238      1.0  0.38836  0.58314  0.64378  1.0000
  H   H283      1.0  0.08542  0.92793  0.39004  1.0000
  H   H284      1.0  0.42618  0.71308  0.63981  1.0000
  C   C239      1.0  0.04926  0.87175  0.55361  1.0000
  H   H285      1.0  0.25807  0.77282  0.33650  1.0000
  H   H286      1.0  0.12405  0.93610  0.47665  1.0000
  H   H287      1.0  0.39837  0.68234  0.39216  1.0000
  H   H288      1.0  0.12001  0.97185  0.65668  1.0000
  S   S62       1.0  0.28423  0.69042  0.34488  1.0000
  H   H289      1.0  0.99118  0.93070  0.34712  1.0000
  C   C240      1.0  0.04283  0.85456  0.64491  1.0000
  H   H290      1.0  0.32418  0.65647  0.40139  1.0000
  H   H291      1.0  0.11368  0.77164  0.37565  1.0000
  H   H292      1.0  0.01820  0.95921  0.65936  1.0000
  H   H293      1.0  0.03605  0.85634  0.53929  1.0000
  C   C241      1.0  0.06214  0.97882  0.39381  1.0000
  C   C242      1.0  0.38647  0.64303  0.65882  1.0000
  H   H294      1.0  0.47684  0.73615  0.62551  1.0000
  H   H295      1.0  0.35526  0.59511  0.33438  1.0000
  C   C243      1.0  0.19637  0.97832  0.52148  1.0000
  C   C244      1.0  0.39545  0.70996  0.33141  1.0000
  H   H296      1.0  0.00464  0.90066  0.37518  1.0000
  H   H297      1.0  0.98625  0.83982  0.36368  1.0000
  N   N17       1.0  0.07885  0.98604  0.64032  1.0000
  H   H298      1.0  0.22767  0.98071  0.47722  1.0000
  H   H299      1.0  0.36314  0.69480  0.33275  1.0000
  H   H300      1.0  0.06867  0.81611  0.33832  1.0000
  H   H301      1.0  0.26757  0.97980  0.50569  1.0000
  H   H302      1.0  0.99124  0.88498  0.53793  1.0000
  C   C245      1.0  0.34641  0.84466  0.65559  1.0000
  C   C246      1.0  0.43722  0.53812  0.33102  1.0000
  H   H303      1.0  0.98936  0.97369  0.43494  1.0000
  H   H304      1.0  0.98802  0.92912  0.38903  1.0000
  C   C247      1.0  0.98895  0.98584  0.49324  1.0000
  C   C248      1.0  0.13093  0.98974  0.60729  1.0000
  C   C249      1.0  0.09476  0.98870  0.50542  1.0000
  S   S63       1.0  0.18376  0.95422  0.66131  1.0000
  H   H305      1.0  0.42097  0.88308  0.65756  1.0000
  H   H306      1.0  0.35534  0.87203  0.65986  1.0000
  Fe  Fe32      1.0  0.23547  0.69708  0.32926  1.0000
  C   C250      1.0  0.47923  0.74850  0.32856  1.0000
  H   H307      1.0  0.27311  0.69947  0.89736  1.0000
  C   C251      1.0  0.21067  0.54220  0.86072  1.0000
  Fe  Fe33      1.0  0.23844  0.69799  0.74046  1.0000
  S   S64       1.0  0.23985  0.66155  0.71485  1.0000
  S   S65       1.0  0.20580  0.73141  0.74049  1.0000
  Fe  Fe34      1.0  0.29868  0.68749  0.76786  1.0000
  S   S66       1.0  0.30590  0.65078  0.74467  1.0000
  S   S67       1.0  0.33781  0.70627  0.79576  1.0000
  Fe  Fe35      1.0  0.30677  0.68913  0.71520  1.0000
  S   S68       1.0  0.35269  0.71206  0.68266  1.0000
  Fe  Fe36      1.0  0.23888  0.62653  0.74667  1.0000
  S   S69       1.0  0.20415  0.56725  0.75638  1.0000
  S   S70       1.0  0.30538  0.72812  0.73828  1.0000
  S   S71       1.0  0.23135  0.66034  0.77240  1.0000
  Fe  Fe37      1.0  0.42039  0.63587  0.89423  1.0000
  C   C252      1.0  0.46719  0.71281  0.93782  1.0000
  Fe  Fe38      1.0  0.32943  0.59904  0.90329  1.0000
  S   S72       1.0  0.32528  0.54791  0.92118  1.0000
  S   S73       1.0  0.27699  0.60701  0.89382  1.0000
  Fe  Fe39      1.0  0.37579  0.58473  0.93928  1.0000
  S   S74       1.0  0.38306  0.57044  0.97671  1.0000
  S   S75       1.0  0.37614  0.63525  0.92338  1.0000
  S   S76       1.0  0.37379  0.60406  0.87294  1.0000
  H   H308      1.0  0.40551  0.68233  0.78750  1.0000
  C   C253      1.0  0.42312  0.86491  0.67096  1.0000
  C   C254      1.0  0.41714  0.50970  0.70155  1.0000
  H   H309      1.0  0.16844  0.54076  0.88908  1.0000
  H   H310      1.0  0.37359  0.63464  0.97918  1.0000
  C   C255      1.0  0.31983  0.67913  0.82316  1.0000
  C   C256      1.0  0.34725  0.68145  0.83852  1.0000
  C   C257      1.0  0.33384  0.66011  0.86051  1.0000
  C   C258      1.0  0.29292  0.63636  0.86729  1.0000
  C   C259      1.0  0.26517  0.63503  0.85230  1.0000
  C   C260      1.0  0.27865  0.65621  0.83015  1.0000
  H   H311      1.0  0.37905  0.69960  0.83336  1.0000
  H   H312      1.0  0.35530  0.66232  0.87229  1.0000
  H   H313      1.0  0.23340  0.61722  0.85764  1.0000
  H   H314      1.0  0.25720  0.65482  0.81858  1.0000
  C   C261      1.0  0.22296  0.54457  0.73920  1.0000
  H   H315      1.0  0.37925  0.55677  0.78962  1.0000
  C   C262      1.0  0.24228  0.55924  0.71618  1.0000
  H   H316      1.0  0.37171  0.78613  0.70803  1.0000
  H   H317      1.0  0.24502  0.58460  0.70861  1.0000
  H   H318      1.0  0.39060  0.65513  0.75220  1.0000
  H   H319      1.0  0.28709  0.51783  0.99253  1.0000
  C   C263      1.0  0.28722  0.54918  0.84195  1.0000
  S   S77       1.0  0.38624  0.52187  0.86877  1.0000
  C   C264      1.0  0.44113  0.50158  0.71557  1.0000
  C   C265      1.0  0.40220  0.63613  0.80791  1.0000
  H   H320      1.0  0.45870  0.72907  0.97846  1.0000
  H   H321      1.0  0.29008  0.81300  0.69178  1.0000
  H   H322      1.0  0.44731  0.69556  0.67610  1.0000
  C   C266      1.0  0.43257  0.54363  0.68839  1.0000
  C   C267      1.0  0.43328  0.75827  0.67405  1.0000
  S   S78       1.0  0.42429  0.58868  0.91165  1.0000
  C   C268      1.0  0.40165  0.73111  0.68987  1.0000
  C   C269      1.0  0.39593  0.81119  0.69927  1.0000
  H   H323      1.0  0.47080  0.65739  0.92455  1.0000
  H   H324      1.0  0.22994  0.72192  0.69380  1.0000
  C   C270      1.0  0.48092  0.52713  0.71585  1.0000
  C   C271      1.0  0.40965  0.71822  0.71080  1.0000
  H   H325      1.0  0.45573  0.72058  0.73135  1.0000
  S   S79       1.0  0.47446  0.68411  0.87444  1.0000
  C   C272      1.0  0.25012  0.51214  0.81479  1.0000
  C   C273      1.0  0.17403  0.54007  0.87045  1.0000
  C   C274      1.0  0.20836  0.75303  0.71248  1.0000
  H   H326      1.0  0.19543  0.82192  0.68647  1.0000
  H   H327      1.0  0.02852  0.87956  0.67263  1.0000
  H   H328      1.0  0.27844  0.51239  0.80700  1.0000
  C   C275      1.0  0.47295  0.77208  0.67899  1.0000
  C   C276      1.0  0.19780  0.78081  0.71026  1.0000
  C   C277      1.0  0.38912  0.83261  0.68177  1.0000
  C   C278      1.0  0.21868  0.51142  0.74874  1.0000
  H   H329      1.0  0.18687  0.78819  0.72577  1.0000
  H   H330      1.0  0.20276  0.49952  0.76627  1.0000
  N   N18       1.0  0.34813  0.82096  0.67549  1.0000
  C   C279      1.0  0.38420  0.60304  0.76696  1.0000
  H   H331      1.0  0.31578  0.55076  0.83328  1.0000
  H   H332      1.0  0.32282  0.54246  0.73516  1.0000
  C   C280      1.0  0.39132  0.63884  0.76733  1.0000
  H   H333      1.0  0.25987  0.57366  0.79188  1.0000
  C   C281      1.0  0.36126  0.49829  0.82797  1.0000
  C   C282      1.0  0.40006  0.65493  0.78758  1.0000
  C   C283      1.0  0.37944  0.60920  0.72436  1.0000
  H   H334      1.0  0.29551  0.57404  0.84995  1.0000
  H   H335      1.0  0.39434  0.55530  0.72475  1.0000
  H   H336      1.0  0.11671  0.53586  0.86394  1.0000
  C   C284      1.0  0.25653  0.54029  0.70264  1.0000
  H   H337      1.0  0.39495  0.54581  0.75487  1.0000
  H   H338      1.0  0.43286  0.58759  0.73858  1.0000
  H   H339      1.0  0.32414  0.76367  0.68418  1.0000
  H   H340      1.0  0.45876  0.61495  0.86343  1.0000
  C   C285      1.0  0.48116  0.75797  0.69940  1.0000
  H   H341      1.0  0.31064  0.56879  0.75385  1.0000
  H   H342      1.0  0.35793  0.62050  0.72572  1.0000
  H   H343      1.0  0.32539  0.53668  0.76582  1.0000
  N   N19       1.0  0.25814  0.54491  0.82524  1.0000
  C   C286      1.0  0.20242  0.79981  0.68803  1.0000
  H   H344      1.0  0.47371  0.51443  0.84019  1.0000
  N   N20       1.0  0.23406  0.73769  0.81564  1.0000
  C   C287      1.0  0.22440  0.76764  0.81740  1.0000
  C   C288      1.0  0.26632  0.74851  0.79525  1.0000
  C   C289      1.0  0.19785  0.70645  0.81052  1.0000
  C   C290      1.0  0.24569  0.72866  0.83811  1.0000
  C   C291      1.0  0.28593  0.73599  0.84055  1.0000
  C   C292      1.0  0.21640  0.71235  0.85857  1.0000
  C   C293      1.0  0.29550  0.72585  0.86181  1.0000
  C   C294      1.0  0.22626  0.70201  0.87968  1.0000
  C   C295      1.0  0.26566  0.70837  0.88120  1.0000
  H   H345      1.0  0.25088  0.79167  0.82117  1.0000
  H   H346      1.0  0.21546  0.77519  0.80076  1.0000
  H   H347      1.0  0.19905  0.76083  0.83167  1.0000
  H   H348      1.0  0.29338  0.77379  0.79662  1.0000
  H   H349      1.0  0.25615  0.75327  0.77838  1.0000
  H   H350      1.0  0.27580  0.72743  0.79353  1.0000
  H   H351      1.0  0.16988  0.70079  0.82221  1.0000
  H   H352      1.0  0.19154  0.71050  0.79231  1.0000
  H   H353      1.0  0.20182  0.68197  0.81248  1.0000
  H   H354      1.0  0.31049  0.74847  0.82614  1.0000
  H   H355      1.0  0.18550  0.70704  0.85832  1.0000
  H   H356      1.0  0.32610  0.73048  0.86300  1.0000
  H   H357      1.0  0.20320  0.68860  0.89489  1.0000
  H   H358      1.0  0.38539  0.69756  0.72314  1.0000
  Fe  Fe40      1.0  0.37435  0.55662  0.89215  1.0000
  H   H359      1.0  0.19329  0.53826  0.80388  1.0000
  H   H360      1.0  0.37381  0.59498  0.70874  1.0000
  C   C296      1.0  0.32083  0.82006  0.69605  1.0000
  N   N21       1.0  0.37415  0.58491  0.74600  1.0000
  H   H361      1.0  0.06994  0.94971  0.67157  1.0000
  H   H362      1.0  0.23141  0.50860  0.80055  1.0000
  C   C297      1.0  0.40027  0.56779  0.74097  1.0000
  H   H363      1.0  0.26964  0.55076  0.68455  1.0000
  C   C298      1.0  0.43429  0.82110  0.70538  1.0000
  H   H364      1.0  0.27484  0.52608  0.85626  1.0000
  C   C299      1.0  0.33145  0.55703  0.75048  1.0000
  C   C300      1.0  0.14504  0.53749  0.85631  1.0000
  C   C301      1.0  0.38546  0.58434  0.78824  1.0000
  H   H365      1.0  0.45030  0.54810  0.78705  1.0000
  H   H366      1.0  0.39680  0.58637  0.82412  1.0000
  C   C302      1.0  0.25366  0.50777  0.71250  1.0000
  H   H367      1.0  0.41071  0.63146  0.72033  1.0000
  H   H368      1.0  0.40996  0.64907  0.82338  1.0000
  C   C303      1.0  0.44947  0.73119  0.71541  1.0000
  C   C304      1.0  0.39480  0.60085  0.80826  1.0000
  H   H369      1.0  0.43880  0.80377  0.71845  1.0000
  H   H370      1.0  0.12999  0.53478  0.82129  1.0000
  H   H371      1.0  0.28324  0.60107  0.81340  1.0000
  H   H372      1.0  0.30782  0.57971  0.79839  1.0000
  C   C305      1.0  0.27798  0.57607  0.80639  1.0000
  C   C306      1.0  0.21954  0.54225  0.83628  1.0000
  C   C307      1.0  0.22625  0.76212  0.67019  1.0000
  C   C308      1.0  0.22220  0.74353  0.69234  1.0000
  H   H373      1.0  0.39259  0.51374  0.82038  1.0000
  C   C309      1.0  0.46708  0.85257  0.69422  1.0000
  C   C310      1.0  0.47514  0.63419  0.84798  1.0000
  C   C311      1.0  0.18908  0.53912  0.82249  1.0000
  H   H374      1.0  0.33247  0.84649  0.70230  1.0000
  H   H375      1.0  0.41362  0.54993  0.67796  1.0000
  C   C312      1.0  0.15252  0.53693  0.83237  1.0000
  C   C313      1.0  0.46554  0.53615  0.77609  1.0000
  C   C314      1.0  0.46149  0.87452  0.67713  1.0000
  H   H376      1.0  0.46653  0.71062  0.91877  1.0000
  H   H377      1.0  0.44284  0.51676  0.76664  1.0000
  H   H378      1.0  0.47882  0.67462  0.67476  1.0000
  H   H379      1.0  0.23175  0.54437  0.87273  1.0000
  H   H380      1.0  0.31695  0.80000  0.71107  1.0000
  N   N22       1.0  0.48460  0.51937  0.79069  1.0000
  H   H381      1.0  0.43518  0.69928  0.94647  1.0000
  C   C315      1.0  0.47138  0.56994  0.68999  1.0000
  H   H382      1.0  0.44189  0.64291  0.95354  1.0000
  H   H383      1.0  0.48053  0.74179  0.93908  1.0000
  C   C316      1.0  0.48402  0.62242  0.82747  1.0000
  C   C317      1.0  0.34934  0.49897  0.85150  1.0000
  C   C318      1.0  0.47278  0.65888  0.94353  1.0000
  H   H384      1.0  0.32443  0.60777  0.67281  1.0000
  C   C319      1.0  0.21740  0.79084  0.66800  1.0000
  C   C320      1.0  0.33269  0.78461  0.66881  1.0000
  H   H385      1.0  0.47372  0.59422  0.82742  1.0000
  C   C321      1.0  0.45212  0.49208  0.83305  1.0000
  C   C322      1.0  0.47361  0.71538  0.98649  1.0000
  C   C323      1.0  0.47156  0.69391  0.66474  1.0000
  C   C324      1.0  0.23496  0.49351  0.73565  1.0000
  C   C325      1.0  0.35194  0.60998  0.66336  1.0000
  H   H386      1.0  0.38422  0.66526  0.66530  1.0000
  C   C326      1.0  0.45324  0.49069  0.80853  1.0000
  S   S80       1.0  0.96282  0.01841  0.59347  1.0000
  C   C327      1.0  0.98094  0.00591  0.37705  1.0000
  C   C328      1.0  0.97131  0.03568  0.40917  1.0000
  C   C329      1.0  0.93230  0.00765  0.41595  1.0000
  H   H387      1.0  0.90947  0.01207  0.51100  1.0000
  H   H388      1.0  0.92185  0.02797  0.55073  1.0000
  C   C330      1.0  0.94115  0.04644  0.53532  1.0000
  H   H389      1.0  0.91304  0.00850  0.43072  1.0000
  H   H390      1.0  0.95894  0.00556  0.64399  1.0000
  C   C331      1.0  0.93424  0.03741  0.51301  1.0000
  C   C332      1.0  0.97284  0.07922  0.53800  1.0000
  H   H391      1.0  0.97609  0.08502  0.55574  1.0000
  C   C333      1.0  0.95906  0.06114  0.49329  1.0000
  H   H392      1.0  0.95335  0.05443  0.47587  1.0000
  H   H393      1.0  0.93651  0.99326  0.46692  1.0000
  C   C334      1.0  0.98587  0.02987  0.63699  1.0000
  H   H394      1.0  0.51732  0.48938  0.78589  1.0000
  C   C335      1.0  0.52287  0.70906  0.21024  1.0000
  S   S81       1.0  0.57052  0.66735  0.31942  1.0000
  C   C336      1.0  0.51038  0.54319  0.22336  1.0000
  S   S82       1.0  0.57448  0.74317  0.29457  1.0000
  Fe  Fe41      1.0  0.52927  0.69237  0.31706  1.0000
  Fe  Fe42      1.0  0.54769  0.64536  0.28684  1.0000
  S   S83       1.0  0.59556  0.69216  0.26218  1.0000
  S   S84       1.0  0.52884  0.59054  0.27701  1.0000
  Fe  Fe43      1.0  0.61453  0.71664  0.29478  1.0000
  S   S85       1.0  0.68090  0.74554  0.29808  1.0000
  Fe  Fe44      1.0  0.55122  0.71387  0.26431  1.0000
  N   N23       1.0  0.52793  0.55731  0.19831  1.0000
  H   H395      1.0  0.53648  0.64149  0.19100  1.0000
  C   C337      1.0  0.50163  0.71407  0.19279  1.0000
  C   C338      1.0  0.73332  0.78240  0.32763  1.0000
  H   H396      1.0  0.55152  0.67843  0.22291  1.0000
  C   C339      1.0  0.58158  0.61021  0.21380  1.0000
  C   C340      1.0  0.63062  0.66229  0.18715  1.0000
  H   H397      1.0  0.54953  0.53871  0.16928  1.0000
  H   H398      1.0  0.75697  0.78751  0.31346  1.0000
  H   H399      1.0  0.62743  0.65968  0.15045  1.0000
  H   H400      1.0  0.51164  0.76340  0.32757  1.0000
  C   C341      1.0  0.52676  0.66163  0.19142  1.0000
  C   C342      1.0  0.53527  0.68265  0.20955  1.0000
  H   H401      1.0  0.51255  0.82601  0.21869  1.0000
  S   S86       1.0  0.53190  0.73484  0.23328  1.0000
  C   C343      1.0  0.69277  0.76294  0.32456  1.0000
  H   H402      1.0  0.49015  0.69638  0.04162  1.0000
  C   C344      1.0  0.49139  0.69738  0.02274  1.0000
  C   C345      1.0  0.53915  0.53140  0.18851  1.0000
  C   C346      1.0  0.61485  0.64561  0.16814  1.0000
  H   H403      1.0  0.57077  0.59977  0.15651  1.0000
  H   H404      1.0  0.62651  0.65755  0.22470  1.0000
  H   H405      1.0  0.65540  0.68916  0.18429  1.0000
  H   H406      1.0  0.48994  0.58965  0.32299  1.0000
  S   S87       1.0  0.50226  0.66567  0.28697  1.0000
  C   C347      1.0  0.58224  0.61128  0.17183  1.0000
  C   C348      1.0  0.56390  0.59281  0.19483  1.0000
  C   C349      1.0  0.61424  0.64449  0.20989  1.0000
  H   H407      1.0  0.53177  0.53862  0.23358  1.0000
  H   H408      1.0  0.49909  0.81684  0.27100  1.0000
  C   C350      1.0  0.50499  0.66614  0.17421  1.0000
  H   H409      1.0  0.50452  0.56639  0.16673  1.0000
  H   H410      1.0  0.57044  0.59830  0.23191  1.0000
  H   H411      1.0  0.56403  0.52998  0.19689  1.0000
  H   H412      1.0  0.50194  0.56186  0.23187  1.0000
  H   H413      1.0  0.51314  0.50406  0.19138  1.0000
  H   H414      1.0  0.52254  0.66588  0.02021  1.0000
  H   H415      1.0  0.72826  0.70182  0.31599  1.0000
  C   C351      1.0  0.49569  0.55910  0.18605  1.0000
  C   C352      1.0  0.50932  0.68003  0.01067  1.0000
  H   H416      1.0  0.49165  0.73425  0.19317  1.0000
  S   S88       1.0  0.49149  0.63733  0.15284  1.0000
  H   H417      1.0  0.52605  0.80003  0.23876  1.0000
  C   C353      1.0  0.49242  0.69248  0.17495  1.0000
  C   C354      1.0  0.50138  0.79918  0.22907  1.0000
  H   H418      1.0  0.49725  0.77944  0.21683  1.0000
  H   H419      1.0  0.48744  0.57937  0.19218  1.0000
  Fe  Fe45      1.0  0.84585  0.89617  0.62949  1.0000
  S   S89       1.0  0.87017  0.85743  0.62429  1.0000
  H   H420      1.0  0.98368  0.81954  0.60333  1.0000
  Fe  Fe46      1.0  0.92578  0.96041  0.60787  1.0000
  S   S90       1.0  0.95596  0.92644  0.60125  1.0000
  Fe  Fe47      1.0  0.89852  0.89025  0.58895  1.0000
  S   S91       1.0  0.90072  0.86350  0.55732  1.0000
  Fe  Fe48      1.0  0.92447  0.89763  0.63713  1.0000
  C   C355      1.0  0.94232  0.97731  0.38425  1.0000
  S   S92       1.0  0.87029  0.92637  0.59309  1.0000
  S   S93       1.0  0.89858  0.93442  0.64495  1.0000
  Fe  Fe49      1.0  0.85509  0.82332  0.42062  1.0000
  S   S94       1.0  0.87788  0.78420  0.43038  1.0000
  Fe  Fe50      1.0  0.82876  0.87384  0.44129  1.0000
  H   H421      1.0  0.81785  0.85397  0.57924  1.0000
  S   S95       1.0  0.82154  0.89744  0.47339  1.0000
  Fe  Fe51      1.0  0.78748  0.83364  0.40252  1.0000
  S   S96       1.0  0.79584  0.81584  0.43850  1.0000
  S   S97       1.0  0.88906  0.87982  0.42694  1.0000
  C   C356      1.0  0.76956  0.74667  0.40244  1.0000
  C   C357      1.0  0.66231  0.75643  0.34292  1.0000
  C   C358      1.0  0.87730  0.87171  0.53424  1.0000
  C   C359      1.0  0.87629  0.85550  0.51407  1.0000
  C   C360      1.0  0.85903  0.86306  0.49518  1.0000
  C   C361      1.0  0.84222  0.88640  0.49669  1.0000
  C   C362      1.0  0.84286  0.90219  0.51690  1.0000
  C   C363      1.0  0.86068  0.89512  0.53547  1.0000
  H   H422      1.0  0.88907  0.83729  0.51294  1.0000
  H   H423      1.0  0.85837  0.85060  0.47960  1.0000
  H   H424      1.0  0.83002  0.92036  0.51804  1.0000
  H   H425      1.0  0.86187  0.90833  0.55049  1.0000
  H   H426      1.0  0.73103  0.84434  0.55897  1.0000
  C   C364      1.0  0.71282  0.78847  0.36739  1.0000
  C   C365      1.0  0.73937  0.83269  0.52453  1.0000
  H   H427      1.0  0.72158  0.78911  0.61735  1.0000
  H   H428      1.0  0.88821  0.95642  0.40942  1.0000
  H   H429      1.0  0.70713  0.81073  0.59521  1.0000
  C   C366      1.0  0.68053  0.68310  0.34496  1.0000
  H   H430      1.0  0.76053  0.75513  0.58897  1.0000
  H   H431      1.0  0.73960  0.67735  0.41801  1.0000
  C   C367      1.0  0.72063  0.79247  0.59811  1.0000
  H   H432      1.0  0.96279  0.97309  0.55316  1.0000
  H   H433      1.0  0.52108  0.71024  0.62461  1.0000
  H   H434      1.0  0.78193  0.72220  0.33990  1.0000
  H   H435      1.0  0.78024  0.78177  0.61141  1.0000
  H   H436      1.0  0.77487  0.86144  0.58591  1.0000
  S   S98       1.0  0.84499  0.83693  0.38430  1.0000
  H   H437      1.0  0.77065  0.66826  0.39694  1.0000
  H   H438      1.0  0.79292  0.69811  0.41774  1.0000
  H   H439      1.0  0.94110  0.94386  0.51891  1.0000
  H   H440      1.0  0.74023  0.73589  0.41411  1.0000
  H   H441      1.0  0.72775  0.84976  0.51689  1.0000
  H   H442      1.0  0.77171  0.76929  0.39016  1.0000
  H   H443      1.0  0.91180  0.95159  0.48602  1.0000
  C   C368      1.0  0.97842  0.82928  0.38217  1.0000
  S   S99       1.0  0.92500  0.94008  0.36931  1.0000
  C   C369      1.0  0.67234  0.76910  0.36426  1.0000
  C   C370      1.0  0.81562  0.73706  0.37640  1.0000
  S   S100      1.0  0.48656  0.69057  0.34737  1.0000
  C   C371      1.0  0.77254  0.79089  0.54341  1.0000
  H   H444      1.0  0.82145  0.76084  0.36377  1.0000
  C   C372      1.0  0.92800  0.80142  0.41686  1.0000
  C   C373      1.0  0.74337  0.79516  0.34899  1.0000
  H   H445      1.0  0.69140  0.68892  0.40193  1.0000
  S   S101      1.0  0.72372  0.80320  0.39470  1.0000
  H   H446      1.0  0.69950  0.76605  0.59366  1.0000
  C   C374      1.0  0.93435  0.96620  0.47013  1.0000
  H   H447      1.0  0.94393  0.84488  0.62368  1.0000
  C   C375      1.0  0.75322  0.81484  0.51004  1.0000
  H   H448      1.0  0.96051  0.91831  0.45980  1.0000
  S   S102      1.0  0.78135  0.87912  0.64476  1.0000
  S   S103      1.0  0.81537  0.89158  0.40703  1.0000
  H   H449      1.0  0.79076  0.84188  0.60845  1.0000
  H   H450      1.0  0.91575  0.81610  0.38305  1.0000
  H   H451      1.0  0.75240  0.81820  0.49131  1.0000
  C   C376      1.0  0.78725  0.84249  0.58961  1.0000
  H   H452      1.0  0.94632  0.91388  0.49036  1.0000
  C   C377      1.0  0.74226  0.70720  0.37373  1.0000
  C   C378      1.0  0.49465  0.68316  0.62776  1.0000
  H   H453      1.0  0.82185  0.71810  0.36680  1.0000
  H   H454      1.0  0.94953  0.78994  0.44816  1.0000
  H   H455      1.0  0.64858  0.76387  0.37840  1.0000
  C   C379      1.0  0.76713  0.81042  0.65918  1.0000
  C   C380      1.0  0.96787  0.96933  0.51616  1.0000
  C   C381      1.0  0.76973  0.79399  0.51945  1.0000
  C   C382      1.0  0.77890  0.78302  0.59220  1.0000
  C   C383      1.0  0.97139  0.84749  0.62971  1.0000
  C   C384      1.0  0.76897  0.68954  0.40620  1.0000
  H   H456      1.0  0.77463  0.81029  0.35115  1.0000
  H   H457      1.0  0.79349  0.75757  0.41379  1.0000
  C   C385      1.0  0.74168  0.82956  0.54855  1.0000
  N   N24       1.0  0.76127  0.80640  0.58417  1.0000
  H   H458      1.0  0.78663  0.77506  0.54932  1.0000
  H   H459      1.0  0.78153  0.78104  0.50789  1.0000
  H   H460      1.0  0.81053  0.79324  0.58336  1.0000
  Fe  Fe52      1.0  0.87370  0.89334  0.39226  1.0000
  C   C386      1.0  0.75834  0.80854  0.55876  1.0000
  C   C387      1.0  0.96994  0.93159  0.47555  1.0000
  H   H461      1.0  0.92131  0.95205  0.45526  1.0000
  C   C388      1.0  0.95765  0.80109  0.42977  1.0000
  C   C389      1.0  0.93852  0.81584  0.39311  1.0000
  H   H462      1.0  0.63100  0.74142  0.34076  1.0000
  N   N25       1.0  0.77374  0.71991  0.38922  1.0000
  H   H463      1.0  0.83847  0.74688  0.38858  1.0000
  C   C390      1.0  0.67051  0.67987  0.36911  1.0000
  C   C391      1.0  0.98385  0.86419  0.64937  1.0000
  C   C392      1.0  0.98011  0.98580  0.53592  1.0000
  C   C393      1.0  0.91816  0.97816  0.40384  1.0000
  H   H464      1.0  0.63912  0.66928  0.37668  1.0000
  H   H465      1.0  0.50508  0.66533  0.63689  1.0000
  H   H466      1.0  0.79808  0.81906  0.65232  1.0000
  C   C394      1.0  0.75143  0.71000  0.34898  1.0000
  C   C395      1.0  0.70078  0.69152  0.38335  1.0000
  N   N26       1.0  0.97427  0.96829  0.47255  1.0000
  H   H467      1.0  0.65712  0.67536  0.33382  1.0000
  C   C396      1.0  0.72083  0.69803  0.33494  1.0000
  C   C397      1.0  0.75103  0.83429  0.65744  1.0000
  H   H468      1.0  0.98576  0.87894  0.56935  1.0000
  H   H469      1.0  0.48760  0.67491  0.61033  1.0000
  H   H470      1.0  0.50006  0.52065  0.72596  1.0000
  S   S104      1.0  0.56777  0.64686  0.72036  1.0000
  C   C398      1.0  0.84749  0.81169  0.69652  1.0000
  H   H471      1.0  0.83527  0.86636  0.67917  1.0000
  S   S105      1.0  0.58620  0.72428  0.73699  1.0000
  Fe  Fe53      1.0  0.60987  0.70451  0.70749  1.0000
  S   S106      1.0  0.67517  0.72059  0.69557  1.0000
  Fe  Fe54      1.0  0.53981  0.66674  0.74753  1.0000
  C   C399      1.0  0.74335  0.77536  0.67049  1.0000
  S   S107      1.0  0.57079  0.71021  0.68220  1.0000
  S   S108      1.0  0.53124  0.77226  0.70382  1.0000
  H   H472      1.0  0.84818  0.89021  0.70402  1.0000
  C   C400      1.0  0.70311  0.76381  0.67998  1.0000
  H   H473      1.0  0.85298  0.81765  0.74201  1.0000
  C   C401      1.0  0.53262  0.71561  0.93556  1.0000
  C   C402      1.0  0.79363  0.81816  0.71902  1.0000
  C   C403      1.0  0.85175  0.86986  0.69457  1.0000
  H   H474      1.0  0.88445  0.88169  0.68762  1.0000
  Fe  Fe55      1.0  0.52646  0.65417  0.69764  1.0000
  H   H475      1.0  0.85336  0.86012  0.74104  1.0000
  C   C404      1.0  0.70988  0.78375  0.73660  1.0000
  H   H476      1.0  0.71850  0.73926  0.74966  1.0000
  H   H477      1.0  0.75625  0.75724  0.67231  1.0000
  H   H478      1.0  0.70956  0.83123  0.72083  1.0000
  C   C405      1.0  0.73303  0.76640  0.74054  1.0000
  H   H479      1.0  0.51843  0.72310  0.82843  1.0000
  H   H480      1.0  0.65529  0.77845  0.68486  1.0000
  H   H481      1.0  0.53960  0.56920  0.78699  1.0000
  C   C406      1.0  0.76915  0.83528  0.71553  1.0000
  C   C407      1.0  0.51651  0.54809  0.80087  1.0000
  H   H482      1.0  0.78065  0.86149  0.70554  1.0000
  H   H483      1.0  0.82840  0.80313  0.68246  1.0000
  C   C408      1.0  0.50517  0.64670  0.80712  1.0000
  H   H484      1.0  0.67765  0.77010  0.74256  1.0000
  H   H485      1.0  0.52637  0.58118  0.70389  1.0000
  C   C409      1.0  0.50477  0.50411  0.77536  1.0000
  H   H486      1.0  0.54758  0.74380  0.93888  1.0000
  H   H487      1.0  0.53389  0.70203  0.79171  1.0000
  Fe  Fe56      1.0  0.54369  0.72587  0.71245  1.0000
  H   H488      1.0  0.79092  0.76880  0.73580  1.0000
  H   H489      1.0  0.48825  0.55810  0.76251  1.0000
  N   N27       1.0  0.83741  0.83543  0.71013  1.0000
  H   H490      1.0  0.55142  0.70303  0.94099  1.0000
  C   C410      1.0  0.72796  0.81819  0.72432  1.0000
  H   H491      1.0  0.48718  0.89904  0.66852  1.0000
  C   C411      1.0  0.77436  0.78338  0.73214  1.0000
  S   S109      1.0  0.51571  0.63017  0.78198  1.0000
  H   H492      1.0  0.52380  0.66637  0.97792  1.0000
  H   H493      1.0  0.84334  0.78723  0.70759  1.0000
  C   C412      1.0  0.50900  0.69502  0.82820  1.0000
  C   C413      1.0  0.86030  0.84258  0.73024  1.0000
  S   S110      1.0  0.95665  0.88321  0.66334  1.0000
  C   C414      1.0  0.50953  0.68023  0.98647  1.0000
  H   H494      1.0  0.89351  0.85602  0.72423  1.0000
  H   H495      1.0  0.87961  0.82516  0.68800  1.0000
  C   C415      1.0  0.51757  0.68311  0.80741  1.0000
  C   C416      1.0  0.68637  0.78719  0.67752  1.0000
  H   H496      1.0  0.53332  0.71585  0.91619  1.0000
  S   S111      1.0  0.49532  0.67021  0.72555  1.0000
  H   H497      1.0  0.49692  0.85974  0.69873  1.0000
  H   H498      1.0  0.49065  0.64510  0.94833  1.0000
  H   H499      1.0  0.52994  0.52522  0.76247  1.0000
  N   N28       1.0  0.49074  0.69636  0.94816  1.0000
  H   H500      1.0  0.50392  0.56223  0.81158  1.0000
  H   H501      1.0  0.49744  0.79293  0.66666  1.0000
  H   H502      1.0  0.53253  0.53752  0.81191  1.0000
  C   C417      1.0  0.49580  0.56148  0.70340  1.0000
  C   C418      1.0  0.71040  0.82246  0.66633  1.0000
  H   H503      1.0  0.69763  0.84074  0.66500  1.0000
  C   C419      1.0  0.49106  0.69740  0.97367  1.0000
  C   C420      1.0  0.48754  0.67045  0.84851  1.0000
  S   S112      1.0  0.48801  0.61362  0.67622  1.0000
  H   H504      1.0  0.49865  0.72054  0.66244  1.0000
