data_image0
_chemical_formula_structural       CH7SHCH5C2SHC3H2SCHCHC6H4NH5FeCH2CHC2HCH2C2HCSHCHSCFeC2H2C3FeNHCHCNH2SC5HFe2HS4CSC3H2C6H4CH2NC2SH3C2H2CHCH3C2H3CH5C2NH4C2FeSCSC3HC2NCH5CFeH2CH7CH3C2SH2FeH2C2HSH2SCHC2FeC3HSHCHNCHS2NC6H7SH6FeCHCH2CSC2HCHCHC2H2CHCFeSHSC2H2FeCSHC3HC4HCNHC2S2FeSHCHSH4C4H4CHCH2SH4CHFeSCHCSNH2FeCHC2HCSHS2H5C2HC2NHC2HCHSCHCHC3HCH2FeCH5CHCHCHCH2CHFeSHC2FeSC3H2SFeHCH2C2H3NSC2HCFeS2HCHC2H2S4CH2C6H4CHC3H4C6H3SFeS2FeSFe2S2HC6H8NSH2CFeH4CH4CH2CHSHCH2CH2FeHCHCNC5HS2HCFeCHC2H2C4H7CHC2H2C2HSCFeSHFeSFeS2FeSFeS3CNHCHC7H4NC6H4S2C6H4C2H2C3H2CH4C2H3CHSH3CH4CHCHCH3CSCH3FeCSH3C2NHSCSH2C3H3FeH3CFeC2NCH4CHC2HCNH2C2H4C3HC2H2CHCH2CH3CFeS2FeS2FeSFeS3FeSH2S2H2CH4C6H4C6H4C2SHSFeHC2NHSHCH4CH2C2NC9H13C3HSC4HCH4CH2CHC2H5CFeNFeCHC2HCHSHC2H2CHCHCH5C2HC3H2C2S2C6H3CSCH2C2H2SFeC2NCHC2FeHC2HCHC2H2CH3NHNH2CHCH3CSC4HC3H2SH3C3HCHCH3SH5FeHSCHC2H3CHSFeHFeHCSH2SCSC2HC2HSHCH3CNH2CHCH2SH2C2Fe2HCH2SCNH4CHC4HCHC2HSH9CHC2NHFeHC4HCSCFeHS3HC6H4SH2CHCH2FeH3NC7H9NC5SH2C2SCH2CHC3H5CSFe2HSHCHCH2CH2CH2Fe2HSHC4HCH2SCNHCHCH2C2H4CHFeSH2C2HNH4CH3C4SH2C5HSHCH2CHSHFeS2CSFeS2FeSFeS3C2HC9H5C6H5FeC2SHCSH2CFeHCSH3CHC4H3CHCNCHC4HFeC3HSH3Fe2H2CSCNHC2H3C2H4FeCHCH4C2SH2SH2CHSHCSH3CHCFeHSFeS2FeSFeCS2CH2FeSHSC3H5CHCHCH2CH3C6H8CFeH2CHCH6C4H4CH2C2HCHC2NC2H2NHSCH2CHCH2SC2HC2H2SHC2H2CH5CSC4HNHC3H2FeCSFeS2H2FeS3HCH3CSFeSH2C2HCHC8H4CHCHC4H2CFeCH2C2HCH3SHC2H5CNC2HCH2NC2H4CH2CFeCH2NCHSCSCHC2H
_chemical_formula_sum              "C600 H720 S160 N40 Fe80"
_cell_length_a       31.2617
_cell_length_b       61.9991
_cell_length_c       56.9496
_cell_angle_alpha    86.835
_cell_angle_beta     87.1731
_cell_angle_gamma    122.467

_space_group_name_H-M_alt    "P 1"
_space_group_IT_number       1

loop_
  _space_group_symop_operation_xyz
  'x, y, z'

loop_
  _atom_site_type_symbol
  _atom_site_label
  _atom_site_symmetry_multiplicity
  _atom_site_fract_x
  _atom_site_fract_y
  _atom_site_fract_z
  _atom_site_occupancy
  C   C1        1.0  0.19947  0.10107  0.18140  1.0000
  H   H1        1.0  0.03589  0.00328  0.02166  1.0000
  H   H2        1.0  0.99120  0.97965  0.19411  1.0000
  H   H3        1.0  0.41879  0.25157  0.21510  1.0000
  H   H4        1.0  0.28968  0.08879  0.19385  1.0000
  H   H5        1.0  0.26685  0.12082  0.19972  1.0000
  H   H6        1.0  0.98444  0.11990  0.17486  1.0000
  H   H7        1.0  0.07837  0.03283  0.17073  1.0000
  S   S1        1.0  0.00452  0.02453  0.11643  1.0000
  H   H8        1.0  0.17378  0.06079  0.11840  1.0000
  C   C2        1.0  0.34795  0.21560  0.21290  1.0000
  H   H9        1.0  0.13459  0.07802  0.16316  1.0000
  H   H10       1.0  0.14118  0.00631  0.13699  1.0000
  H   H11       1.0  0.06968  0.00530  0.15769  1.0000
  H   H12       1.0  0.89652  0.10141  0.18952  1.0000
  H   H13       1.0  0.98099  0.00993  0.99651  1.0000
  C   C3        1.0  0.16840  0.07981  0.16921  1.0000
  C   C4        1.0  0.09698  0.02224  0.16684  1.0000
  S   S2        1.0  0.09704  0.26390  0.20576  1.0000
  H   H14       1.0  0.34737  0.21923  0.19416  1.0000
  C   C5        1.0  0.90707  0.09853  0.20725  1.0000
  C   C6        1.0  0.24308  0.10429  0.19018  1.0000
  C   C7        1.0  0.33949  0.28212  0.21998  1.0000
  H   H15       1.0  0.96474  0.18745  0.16795  1.0000
  H   H16       1.0  0.11331  0.03075  0.11895  1.0000
  S   S3        1.0  0.25800  0.16969  0.20978  1.0000
  C   C8        1.0  0.26077  0.24735  0.20852  1.0000
  H   H17       1.0  0.11224  0.22370  0.19443  1.0000
  C   C9        1.0  0.22506  0.06490  0.17453  1.0000
  H   H18       1.0  0.97651  0.21124  0.20303  1.0000
  C   C10       1.0  0.00833  0.05138  0.19010  1.0000
  C   C11       1.0  0.03760  0.06916  0.17074  1.0000
  C   C12       1.0  0.03489  0.06080  0.14806  1.0000
  C   C13       1.0  0.00426  0.03457  0.14478  1.0000
  C   C14       1.0  0.97489  0.01685  0.16417  1.0000
  C   C15       1.0  0.97634  0.02530  0.18667  1.0000
  H   H19       1.0  0.06176  0.08935  0.17316  1.0000
  H   H20       1.0  0.05715  0.07464  0.13304  1.0000
  H   H21       1.0  0.95022  0.99672  0.16172  1.0000
  H   H22       1.0  0.95247  0.01157  0.20148  1.0000
  N   N1        1.0  0.14640  0.03867  0.15239  1.0000
  H   H23       1.0  0.27069  0.25808  0.19072  1.0000
  H   H24       1.0  0.27293  0.29409  0.21189  1.0000
  H   H25       1.0  0.95488  0.14550  0.17157  1.0000
  H   H26       1.0  0.10210  0.01501  0.18412  1.0000
  H   H27       1.0  0.99950  0.10333  0.19580  1.0000
  Fe  Fe1       1.0  0.11217  0.29977  0.22195  1.0000
  C   C16       1.0  0.01254  0.00947  0.98836  1.0000
  H   H28       1.0  0.90325  0.07954  0.20847  1.0000
  H   H29       1.0  0.35763  0.27102  0.21733  1.0000
  C   C17       1.0  0.96497  0.17904  0.18511  1.0000
  H   H30       1.0  0.20465  0.03374  0.13691  1.0000
  C   C18       1.0  0.18045  0.06117  0.16513  1.0000
  C   C19       1.0  0.38845  0.23401  0.22478  1.0000
  H   H31       1.0  0.99637  0.00017  0.23022  1.0000
  C   C20       1.0  0.25579  0.08622  0.18681  1.0000
  H   H32       1.0  0.18971  0.11517  0.18425  1.0000
  H   H33       1.0  0.11620  0.05688  0.13128  1.0000
  C   C21       1.0  0.16687  0.02243  0.14739  1.0000
  C   C22       1.0  0.13730  0.04722  0.12933  1.0000
  H   H34       1.0  0.34738  0.29403  0.20301  1.0000
  C   C23       1.0  0.10283  0.22138  0.21331  1.0000
  S   S4        1.0  0.11273  0.13916  0.21928  1.0000
  H   H35       1.0  0.23699  0.05160  0.17273  1.0000
  C   C24       1.0  0.97108  0.19238  0.20486  1.0000
  H   H36       1.0  0.17012  0.01312  0.16391  1.0000
  S   S5        1.0  0.00865  0.06091  0.21869  1.0000
  C   C25       1.0  0.95998  0.15518  0.18736  1.0000
  Fe  Fe2       1.0  0.97981  0.98327  0.11301  1.0000
  C   C26       1.0  0.04350  0.00579  0.00258  1.0000
  C   C27       1.0  0.09739  0.20031  0.22707  1.0000
  H   H37       1.0  0.27388  0.23379  0.20800  1.0000
  H   H38       1.0  0.10267  0.18653  0.21879  1.0000
  C   C28       1.0  0.08283  0.00415  0.99227  1.0000
  C   C29       1.0  0.96233  0.14426  0.20949  1.0000
  C   C30       1.0  0.09480  0.23908  0.22377  1.0000
  Fe  Fe3       1.0  0.07412  0.09710  0.23145  1.0000
  N   N2        1.0  0.28401  0.26491  0.22722  1.0000
  H   H39       1.0  0.21846  0.23548  0.21136  1.0000
  C   C31       1.0  0.99590  0.12023  0.19304  1.0000
  H   H40       1.0  0.03446  0.13787  0.19336  1.0000
  C   C32       1.0  0.00546  0.97518  0.20938  1.0000
  N   N3        1.0  0.95923  0.11950  0.21124  1.0000
  H   H41       1.0  0.10561  0.00038  0.00348  1.0000
  H   H42       1.0  0.87841  0.09733  0.22060  1.0000
  S   S6        1.0  0.04175  0.97940  0.09647  1.0000
  C   C33       1.0  0.30829  0.19255  0.22516  1.0000
  C   C34       1.0  0.96693  0.15801  0.22940  1.0000
  C   C35       1.0  0.00835  0.98672  0.23016  1.0000
  C   C36       1.0  0.26256  0.28121  0.22845  1.0000
  C   C37       1.0  0.97109  0.18166  0.22697  1.0000
  H   H43       1.0  0.22022  0.26975  0.23114  1.0000
  Fe  Fe4       1.0  0.18349  0.14294  0.23189  1.0000
  Fe  Fe5       1.0  0.12731  0.10727  0.27656  1.0000
  H   H44       1.0  0.06449  0.21171  0.28057  1.0000
  S   S7        1.0  0.13633  0.08604  0.30752  1.0000
  S   S8        1.0  0.05337  0.10195  0.26820  1.0000
  S   S9        1.0  0.06977  0.16895  0.26889  1.0000
  S   S10       1.0  0.17080  0.15026  0.26887  1.0000
  C   C38       1.0  0.59491  0.29286  0.33180  1.0000
  S   S11       1.0  0.93600  0.98500  0.35489  1.0000
  C   C39       1.0  0.30990  0.18785  0.24931  1.0000
  C   C40       1.0  0.35090  0.20603  0.26108  1.0000
  C   C41       1.0  0.39005  0.22932  0.24894  1.0000
  H   H45       1.0  0.28016  0.16995  0.25886  1.0000
  H   H46       1.0  0.35195  0.20209  0.27970  1.0000
  C   C42       1.0  0.08071  0.05880  0.32192  1.0000
  C   C43       1.0  0.08428  0.04012  0.33510  1.0000
  C   C44       1.0  0.04011  0.01743  0.34547  1.0000
  C   C45       1.0  0.99224  0.01356  0.34303  1.0000
  C   C46       1.0  0.98879  0.03258  0.33052  1.0000
  C   C47       1.0  0.03282  0.05501  0.31980  1.0000
  H   H47       1.0  0.12128  0.04298  0.33683  1.0000
  H   H48       1.0  0.04321  0.00294  0.35516  1.0000
  H   H49       1.0  0.95186  0.02980  0.32878  1.0000
  H   H50       1.0  0.02966  0.06948  0.31016  1.0000
  C   C48       1.0  0.06266  0.02222  0.26680  1.0000
  H   H51       1.0  0.23692  0.20533  0.30918  1.0000
  H   H52       1.0  0.08949  0.29772  0.34842  1.0000
  N   N4        1.0  0.00077  0.99372  0.42792  1.0000
  C   C49       1.0  0.05066  0.98652  0.29162  1.0000
  C   C50       1.0  0.04466  0.99203  0.41967  1.0000
  S   S12       1.0  0.14633  0.10033  0.24036  1.0000
  H   H53       1.0  0.16884  0.20340  0.28720  1.0000
  H   H54       1.0  0.08991  0.99144  0.28640  1.0000
  H   H55       1.0  0.18985  0.23060  0.25049  1.0000
  C   C51       1.0  0.07587  0.21454  0.26183  1.0000
  C   C52       1.0  0.22091  0.23238  0.25960  1.0000
  H   H56       1.0  0.96898  0.15140  0.24701  1.0000
  H   H57       1.0  0.94225  0.10978  0.24910  1.0000
  C   C53       1.0  0.24677  0.21788  0.29312  1.0000
  H   H58       1.0  0.04878  0.98269  0.46319  1.0000
  C   C54       1.0  0.02019  0.98626  0.46948  1.0000
  H   H59       1.0  0.95962  0.97357  0.39906  1.0000
  H   H60       1.0  0.04338  0.03505  0.42476  1.0000
  H   H61       1.0  0.96120  0.99420  0.26853  1.0000
  C   C55       1.0  0.99215  0.99172  0.45398  1.0000
  C   C56       1.0  0.50689  0.25855  0.33000  1.0000
  H   H62       1.0  0.57127  0.25479  0.30113  1.0000
  H   H63       1.0  0.06779  0.03240  0.28295  1.0000
  H   H64       1.0  0.05156  0.99474  0.40006  1.0000
  C   C57       1.0  0.97089  0.11305  0.23460  1.0000
  H   H65       1.0  0.08051  0.00713  0.42645  1.0000
  H   H66       1.0  0.04674  0.02997  0.25432  1.0000
  H   H67       1.0  0.97846  0.99545  0.29794  1.0000
  H   H68       1.0  0.64750  0.28425  0.31405  1.0000
  H   H69       1.0  0.07513  0.24904  0.25637  1.0000
  C   C58       1.0  0.02650  0.98115  0.25052  1.0000
  C   C59       1.0  0.56519  0.27038  0.29563  1.0000
  N   N5        1.0  0.55297  0.28042  0.31630  1.0000
  H   H70       1.0  0.92031  0.97308  0.42297  1.0000
  H   H71       1.0  0.51468  0.24420  0.33763  1.0000
  H   H72       1.0  0.05327  0.99664  0.30750  1.0000
  H   H73       1.0  0.12580  0.30122  0.32160  1.0000
  C   C60       1.0  0.08284  0.19656  0.25133  1.0000
  C   C61       1.0  0.29762  0.23486  0.28464  1.0000
  Fe  Fe6       1.0  0.09821  0.14427  0.25688  1.0000
  S   S13       1.0  0.12478  0.30456  0.26017  1.0000
  C   C62       1.0  0.95360  0.99457  0.46461  1.0000
  S   S14       1.0  0.43977  0.25225  0.26460  1.0000
  C   C63       1.0  0.97791  0.98702  0.28110  1.0000
  C   C64       1.0  0.20849  0.21677  0.28069  1.0000
  C   C65       1.0  0.08220  0.23581  0.24816  1.0000
  H   H74       1.0  0.27693  0.29363  0.24324  1.0000
  C   C66       1.0  0.64057  0.29311  0.32827  1.0000
  C   C67       1.0  0.01059  0.01859  0.41732  1.0000
  N   N6        1.0  0.02956  0.99389  0.27219  1.0000
  C   C68       1.0  0.95478  0.97259  0.41861  1.0000
  H   H75       1.0  0.97096  0.09506  0.23511  1.0000
  H   H76       1.0  0.49298  0.26481  0.34484  1.0000
  H   H77       1.0  0.35060  0.26263  0.25773  1.0000
  H   H78       1.0  0.03785  0.97277  0.42513  1.0000
  H   H79       1.0  0.51137  0.29082  0.29421  1.0000
  C   C69       1.0  0.54071  0.29913  0.30702  1.0000
  Fe  Fe7       1.0  0.49344  0.29231  0.24646  1.0000
  H   H80       1.0  0.97620  0.19221  0.24227  1.0000
  H   H81       1.0  0.00914  0.12862  0.23895  1.0000
  C   C70       1.0  0.27225  0.24953  0.25018  1.0000
  H   H82       1.0  0.92971  0.99796  0.45398  1.0000
  H   H83       1.0  0.47482  0.24849  0.31866  1.0000
  H   H84       1.0  0.97712  0.02026  0.42017  1.0000
  H   H85       1.0  0.01929  0.02103  0.39775  1.0000
  H   H86       1.0  0.53361  0.26191  0.28387  1.0000
  H   H87       1.0  0.59964  0.28595  0.28453  1.0000
  H   H88       1.0  0.10129  0.02819  0.25908  1.0000
  C   C71       1.0  0.31047  0.25046  0.26347  1.0000
  H   H89       1.0  0.32745  0.23548  0.29413  1.0000
  H   H90       1.0  0.07275  0.30454  0.32018  1.0000
  H   H91       1.0  0.35942  0.29588  0.23329  1.0000
  C   C72       1.0  0.57748  0.03474  0.69299  1.0000
  C   C73       1.0  0.49493  0.02702  0.68567  1.0000
  S   S15       1.0  0.72801  0.27156  0.70091  1.0000
  H   H92       1.0  0.46585  0.03142  0.68629  1.0000
  H   H93       1.0  0.85423  0.16121  0.70696  1.0000
  Fe  Fe8       1.0  0.76080  0.01823  0.70784  1.0000
  H   H94       1.0  0.75834  0.99103  0.63637  1.0000
  H   H95       1.0  0.61439  0.04559  0.69968  1.0000
  C   C74       1.0  0.78071  0.29807  0.68377  1.0000
  C   C75       1.0  0.48106  0.00337  0.67769  1.0000
  H   H96       1.0  0.75039  0.19584  0.66437  1.0000
  S   S16       1.0  0.69073  0.01941  0.70375  1.0000
  H   H97       1.0  0.23206  0.00228  0.66704  1.0000
  H   H98       1.0  0.80254  0.11330  0.71139  1.0000
  S   S17       1.0  0.42721  0.08609  0.72009  1.0000
  C   C76       1.0  0.01085  0.98447  0.49401  1.0000
  H   H99       1.0  0.72407  0.99298  0.61313  1.0000
  C   C77       1.0  0.81477  0.15090  0.71408  1.0000
  C   C78       1.0  0.74069  0.98224  0.62022  1.0000
  Fe  Fe9       1.0  0.26492  0.99745  0.72401  1.0000
  C   C79       1.0  0.61036  0.08929  0.69104  1.0000
  C   C80       1.0  0.97299  0.98753  0.50382  1.0000
  C   C81       1.0  0.85116  0.99745  0.65123  1.0000
  H   H100      1.0  0.86685  0.01426  0.63870  1.0000
  S   S18       1.0  0.34329  0.01417  0.70537  1.0000
  H   H101      1.0  0.51761  0.07746  0.67903  1.0000
  C   C82       1.0  0.82974  0.30289  0.68432  1.0000
  H   H102      1.0  0.90036  0.30369  0.59293  1.0000
  N   N7        1.0  0.55956  0.06856  0.70241  1.0000
  C   C83       1.0  0.52362  0.07674  0.69808  1.0000
  H   H103      1.0  0.64127  0.08652  0.69566  1.0000
  S   S19       1.0  0.69544  0.07683  0.72892  1.0000
  S   S20       1.0  0.80659  0.01857  0.67544  1.0000
  N   N8        1.0  0.80714  0.23562  0.65275  1.0000
  C   C84       1.0  0.81286  0.24445  0.67664  1.0000
  C   C85       1.0  0.75540  0.21217  0.65258  1.0000
  C   C86       1.0  0.84449  0.22814  0.64819  1.0000
  C   C87       1.0  0.81431  0.25643  0.63564  1.0000
  C   C88       1.0  0.77824  0.26370  0.63610  1.0000
  C   C89       1.0  0.85849  0.27126  0.61939  1.0000
  H   H104      1.0  0.03192  0.97980  0.50556  1.0000
  H   H105      1.0  0.91411  0.99427  0.49692  1.0000
  H   H106      1.0  0.44271  0.99058  0.67286  1.0000
  H   H107      1.0  0.78362  0.24867  0.68206  1.0000
  H   H108      1.0  0.80886  0.22973  0.69014  1.0000
  H   H109      1.0  0.85098  0.26222  0.67752  1.0000
  H   H110      1.0  0.72485  0.21496  0.65927  1.0000
  S   S21       1.0  0.71105  0.20472  0.72161  1.0000
  H   H111      1.0  0.74797  0.20607  0.63443  1.0000
  H   H112      1.0  0.88399  0.24406  0.65054  1.0000
  H   H113      1.0  0.83682  0.21186  0.66098  1.0000
  H   H114      1.0  0.84326  0.22200  0.63010  1.0000
  H   H115      1.0  0.74517  0.25442  0.64887  1.0000
  H   H116      1.0  0.88868  0.26772  0.61813  1.0000
  Fe  Fe10      1.0  0.37089  0.04382  0.73170  1.0000
  C   C90       1.0  0.19125  0.99270  0.66676  1.0000
  H   H117      1.0  0.19483  0.00138  0.62916  1.0000
  C   C91       1.0  0.79288  0.16464  0.72075  1.0000
  H   H118      1.0  0.88050  0.97940  0.63007  1.0000
  H   H119      1.0  0.53782  0.09625  0.70361  1.0000
  C   C92       1.0  0.78547  0.28415  0.62097  1.0000
  S   S22       1.0  0.82894  0.19847  0.71738  1.0000
  C   C93       1.0  0.82198  0.99522  0.67190  1.0000
  C   C94       1.0  0.17003  0.99213  0.64532  1.0000
  H   H120      1.0  0.75806  0.28975  0.62209  1.0000
  C   C95       1.0  0.54406  0.04366  0.69329  1.0000
  H   H121      1.0  0.61065  0.09048  0.67146  1.0000
  C   C96       1.0  0.73452  0.11057  0.72568  1.0000
  H   H122      1.0  0.50970  0.13864  0.71010  1.0000
  C   C97       1.0  0.56324  0.01108  0.68490  1.0000
  C   C98       1.0  0.15938  0.98029  0.68764  1.0000
  H   H123      1.0  0.62178  0.10842  0.69682  1.0000
  H   H124      1.0  0.83675  0.29163  0.69667  1.0000
  C   C99       1.0  0.78565  0.12383  0.71663  1.0000
  H   H125      1.0  0.48596  0.06377  0.70839  1.0000
  C   C100      1.0  0.51510  0.99542  0.67729  1.0000
  Fe  Fe11      1.0  0.73892  0.24597  0.72656  1.0000
  S   S23       1.0  0.79496  0.05095  0.73102  1.0000
  H   H126      1.0  0.58890  0.00439  0.68543  1.0000
  S   S24       1.0  0.09150  0.97664  0.61695  1.0000
  C   C101      1.0  0.11695  0.97921  0.64458  1.0000
  C   C102      1.0  0.94429  0.99248  0.48916  1.0000
  H   H127      1.0  0.96489  0.98527  0.52286  1.0000
  H   H128      1.0  0.58499  0.16721  0.73132  1.0000
  Fe  Fe12      1.0  0.72124  0.04912  0.72960  1.0000
  C   C103      1.0  0.85909  0.97777  0.64632  1.0000
  S   S25       1.0  0.18290  0.97787  0.71465  1.0000
  H   H129      1.0  0.50335  0.97664  0.67198  1.0000
  C   C104      1.0  0.74185  0.15124  0.72983  1.0000
  C   C105      1.0  0.82931  0.29841  0.60544  1.0000
  C   C106      1.0  0.80218  0.97349  0.68807  1.0000
  H   H130      1.0  0.77269  0.98608  0.60743  1.0000
  C   C107      1.0  0.86569  0.29199  0.60464  1.0000
  C   C108      1.0  0.51613  0.13116  0.72624  1.0000
  C   C109      1.0  0.56235  0.06637  0.72826  1.0000
  C   C110      1.0  0.71270  0.12436  0.73199  1.0000
  H   H131      1.0  0.16492  0.02927  0.80812  1.0000
  C   C111      1.0  0.32263  0.08721  0.79686  1.0000
  N   N9        1.0  0.78093  0.09781  0.79533  1.0000
  H   H132      1.0  0.13045  0.03561  0.89903  1.0000
  C   C112      1.0  0.49024  0.09597  0.75596  1.0000
  C   C113      1.0  0.53215  0.11233  0.76825  1.0000
  S   S26       1.0  0.75788  0.20438  0.77247  1.0000
  S   S27       1.0  0.61574  0.15857  0.77656  1.0000
  Fe  Fe13      1.0  0.78053  0.24543  0.77304  1.0000
  S   S28       1.0  0.82648  0.27049  0.80112  1.0000
  H   H133      1.0  0.48250  0.00276  0.74119  1.0000
  C   C114      1.0  0.41277  0.11005  0.80266  1.0000
  H   H134      1.0  0.76231  0.28764  0.78412  1.0000
  S   S29       1.0  0.78658  0.02119  0.79582  1.0000
  H   H135      1.0  0.07146  0.98839  0.90036  1.0000
  H   H136      1.0  0.46452  0.07615  0.76276  1.0000
  H   H137      1.0  0.53768  0.10509  0.78478  1.0000
  H   H138      1.0  0.03831  0.03417  0.91720  1.0000
  C   C115      1.0  0.56642  0.13811  0.75950  1.0000
  C   C116      1.0  0.06070  0.01004  0.95262  1.0000
  C   C117      1.0  0.06402  0.98762  0.91981  1.0000
  C   C118      1.0  0.37025  0.06745  0.79001  1.0000
  H   H139      1.0  0.31078  0.05304  0.83055  1.0000
  H   H140      1.0  0.04347  0.01727  0.89389  1.0000
  H   H141      1.0  0.79360  0.06996  0.81272  1.0000
  H   H142      1.0  0.51547  0.15022  0.83259  1.0000
  C   C119      1.0  0.48126  0.10552  0.73526  1.0000
  H   H143      1.0  0.82466  0.01190  0.83772  1.0000
  C   C120      1.0  0.81312  0.98658  0.78524  1.0000
  H   H144      1.0  0.11245  0.97908  0.75066  1.0000
  H   H145      1.0  0.43499  0.10899  0.83854  1.0000
  S   S30       1.0  0.09523  0.00622  0.85006  1.0000
  H   H146      1.0  0.55874  0.99997  0.74616  1.0000
  H   H147      1.0  0.73305  0.05626  0.80233  1.0000
  H   H148      1.0  0.71625  0.15106  0.79813  1.0000
  H   H149      1.0  0.85615  0.11328  0.80682  1.0000
  C   C121      1.0  0.76256  0.07348  0.81030  1.0000
  H   H150      1.0  0.81129  0.11324  0.75944  1.0000
  Fe  Fe14      1.0  0.68406  0.19660  0.76017  1.0000
  S   S31       1.0  0.70404  0.23692  0.76422  1.0000
  C   C122      1.0  0.82617  0.00029  0.82461  1.0000
  H   H151      1.0  0.85293  0.98219  0.84808  1.0000
  C   C123      1.0  0.12293  0.03336  0.91868  1.0000
  S   S32       1.0  0.38650  0.02172  0.75873  1.0000
  N   N10       1.0  0.36428  0.08462  0.80495  1.0000
  H   H152      1.0  0.67316  0.11425  0.73888  1.0000
  H   H153      1.0  0.12981  0.05181  0.92425  1.0000
  Fe  Fe15      1.0  0.75396  0.01943  0.76077  1.0000
  C   C124      1.0  0.82724  0.11841  0.80510  1.0000
  H   H154      1.0  0.80209  0.98763  0.76772  1.0000
  C   C125      1.0  0.03509  0.01597  0.91339  1.0000
  C   C126      1.0  0.47652  0.14953  0.77803  1.0000
  H   H155      1.0  0.82598  0.09053  0.77103  1.0000
  C   C127      1.0  0.43053  0.12563  0.78077  1.0000
  S   S33       1.0  0.27705  0.99640  0.81151  1.0000
  H   H156      1.0  0.59049  0.06142  0.73277  1.0000
  S   S34       1.0  0.68339  0.02056  0.76155  1.0000
  S   S35       1.0  0.29164  0.02931  0.74764  1.0000
  H   H157      1.0  0.84663  0.13670  0.79333  1.0000
  H   H158      1.0  0.34346  0.08394  0.84180  1.0000
  H   H159      1.0  0.57381  0.08470  0.73591  1.0000
  H   H160      1.0  0.33496  0.04796  0.79149  1.0000
  H   H161      1.0  0.09046  0.98333  0.92800  1.0000
  C   C128      1.0  0.34804  0.07185  0.82947  1.0000
  C   C129      1.0  0.19327  0.98278  0.84147  1.0000
  H   H162      1.0  0.23464  0.02463  0.79212  1.0000
  C   C130      1.0  0.69068  0.08380  0.78890  1.0000
  C   C131      1.0  0.65170  0.08844  0.78755  1.0000
  N   N11       1.0  0.07023  0.01179  0.92662  1.0000
  H   H163      1.0  0.74642  0.07366  0.82809  1.0000
  C   C132      1.0  0.74009  0.10314  0.79430  1.0000
  C   C133      1.0  0.66090  0.11255  0.79115  1.0000
  H   H164      1.0  0.63102  0.11634  0.78966  1.0000
  C   C134      1.0  0.81084  0.00162  0.80206  1.0000
  H   H165      1.0  0.28480  0.06888  0.80036  1.0000
  S   S36       1.0  0.27439  0.97213  0.75010  1.0000
  C   C135      1.0  0.44457  0.11964  0.82143  1.0000
  H   H166      1.0  0.32736  0.09251  0.77751  1.0000
  C   C136      1.0  0.74842  0.12771  0.79744  1.0000
  H   H167      1.0  0.37540  0.06718  0.83602  1.0000
  C   C137      1.0  0.49097  0.14343  0.81833  1.0000
  C   C138      1.0  0.17246  0.01607  0.81733  1.0000
  C   C139      1.0  0.70916  0.13215  0.79596  1.0000
  H   H168      1.0  0.54352  0.17641  0.79417  1.0000
  C   C140      1.0  0.50682  0.15834  0.79671  1.0000
  H   H169      1.0  0.52480  0.05108  0.73745  1.0000
  H   H170      1.0  0.68216  0.06515  0.78482  1.0000
  Fe  Fe16      1.0  0.30471  0.00475  0.77267  1.0000
  C   C141      1.0  0.21207  0.01354  0.80828  1.0000
  H   H171      1.0  0.48982  0.16085  0.76101  1.0000
  H   H172      1.0  0.40143  0.06515  0.79542  1.0000
  H   H173      1.0  0.40983  0.11913  0.76533  1.0000
  H   H174      1.0  0.15203  0.03040  0.92582  1.0000
  H   H175      1.0  0.37924  0.07480  0.77098  1.0000
  C   C142      1.0  0.02056  0.01141  0.96374  1.0000
  H   H176      1.0  0.99397  0.01334  0.95390  1.0000
  C   C143      1.0  0.22339  0.99735  0.82064  1.0000
  H   H177      1.0  0.76346  0.07968  0.76292  1.0000
  C   C144      1.0  0.14233  0.00147  0.83814  1.0000
  H   H178      1.0  0.61458  0.07344  0.78305  1.0000
  C   C145      1.0  0.79617  0.09520  0.77117  1.0000
  H   H179      1.0  0.78502  0.14397  0.80070  1.0000
  H   H180      1.0  0.81780  0.12204  0.82297  1.0000
  C   C146      1.0  0.55894  0.14734  0.73815  1.0000
  H   H181      1.0  0.32050  0.10206  0.80601  1.0000
  Fe  Fe17      1.0  0.35482  0.99123  0.73357  1.0000
  S   S37       1.0  0.72349  0.98690  0.73772  1.0000
  H   H182      1.0  0.12929  0.97316  0.86606  1.0000
  C   C147      1.0  0.15221  0.98444  0.84995  1.0000
  C   C148      1.0  0.48148  0.98560  0.73746  1.0000
  Fe  Fe18      1.0  0.65640  0.99118  0.73582  1.0000
  S   S38       1.0  0.81623  0.25630  0.73570  1.0000
  C   C149      1.0  0.84245  0.98357  0.83050  1.0000
  C   C150      1.0  0.09162  0.00637  0.96768  1.0000
  C   C151      1.0  0.52470  0.98404  0.74015  1.0000
  H   H183      1.0  0.12212  0.00459  0.96057  1.0000
  H   H184      1.0  0.11135  0.98785  0.78049  1.0000
  S   S39       1.0  0.95265  0.97265  0.87450  1.0000
  Fe  Fe19      1.0  0.78574  0.21433  0.73417  1.0000
  H   H185      1.0  0.03815  0.97664  0.76313  1.0000
  C   C152      1.0  0.11596  0.97482  0.76948  1.0000
  H   H186      1.0  0.15600  0.98008  0.77024  1.0000
  H   H187      1.0  0.99472  0.99969  0.91763  1.0000
  C   C153      1.0  0.78475  0.29994  0.79719  1.0000
  C   C154      1.0  0.81861  0.29554  0.80834  1.0000
  H   H188      1.0  0.72462  0.16156  0.73519  1.0000
  H   H189      1.0  0.81340  0.43672  0.03229  1.0000
  H   H190      1.0  0.95666  0.37994  0.00524  1.0000
  N   N12       1.0  0.78752  0.41567  0.06681  1.0000
  S   S40       1.0  0.62903  0.33022  0.17824  1.0000
  C   C155      1.0  0.12958  0.42162  0.10622  1.0000
  C   C156      1.0  0.01557  0.41981  0.00462  1.0000
  H   H191      1.0  0.84676  0.41087  0.05216  1.0000
  C   C157      1.0  0.82834  0.43831  0.07739  1.0000
  Fe  Fe20      1.0  0.13865  0.35479  0.21118  1.0000
  S   S41       1.0  0.17885  0.60803  0.21721  1.0000
  S   S42       1.0  0.14447  0.38857  0.19003  1.0000
  H   H192      1.0  0.74962  0.40922  0.03478  1.0000
  C   C158      1.0  0.42639  0.41339  0.22652  1.0000
  H   H193      1.0  0.22322  0.51474  0.15686  1.0000
  C   C159      1.0  0.35919  0.35157  0.21307  1.0000
  C   C160      1.0  0.13673  0.44458  0.11302  1.0000
  H   H194      1.0  0.01084  0.42016  0.02358  1.0000
  H   H195      1.0  0.61480  0.35661  0.12501  1.0000
  S   S43       1.0  0.18501  0.33678  0.20811  1.0000
  S   S44       1.0  0.90413  0.40871  0.09743  1.0000
  S   S45       1.0  0.84065  0.43313  0.14540  1.0000
  S   S46       1.0  0.98476  0.38306  0.12208  1.0000
  C   C161      1.0  0.80734  0.39932  0.06112  1.0000
  H   H196      1.0  0.11279  0.45050  0.10604  1.0000
  H   H197      1.0  0.88827  0.39975  0.02283  1.0000
  C   C162      1.0  0.09475  0.38495  0.17369  1.0000
  C   C163      1.0  0.08607  0.40495  0.17179  1.0000
  C   C164      1.0  0.05081  0.40410  0.15680  1.0000
  C   C165      1.0  0.02473  0.38345  0.14321  1.0000
  C   C166      1.0  0.03189  0.36295  0.14584  1.0000
  C   C167      1.0  0.06656  0.36360  0.16113  1.0000
  H   H198      1.0  0.10763  0.42138  0.18160  1.0000
  H   H199      1.0  0.04478  0.41969  0.15516  1.0000
  H   H200      1.0  0.01160  0.34682  0.13549  1.0000
  H   H201      1.0  0.07309  0.34813  0.16238  1.0000
  C   C168      1.0  0.93264  0.43877  0.00689  1.0000
  H   H202      1.0  0.36421  0.35422  0.19396  1.0000
  C   C169      1.0  0.89988  0.41216  0.00660  1.0000
  C   C170      1.0  0.98497  0.39720  0.99423  1.0000
  C   C171      1.0  0.73191  0.40816  0.10456  1.0000
  H   H203      1.0  0.70132  0.36980  0.05933  1.0000
  H   H204      1.0  0.78411  0.38476  0.04900  1.0000
  H   H205      1.0  0.21912  0.50469  0.10445  1.0000
  H   H206      1.0  0.86448  0.44900  0.06550  1.0000
  C   C172      1.0  0.78461  0.40368  0.15589  1.0000
  C   C173      1.0  0.75159  0.40357  0.17355  1.0000
  C   C174      1.0  0.70459  0.38092  0.18111  1.0000
  C   C175      1.0  0.68988  0.35829  0.17075  1.0000
  C   C176      1.0  0.72335  0.35827  0.15336  1.0000
  C   C177      1.0  0.77084  0.38088  0.14605  1.0000
  H   H207      1.0  0.67931  0.38113  0.19457  1.0000
  H   H208      1.0  0.71212  0.34081  0.14526  1.0000
  H   H209      1.0  0.79596  0.38081  0.13235  1.0000
  S   S47       1.0  0.05324  0.58407  0.18721  1.0000
  Fe  Fe21      1.0  0.01822  0.47354  0.11446  1.0000
  S   S48       1.0  0.97067  0.43974  0.14135  1.0000
  S   S49       1.0  0.08559  0.50997  0.12593  1.0000
  Fe  Fe22      1.0  0.95713  0.44459  0.07311  1.0000
  S   S50       1.0  0.95546  0.45371  0.03345  1.0000
  Fe  Fe23      1.0  0.90463  0.43510  0.12313  1.0000
  Fe  Fe24      1.0  0.97480  0.41629  0.11383  1.0000
  S   S51       1.0  0.95222  0.47061  0.09788  1.0000
  S   S52       1.0  0.02801  0.45047  0.08787  1.0000
  H   H210      1.0  0.76211  0.42117  0.18121  1.0000
  C   C178      1.0  0.06304  0.56376  0.17009  1.0000
  C   C179      1.0  0.02176  0.54385  0.15980  1.0000
  C   C180      1.0  0.02784  0.52691  0.14662  1.0000
  C   C181      1.0  0.07563  0.53011  0.14319  1.0000
  C   C182      1.0  0.11690  0.55003  0.15343  1.0000
  C   C183      1.0  0.11060  0.56667  0.16694  1.0000
  H   H211      1.0  0.98487  0.54151  0.16197  1.0000
  H   H212      1.0  0.99577  0.51172  0.13874  1.0000
  H   H213      1.0  0.15408  0.55280  0.15074  1.0000
  H   H214      1.0  0.14284  0.58208  0.17445  1.0000
  H   H215      1.0  0.10073  0.41057  0.09446  1.0000
  H   H216      1.0  0.15223  0.49266  0.10585  1.0000
  H   H217      1.0  0.88671  0.36394  0.21451  1.0000
  H   H218      1.0  0.60404  0.41913  0.22461  1.0000
  N   N13       1.0  0.96789  0.36121  0.23094  1.0000
  S   S53       1.0  0.49372  0.30570  0.20910  1.0000
  H   H219      1.0  0.62407  0.34279  0.08616  1.0000
  H   H220      1.0  0.14983  0.39368  0.11114  1.0000
  C   C184      1.0  0.68696  0.39261  0.11940  1.0000
  Fe  Fe25      1.0  0.57911  0.32932  0.20893  1.0000
  H   H221      1.0  0.21156  0.41730  0.13990  1.0000
  H   H222      1.0  0.80819  0.38888  0.07747  1.0000
  H   H223      1.0  0.30621  0.61748  0.22844  1.0000
  H   H224      1.0  0.81769  0.45240  0.08086  1.0000
  C   C185      1.0  0.65413  0.36119  0.09112  1.0000
  H   H225      1.0  0.90654  0.45487  0.18518  1.0000
  H   H226      1.0  0.22581  0.45726  0.15190  1.0000
  H   H227      1.0  0.96414  0.49891  0.19436  1.0000
  H   H228      1.0  0.76066  0.42573  0.11125  1.0000
  C   C186      1.0  0.77785  0.42517  0.04452  1.0000
  H   H229      1.0  0.85749  0.38087  0.98513  1.0000
  H   H230      1.0  0.12035  0.46155  0.16671  1.0000
  C   C187      1.0  0.73950  0.40041  0.08250  1.0000
  H   H231      1.0  0.13110  0.49243  0.15766  1.0000
  S   S54       1.0  0.44710  0.35195  0.20966  1.0000
  H   H232      1.0  0.19196  0.51879  0.12172  1.0000
  C   C188      1.0  0.69866  0.37672  0.07599  1.0000
  H   H233      1.0  0.68268  0.39845  0.13650  1.0000
  H   H234      1.0  0.25633  0.50187  0.14287  1.0000
  C   C189      1.0  0.64856  0.36901  0.11291  1.0000
  H   H235      1.0  0.83734  0.43239  0.09430  1.0000
  H   H236      1.0  0.09574  0.46623  0.14045  1.0000
  Fe  Fe26      1.0  0.11140  0.61048  0.21132  1.0000
  H   H237      1.0  0.76290  0.43754  0.04804  1.0000
  C   C190      1.0  0.19193  0.42544  0.13182  1.0000
  H   H238      1.0  0.21287  0.48516  0.16926  1.0000
  C   C191      1.0  0.15701  0.41203  0.11567  1.0000
  N   N14       1.0  0.17681  0.48238  0.13719  1.0000
  C   C192      1.0  0.21932  0.49659  0.15217  1.0000
  C   C193      1.0  0.18562  0.50032  0.11639  1.0000
  C   C194      1.0  0.12901  0.47530  0.15111  1.0000
  C   C195      1.0  0.17199  0.45880  0.12942  1.0000
  C   C196      1.0  0.19948  0.44848  0.13871  1.0000
  H   H239      1.0  0.54287  0.40136  0.21392  1.0000
  S   S55       1.0  0.58159  0.36370  0.22120  1.0000
  S   S56       1.0  0.06476  0.31734  0.22150  1.0000
  H   H240      1.0  0.04197  0.52733  0.20721  1.0000
  C   C197      1.0  0.96043  0.35821  0.20547  1.0000
  Fe  Fe27      1.0  0.49594  0.33871  0.22464  1.0000
  C   C198      1.0  0.94626  0.48400  0.20892  1.0000
  H   H241      1.0  0.29255  0.35378  0.21513  1.0000
  C   C199      1.0  0.91349  0.45880  0.20345  1.0000
  C   C200      1.0  0.88273  0.40146  0.98509  1.0000
  H   H242      1.0  0.48914  0.41494  0.20894  1.0000
  H   H243      1.0  0.86329  0.41924  0.21697  1.0000
  C   C201      1.0  0.47259  0.41478  0.22609  1.0000
  C   C202      1.0  0.31839  0.35124  0.22504  1.0000
  C   C203      1.0  0.56758  0.41823  0.22375  1.0000
  C   C204      1.0  0.94802  0.45437  0.98531  1.0000
  H   H244      1.0  0.57657  0.43601  0.21311  1.0000
  H   H245      1.0  0.96682  0.37599  0.19586  1.0000
  H   H246      1.0  0.96963  0.53337  0.20890  1.0000
  H   H247      1.0  0.98761  0.35419  0.19653  1.0000
  H   H248      1.0  0.02916  0.40098  0.22525  1.0000
  H   H249      1.0  0.04880  0.37867  0.22253  1.0000
  H   H250      1.0  0.92171  0.34176  0.20279  1.0000
  C   C205      1.0  0.39414  0.34916  0.22562  1.0000
  H   H251      1.0  0.97321  0.47497  0.98525  1.0000
  C   C206      1.0  0.04100  0.52780  0.22668  1.0000
  C   C207      1.0  0.88914  0.43869  0.22135  1.0000
  H   H252      1.0  0.07370  0.45991  0.99875  1.0000
  H   H253      1.0  0.40931  0.41257  0.21021  1.0000
  C   C208      1.0  0.96887  0.53230  0.22847  1.0000
  C   C209      1.0  0.05091  0.44224  0.99056  1.0000
  H   H254      1.0  0.06699  0.54834  0.22989  1.0000
  S   S57       1.0  0.49037  0.32396  0.26213  1.0000
  C   C210      1.0  0.34704  0.34595  0.26232  1.0000
  Fe  Fe28      1.0  0.57615  0.34601  0.25771  1.0000
  S   S58       1.0  0.62074  0.37131  0.28608  1.0000
  H   H255      1.0  0.00990  0.51006  0.27183  1.0000
  Fe  Fe29      1.0  0.94160  0.45403  0.35429  1.0000
  S   S59       1.0  0.93086  0.42812  0.32617  1.0000
  Fe  Fe30      1.0  0.92310  0.41497  0.39524  1.0000
  S   S60       1.0  0.91045  0.38535  0.37009  1.0000
  S   S61       1.0  0.93615  0.41081  0.43439  1.0000
  Fe  Fe31      1.0  0.97692  0.41742  0.34699  1.0000
  S   S62       1.0  0.04285  0.41772  0.32829  1.0000
  Fe  Fe32      1.0  0.86426  0.39747  0.35049  1.0000
  S   S63       1.0  0.79801  0.36680  0.33211  1.0000
  S   S64       1.0  0.99363  0.44618  0.37309  1.0000
  S   S65       1.0  0.87085  0.42426  0.37754  1.0000
  C   C211      1.0  0.92034  0.41593  0.46341  1.0000
  N   N15       1.0  0.13867  0.33690  0.33279  1.0000
  H   H256      1.0  0.34592  0.61021  0.28714  1.0000
  C   C212      1.0  0.29113  0.62320  0.24330  1.0000
  H   H257      1.0  0.86642  0.42553  0.45373  1.0000
  C   C213      1.0  0.11409  0.38594  0.35655  1.0000
  C   C214      1.0  0.02936  0.34767  0.29769  1.0000
  C   C215      1.0  0.98902  0.34449  0.31277  1.0000
  C   C216      1.0  0.99181  0.36586  0.32188  1.0000
  C   C217      1.0  0.03532  0.39048  0.31612  1.0000
  C   C218      1.0  0.07519  0.39362  0.30082  1.0000
  C   C219      1.0  0.07205  0.37239  0.29150  1.0000
  H   H258      1.0  0.95567  0.32545  0.31759  1.0000
  H   H259      1.0  0.96088  0.36323  0.33373  1.0000
  H   H260      1.0  0.10889  0.41262  0.29629  1.0000
  H   H261      1.0  0.10307  0.37531  0.27973  1.0000
  N   N16       1.0  0.32307  0.62990  0.26345  1.0000
  C   C220      1.0  0.67253  0.37118  0.29744  1.0000
  C   C221      1.0  0.68640  0.35433  0.29038  1.0000
  C   C222      1.0  0.72589  0.35378  0.30069  1.0000
  C   C223      1.0  0.75235  0.37023  0.31797  1.0000
  C   C224      1.0  0.73954  0.38762  0.32454  1.0000
  C   C225      1.0  0.69958  0.38795  0.31442  1.0000
  H   H262      1.0  0.66644  0.34152  0.27716  1.0000
  H   H263      1.0  0.73558  0.34030  0.29547  1.0000
  H   H264      1.0  0.75942  0.40029  0.33790  1.0000
  H   H265      1.0  0.68925  0.40110  0.31999  1.0000
  S   S66       1.0  0.15763  0.57515  0.27895  1.0000
  S   S67       1.0  0.96040  0.49465  0.34701  1.0000
  C   C226      1.0  0.10265  0.55292  0.29784  1.0000
  C   C227      1.0  0.06785  0.55906  0.30598  1.0000
  C   C228      1.0  0.02445  0.54105  0.32109  1.0000
  C   C229      1.0  0.01529  0.51673  0.32802  1.0000
  C   C230      1.0  0.05002  0.51056  0.31986  1.0000
  C   C231      1.0  0.09378  0.52870  0.30499  1.0000
  H   H266      1.0  0.07454  0.57776  0.30079  1.0000
  H   H267      1.0  0.99782  0.54598  0.32739  1.0000
  H   H268      1.0  0.04338  0.49188  0.32514  1.0000
  H   H269      1.0  0.12060  0.52383  0.29886  1.0000
  C   C232      1.0  0.31275  0.34897  0.24972  1.0000
  C   C233      1.0  0.03658  0.34418  0.36434  1.0000
  H   H270      1.0  0.99666  0.33248  0.37093  1.0000
  H   H271      1.0  0.96422  0.52213  0.41747  1.0000
  C   C234      1.0  0.02727  0.49182  0.41320  1.0000
  C   C235      1.0  0.99262  0.51999  0.26358  1.0000
  C   C236      1.0  0.06021  0.33295  0.35363  1.0000
  H   H272      1.0  0.58695  0.45618  0.25155  1.0000
  H   H273      1.0  0.03175  0.47848  0.45569  1.0000
  C   C237      1.0  0.11208  0.34806  0.34412  1.0000
  H   H274      1.0  0.16644  0.33226  0.36523  1.0000
  H   H275      1.0  0.62756  0.32831  0.37967  1.0000
  H   H276      1.0  0.90450  0.47498  0.42214  1.0000
  H   H277      1.0  0.18973  0.37038  0.30816  1.0000
  C   C238      1.0  0.06335  0.37061  0.36569  1.0000
  C   C239      1.0  0.13838  0.37490  0.34612  1.0000
  H   H278      1.0  0.01740  0.54057  0.26675  1.0000
  H   H279      1.0  0.70702  0.32921  0.37172  1.0000
  H   H280      1.0  0.51805  0.38907  0.27918  1.0000
  C   C240      1.0  0.89308  0.36720  0.23280  1.0000
  H   H281      1.0  0.03250  0.38395  0.25094  1.0000
  S   S68       1.0  0.02532  0.32048  0.28685  1.0000
  H   H282      1.0  0.87887  0.42797  0.25873  1.0000
  H   H283      1.0  0.06470  0.50614  0.41931  1.0000
  H   H284      1.0  0.17775  0.38767  0.33928  1.0000
  C   C241      1.0  0.93307  0.36699  0.24354  1.0000
  H   H285      1.0  0.92529  0.50315  0.45298  1.0000
  H   H286      1.0  0.25586  0.61914  0.28636  1.0000
  H   H287      1.0  0.93858  0.47510  0.39594  1.0000
  H   H288      1.0  0.48140  0.41238  0.28566  1.0000
  C   C242      1.0  0.89786  0.44367  0.24480  1.0000
  H   H289      1.0  0.61771  0.43961  0.25972  1.0000
  C   C243      1.0  0.93739  0.47399  0.41555  1.0000
  H   H290      1.0  0.56741  0.43609  0.27894  1.0000
  C   C244      1.0  0.02173  0.38212  0.23252  1.0000
  H   H291      1.0  0.20998  0.36180  0.34737  1.0000
  H   H292      1.0  0.20126  0.33251  0.33888  1.0000
  H   H293      1.0  0.57524  0.31664  0.29792  1.0000
  C   C245      1.0  0.67536  0.31855  0.36116  1.0000
  S   S69       1.0  0.15739  0.36389  0.24835  1.0000
  C   C246      1.0  0.85931  0.37139  0.24574  1.0000
  H   H294      1.0  0.31336  0.63584  0.30007  1.0000
  H   H295      1.0  0.34461  0.60301  0.25700  1.0000
  H   H296      1.0  0.41362  0.34361  0.26022  1.0000
  Fe  Fe33      1.0  0.19582  0.34205  0.24647  1.0000
  C   C247      1.0  0.99656  0.51980  0.41351  1.0000
  S   S70       1.0  0.57887  0.31304  0.24524  1.0000
  H   H297      1.0  0.12960  0.34770  0.29800  1.0000
  H   H298      1.0  0.28604  0.58978  0.27561  1.0000
  H   H299      1.0  0.00305  0.52217  0.39381  1.0000
  C   C248      1.0  0.68000  0.30580  0.34282  1.0000
  C   C249      1.0  0.32508  0.60726  0.27115  1.0000
  N   N17       1.0  0.54311  0.41569  0.24767  1.0000
  H   H300      1.0  0.34289  0.34417  0.28142  1.0000
  S   S71       1.0  0.08554  0.60588  0.25004  1.0000
  C   C250      1.0  0.38727  0.34572  0.25032  1.0000
  S   S72       1.0  0.26560  0.35167  0.26514  1.0000
  H   H301      1.0  0.56850  0.39147  0.26086  1.0000
  H   H302      1.0  0.97054  0.40679  0.47939  1.0000
  C   C251      1.0  0.53319  0.39175  0.26047  1.0000
  C   C252      1.0  0.88568  0.42327  0.46797  1.0000
  C   C253      1.0  0.16016  0.34960  0.30855  1.0000
  H   H303      1.0  0.98518  0.33180  0.23326  1.0000
  H   H304      1.0  0.17870  0.34100  0.29910  1.0000
  H   H305      1.0  0.03150  0.49476  0.39352  1.0000
  Fe  Fe34      1.0  0.15518  0.60521  0.25569  1.0000
  H   H306      1.0  0.50494  0.37472  0.25183  1.0000
  H   H307      1.0  0.03095  0.53590  0.42039  1.0000
  H   H308      1.0  0.36389  0.40957  0.24817  1.0000
  C   C254      1.0  0.95952  0.33687  0.24205  1.0000
  Fe  Fe35      1.0  0.08511  0.32593  0.25862  1.0000
  C   C255      1.0  0.49477  0.41476  0.24732  1.0000
  C   C256      1.0  0.93052  0.46883  0.25050  1.0000
  N   N18       1.0  0.98600  0.49456  0.42349  1.0000
  C   C257      1.0  0.18090  0.34105  0.34670  1.0000
  H   H309      1.0  0.93539  0.47126  0.26903  1.0000
  H   H310      1.0  0.40032  0.40951  0.28561  1.0000
  H   H311      1.0  0.13415  0.40659  0.35706  1.0000
  H   H312      1.0  0.04427  0.37937  0.37314  1.0000
  C   C258      1.0  0.42125  0.41155  0.26901  1.0000
  H   H313      1.0  0.96643  0.37162  0.27710  1.0000
  C   C259      1.0  0.90345  0.37582  0.28045  1.0000
  C   C260      1.0  0.00797  0.48444  0.46345  1.0000
  H   H314      1.0  0.92890  0.52415  0.23579  1.0000
  C   C261      1.0  0.40072  0.41170  0.24791  1.0000
  N   N19       1.0  0.98874  0.51689  0.23794  1.0000
  H   H315      1.0  0.01912  0.47214  0.41778  1.0000
  H   H316      1.0  0.96702  0.33796  0.26094  1.0000
  C   C262      1.0  0.58026  0.43786  0.25999  1.0000
  C   C263      1.0  0.98168  0.49269  0.44965  1.0000
  H   H317      1.0  0.82857  0.37107  0.23736  1.0000
  H   H318      1.0  0.90714  0.37898  0.29903  1.0000
  H   H319      1.0  0.95483  0.51265  0.27330  1.0000
  H   H320      1.0  0.92901  0.45468  0.42187  1.0000
  C   C264      1.0  0.86438  0.37558  0.26953  1.0000
  C   C265      1.0  0.93728  0.37160  0.26772  1.0000
  C   C266      1.0  0.10506  0.30887  0.33079  1.0000
  H   H321      1.0  0.91953  0.32059  0.24132  1.0000
  C   C267      1.0  0.94849  0.49805  0.46217  1.0000
  C   C268      1.0  0.46758  0.41309  0.26880  1.0000
  H   H322      1.0  0.83784  0.37851  0.27964  1.0000
  H   H323      1.0  0.03658  0.31251  0.35252  1.0000
  C   C269      1.0  0.63074  0.31818  0.36545  1.0000
  H   H324      1.0  0.25156  0.60658  0.24845  1.0000
  C   C270      1.0  0.29693  0.63475  0.28301  1.0000
  H   H325      1.0  0.52521  0.30554  0.32101  1.0000
  H   H326      1.0  0.71546  0.30676  0.33930  1.0000
  C   C271      1.0  0.59084  0.30535  0.35117  1.0000
  H   H327      1.0  0.55710  0.30569  0.35519  1.0000
  H   H328      1.0  0.05764  0.51701  0.23361  1.0000
  H   H329      1.0  0.99219  0.55264  0.23270  1.0000
  C   C272      1.0  0.95532  0.48988  0.23265  1.0000
  Fe  Fe36      1.0  0.90719  0.42700  0.57662  1.0000
  S   S73       1.0  0.92521  0.45843  0.60057  1.0000
  S   S74       1.0  0.88648  0.43131  0.53899  1.0000
  Fe  Fe37      1.0  0.91152  0.39349  0.61662  1.0000
  S   S75       1.0  0.92958  0.42181  0.64297  1.0000
  S   S76       1.0  0.91095  0.35857  0.63065  1.0000
  Fe  Fe38      1.0  0.87040  0.42695  0.62818  1.0000
  S   S77       1.0  0.81629  0.42671  0.65657  1.0000
  Fe  Fe39      1.0  0.98348  0.45128  0.61408  1.0000
  S   S78       1.0  0.05682  0.48431  0.62563  1.0000
  S   S79       1.0  0.84715  0.39576  0.60378  1.0000
  S   S80       1.0  0.97059  0.42264  0.58817  1.0000
  Fe  Fe40      1.0  0.25991  0.48926  0.70244  1.0000
  S   S81       1.0  0.20344  0.46077  0.67909  1.0000
  H   H330      1.0  0.87939  0.51904  0.64921  1.0000
  H   H331      1.0  0.17128  0.40321  0.70362  1.0000
  S   S82       1.0  0.81799  0.52518  0.68420  1.0000
  S   S83       1.0  0.57858  0.49437  0.70685  1.0000
  H   H332      1.0  0.69130  0.61381  0.72494  1.0000
  H   H333      1.0  0.36225  0.60817  0.70615  1.0000
  C   C273      1.0  0.60322  0.61692  0.68145  1.0000
  H   H334      1.0  0.84884  0.43332  0.49436  1.0000
  H   H335      1.0  0.02162  0.50274  0.66622  1.0000
  H   H336      1.0  0.54086  0.58430  0.70125  1.0000
  H   H337      1.0  0.90691  0.32457  0.66796  1.0000
  C   C274      1.0  0.81922  0.45463  0.66437  1.0000
  C   C275      1.0  0.85359  0.47885  0.65239  1.0000
  C   C276      1.0  0.85325  0.50041  0.65877  1.0000
  C   C277      1.0  0.81880  0.49792  0.67718  1.0000
  C   C278      1.0  0.78534  0.47377  0.68946  1.0000
  C   C279      1.0  0.78546  0.45224  0.68303  1.0000
  H   H338      1.0  0.87975  0.48090  0.63796  1.0000
  H   H339      1.0  0.75903  0.47157  0.70378  1.0000
  H   H340      1.0  0.75843  0.43354  0.69221  1.0000
  H   H341      1.0  0.93485  0.46323  0.66753  1.0000
  C   C280      1.0  0.09666  0.47732  0.64075  1.0000
  C   C281      1.0  0.13826  0.49702  0.65098  1.0000
  C   C282      1.0  0.17089  0.49212  0.66300  1.0000
  C   C283      1.0  0.16246  0.46751  0.66466  1.0000
  C   C284      1.0  0.12030  0.44769  0.65479  1.0000
  C   C285      1.0  0.08725  0.45251  0.64303  1.0000
  H   H342      1.0  0.14575  0.51625  0.64928  1.0000
  H   H343      1.0  0.20333  0.50756  0.67039  1.0000
  H   H344      1.0  0.11340  0.42858  0.65601  1.0000
  H   H345      1.0  0.05522  0.43717  0.63523  1.0000
  C   C286      1.0  0.89919  0.42429  0.51029  1.0000
  C   C287      1.0  0.93341  0.41668  0.50578  1.0000
  S   S84       1.0  0.41269  0.58142  0.69597  1.0000
  H   H346      1.0  0.95218  0.41416  0.52015  1.0000
  S   S85       1.0  0.34463  0.50619  0.70023  1.0000
  Fe  Fe41      1.0  0.75920  0.52048  0.71263  1.0000
  H   H347      1.0  0.71852  0.41439  0.63603  1.0000
  C   C288      1.0  0.66565  0.61386  0.71297  1.0000
  C   C289      1.0  0.86151  0.33701  0.65227  1.0000
  N   N20       1.0  0.26989  0.41614  0.70646  1.0000
  H   H348      1.0  0.50584  0.63069  0.68388  1.0000
  S   S86       1.0  0.71874  0.54161  0.71109  1.0000
  H   H349      1.0  0.81232  0.38628  0.68859  1.0000
  C   C290      1.0  0.81342  0.33359  0.65290  1.0000
  H   H350      1.0  0.79983  0.60702  0.72319  1.0000
  H   H351      1.0  0.80678  0.34523  0.64063  1.0000
  H   H352      1.0  0.00578  0.45997  0.67062  1.0000
  H   H353      1.0  0.30451  0.43793  0.67233  1.0000
  C   C291      1.0  0.49037  0.49392  0.70777  1.0000
  H   H354      1.0  0.49864  0.49799  0.68879  1.0000
  H   H355      1.0  0.41972  0.49233  0.70772  1.0000
  C   C292      1.0  0.08462  0.43841  0.72388  1.0000
  C   C293      1.0  0.03961  0.41789  0.71698  1.0000
  N   N21       1.0  0.67109  0.48581  0.64439  1.0000
  C   C294      1.0  0.62190  0.47640  0.65843  1.0000
  C   C295      1.0  0.71157  0.50751  0.65591  1.0000
  C   C296      1.0  0.66825  0.49552  0.62049  1.0000
  C   C297      1.0  0.68337  0.46592  0.64250  1.0000
  C   C298      1.0  0.72814  0.47170  0.62881  1.0000
  C   C299      1.0  0.65212  0.44063  0.65409  1.0000
  C   C300      1.0  0.74003  0.45315  0.62629  1.0000
  C   C301      1.0  0.66470  0.42229  0.65159  1.0000
  C   C302      1.0  0.70837  0.42850  0.63763  1.0000
  H   H356      1.0  0.58936  0.46012  0.65072  1.0000
  H   H357      1.0  0.62238  0.47032  0.67716  1.0000
  H   H358      1.0  0.61347  0.49170  0.65927  1.0000
  H   H359      1.0  0.70317  0.52260  0.65850  1.0000
  H   H360      1.0  0.74952  0.51711  0.64567  1.0000
  H   H361      1.0  0.71580  0.50071  0.67357  1.0000
  H   H362      1.0  0.64006  0.47948  0.61076  1.0000
  H   H363      1.0  0.65678  0.50967  0.62136  1.0000
  H   H364      1.0  0.70548  0.50558  0.60959  1.0000
  H   H365      1.0  0.75480  0.49075  0.62022  1.0000
  H   H366      1.0  0.61802  0.43455  0.66535  1.0000
  H   H367      1.0  0.77478  0.45804  0.61602  1.0000
  H   H368      1.0  0.64077  0.40318  0.66072  1.0000
  C   C303      1.0  0.25124  0.39051  0.69829  1.0000
  C   C304      1.0  0.52435  0.49173  0.72138  1.0000
  C   C305      1.0  0.46373  0.60105  0.71263  1.0000
  H   H369      1.0  0.34915  0.42910  0.69859  1.0000
  S   S87       1.0  0.68778  0.48217  0.72364  1.0000
  C   C306      1.0  0.58176  0.59724  0.69994  1.0000
  C   C307      1.0  0.00393  0.46099  0.69005  1.0000
  C   C308      1.0  0.18342  0.40642  0.72123  1.0000
  C   C309      1.0  0.65549  0.63503  0.67877  1.0000
  H   H370      1.0  0.33793  0.44593  0.71993  1.0000
  C   C310      1.0  0.97478  0.47614  0.72289  1.0000
  H   H371      1.0  0.11565  0.45155  0.71076  1.0000
  H   H372      1.0  0.73520  0.31046  0.66797  1.0000
  H   H373      1.0  0.23846  0.42553  0.67729  1.0000
  H   H374      1.0  0.83596  0.31506  0.59458  1.0000
  C   C311      1.0  0.50509  0.62475  0.70220  1.0000
  H   H375      1.0  0.02166  0.47555  0.49837  1.0000
  H   H376      1.0  0.99782  0.51404  0.68839  1.0000
  C   C312      1.0  0.86967  0.32183  0.66823  1.0000
  H   H377      1.0  0.57888  0.61845  0.66946  1.0000
  C   C313      1.0  0.80774  0.38221  0.70769  1.0000
  C   C314      1.0  0.77291  0.31387  0.66836  1.0000
  H   H378      1.0  0.04409  0.47034  0.69444  1.0000
  H   H379      1.0  0.98110  0.44082  0.69824  1.0000
  H   H380      1.0  0.03585  0.41517  0.69832  1.0000
  H   H381      1.0  0.96532  0.38541  0.72769  1.0000
  H   H382      1.0  0.34338  0.63061  0.71138  1.0000
  C   C315      1.0  0.00255  0.48263  0.48813  1.0000
  Fe  Fe42      1.0  0.64858  0.50382  0.72527  1.0000
  N   N22       1.0  0.98100  0.47567  0.69698  1.0000
  Fe  Fe43      1.0  0.35104  0.54163  0.71235  1.0000
  C   C316      1.0  0.68666  0.63349  0.69450  1.0000
  H   H383      1.0  0.21344  0.38217  0.69124  1.0000
  C   C317      1.0  0.80491  0.36033  0.71744  1.0000
  C   C318      1.0  0.93094  0.46379  0.68702  1.0000
  H   H384      1.0  0.90406  0.44369  0.69490  1.0000
  C   C319      1.0  0.01456  0.50233  0.68573  1.0000
  H   H385      1.0  0.05240  0.51222  0.69293  1.0000
  S   S88       1.0  0.26780  0.52607  0.71040  1.0000
  H   H386      1.0  0.91240  0.47466  0.68945  1.0000
  C   C320      1.0  0.44554  0.49074  0.71849  1.0000
  C   C321      1.0  0.61258  0.59510  0.71630  1.0000
  H   H387      1.0  0.28271  0.45218  0.69227  1.0000
  H   H388      1.0  0.80499  0.41483  0.71339  1.0000
  C   C322      1.0  0.32214  0.42663  0.71357  1.0000
  H   H389      1.0  0.96498  0.48611  0.51896  1.0000
  C   C323      1.0  0.87539  0.42747  0.49118  1.0000
  H   H390      1.0  0.91686  0.49966  0.49612  1.0000
  C   C324      1.0  0.27402  0.43359  0.68628  1.0000
  H   H391      1.0  0.24703  0.37675  0.71305  1.0000
  H   H392      1.0  0.80729  0.34750  0.70600  1.0000
  H   H393      1.0  0.27778  0.39144  0.68389  1.0000
  H   H394      1.0  0.29666  0.59703  0.71104  1.0000
  H   H395      1.0  0.61196  0.55172  0.71864  1.0000
  C   C325      1.0  0.23350  0.41364  0.72580  1.0000
  C   C326      1.0  0.80337  0.39852  0.72229  1.0000
  H   H396      1.0  0.52563  0.54625  0.72067  1.0000
  C   C327      1.0  0.94324  0.49607  0.48686  1.0000
  C   C328      1.0  0.97045  0.48852  0.49980  1.0000
  C   C329      1.0  0.33494  0.61106  0.71664  1.0000
  H   H397      1.0  0.32314  0.41382  0.72770  1.0000
  H   H398      1.0  0.93284  0.49520  0.72138  1.0000
  C   C330      1.0  0.94386  0.41258  0.48255  1.0000
  C   C331      1.0  0.79061  0.61914  0.73217  1.0000
  S   S89       1.0  0.04252  0.42919  0.84752  1.0000
  S   S90       1.0  0.20525  0.51751  0.77095  1.0000
  C   C332      1.0  0.08674  0.45338  0.82575  1.0000
  C   C333      1.0  0.12912  0.45307  0.81694  1.0000
  C   C334      1.0  0.16509  0.47230  0.79964  1.0000
  C   C335      1.0  0.15928  0.49219  0.79145  1.0000
  C   C336      1.0  0.11655  0.49229  0.80007  1.0000
  C   C337      1.0  0.08007  0.47280  0.81701  1.0000
  H   H399      1.0  0.13437  0.43805  0.82361  1.0000
  H   H400      1.0  0.11192  0.50765  0.79378  1.0000
  H   H401      1.0  0.04754  0.47320  0.82374  1.0000
  C   C338      1.0  0.46770  0.48263  0.75657  1.0000
  S   S91       1.0  0.34208  0.52964  0.75106  1.0000
  C   C339      1.0  0.50294  0.60980  0.74958  1.0000
  H   H402      1.0  0.50147  0.60409  0.76805  1.0000
  H   H403      1.0  0.19802  0.47214  0.79313  1.0000
  C   C340      1.0  0.02473  0.41954  0.95477  1.0000
  C   C341      1.0  0.61631  0.56032  0.73573  1.0000
  H   H404      1.0  0.79539  0.43821  0.83870  1.0000
  H   H405      1.0  0.45864  0.47781  0.77547  1.0000
  S   S92       1.0  0.37498  0.47797  0.75665  1.0000
  Fe  Fe44      1.0  0.25837  0.51127  0.74836  1.0000
  C   C342      1.0  0.16154  0.40778  0.76226  1.0000
  C   C343      1.0  0.08213  0.42617  0.92096  1.0000
  N   N23       1.0  0.03048  0.42005  0.92871  1.0000
  C   C344      1.0  0.02387  0.44006  0.91738  1.0000
  H   H406      1.0  0.98589  0.43647  0.92328  1.0000
  C   C345      1.0  0.99296  0.39535  0.91960  1.0000
  C   C346      1.0  0.94559  0.35860  0.77279  1.0000
  Fe  Fe45      1.0  0.90104  0.44820  0.85234  1.0000
  H   H407      1.0  0.88447  0.37468  0.78626  1.0000
  C   C347      1.0  0.05045  0.42503  0.76485  1.0000
  C   C348      1.0  0.84310  0.50990  0.86786  1.0000
  H   H408      1.0  0.73612  0.40677  0.79029  1.0000
  C   C349      1.0  0.51329  0.48650  0.74591  1.0000
  H   H409      1.0  0.08738  0.42621  0.90142  1.0000
  C   C350      1.0  0.08991  0.44204  0.74771  1.0000
  C   C351      1.0  0.94354  0.48836  0.75695  1.0000
  H   H410      1.0  0.82782  0.44495  0.73995  1.0000
  H   H411      1.0  0.11252  0.44548  0.92541  1.0000
  C   C352      1.0  0.60122  0.58754  0.75886  1.0000
  H   H412      1.0  0.00955  0.46253  0.77542  1.0000
  H   H413      1.0  0.73078  0.62004  0.78324  1.0000
  H   H414      1.0  0.05307  0.45973  0.92142  1.0000
  N   N24       1.0  0.33709  0.60709  0.74244  1.0000
  H   H415      1.0  0.91533  0.34452  0.78665  1.0000
  N   N25       1.0  0.96131  0.38541  0.77616  1.0000
  H   H416      1.0  0.90342  0.38332  0.75535  1.0000
  H   H417      1.0  0.02689  0.44045  0.89777  1.0000
  C   C353      1.0  0.84739  0.31163  0.82536  1.0000
  H   H418      1.0  0.98277  0.40885  0.80550  1.0000
  C   C354      1.0  0.79814  0.35472  0.74186  1.0000
  H   H419      1.0  0.96195  0.48092  0.79115  1.0000
  H   H420      1.0  0.35264  0.57775  0.73878  1.0000
  H   H421      1.0  0.99718  0.37946  0.92633  1.0000
  C   C355      1.0  0.77927  0.32006  0.80323  1.0000
  S   S93       1.0  0.87559  0.40217  0.93692  1.0000
  C   C356      1.0  0.80830  0.33626  0.82010  1.0000
  C   C357      1.0  0.29787  0.60992  0.75496  1.0000
  C   C358      1.0  0.97382  0.38970  0.80101  1.0000
  C   C359      1.0  0.99163  0.46886  0.76341  1.0000
  H   H422      1.0  0.52094  0.54110  0.75207  1.0000
  C   C360      1.0  0.79614  0.39327  0.74733  1.0000
  C   C361      1.0  0.05597  0.44213  0.96604  1.0000
  C   C362      1.0  0.79487  0.49539  0.86000  1.0000
  H   H423      1.0  0.75926  0.42478  0.73965  1.0000
  H   H424      1.0  0.83605  0.54771  0.79298  1.0000
  S   S94       1.0  0.24664  0.47364  0.74044  1.0000
  H   H425      1.0  0.79506  0.33738  0.74935  1.0000
  H   H426      1.0  0.25966  0.59723  0.74860  1.0000
  H   H427      1.0  0.77212  0.47477  0.86454  1.0000
  C   C363      1.0  0.32351  0.58036  0.74769  1.0000
  C   C364      1.0  0.39567  0.62370  0.77483  1.0000
  C   C365      1.0  0.43354  0.48466  0.74292  1.0000
  H   H428      1.0  0.92366  0.49690  0.76397  1.0000
  C   C366      1.0  0.76314  0.61050  0.75445  1.0000
  H   H429      1.0  0.08908  0.41186  0.92948  1.0000
  C   C367      1.0  0.38764  0.62512  0.75060  1.0000
  H   H430      1.0  0.75205  0.32286  0.79491  1.0000
  H   H431      1.0  0.13451  0.40609  0.77608  1.0000
  H   H432      1.0  0.96276  0.37898  0.96283  1.0000
  S   S95       1.0  0.90138  0.48137  0.83336  1.0000
  H   H433      1.0  0.97828  0.35616  0.77359  1.0000
  H   H434      1.0  0.53892  0.48455  0.75658  1.0000
  H   H435      1.0  0.74191  0.37979  0.79135  1.0000
  H   H436      1.0  0.94346  0.45600  0.94745  1.0000
  H   H437      1.0  0.51399  0.56577  0.73915  1.0000
  Fe  Fe46      1.0  0.96914  0.42721  0.85582  1.0000
  H   H438      1.0  0.86437  0.57721  0.80659  1.0000
  S   S96       1.0  0.95665  0.45228  0.87843  1.0000
  C   C368      1.0  0.93131  0.44364  0.96377  1.0000
  H   H439      1.0  0.85775  0.50052  0.87832  1.0000
  C   C369      1.0  0.21011  0.41458  0.76744  1.0000
  C   C370      1.0  0.83412  0.42081  0.77855  1.0000
  H   H440      1.0  0.77054  0.57564  0.82342  1.0000
  H   H441      1.0  0.28298  0.42343  0.75486  1.0000
  H   H442      1.0  0.95312  0.38989  0.92446  1.0000
  C   C371      1.0  0.96515  0.47937  0.77231  1.0000
  H   H443      1.0  0.00672  0.38808  0.80466  1.0000
  S   S97       1.0  0.92040  0.42674  0.82823  1.0000
  Fe  Fe47      1.0  0.89098  0.41506  0.89701  1.0000
  H   H444      1.0  0.91046  0.54749  0.86791  1.0000
  Fe  Fe48      1.0  0.73268  0.54723  0.74912  1.0000
  H   H445      1.0  0.72821  0.53924  0.80124  1.0000
  C   C372      1.0  0.80649  0.53396  0.83855  1.0000
  S   S98       1.0  0.78077  0.53025  0.74936  1.0000
  H   H446      1.0  0.71894  0.43218  0.82114  1.0000
  H   H447      1.0  0.74148  0.51457  0.80324  1.0000
  S   S99       1.0  0.70439  0.46379  0.78806  1.0000
  C   C373      1.0  0.75591  0.44942  0.81588  1.0000
  S   S100      1.0  0.80251  0.36224  0.82610  1.0000
  C   C374      1.0  0.79919  0.45280  0.82587  1.0000
  C   C375      1.0  0.73977  0.52897  0.81339  1.0000
  H   H448      1.0  0.75603  0.55618  0.85093  1.0000
  C   C376      1.0  0.91735  0.38796  0.77310  1.0000
  C   C377      1.0  0.76002  0.46837  0.79950  1.0000
  H   H449      1.0  0.11060  0.39862  0.73510  1.0000
  S   S101      1.0  0.66071  0.51019  0.76329  1.0000
  H   H450      1.0  0.05735  0.42907  0.78294  1.0000
  C   C378      1.0  0.75178  0.62651  0.76596  1.0000
  H   H451      1.0  0.87130  0.43119  0.76762  1.0000
  H   H452      1.0  0.82059  0.58111  0.84102  1.0000
  H   H453      1.0  0.70846  0.51864  0.82787  1.0000
  C   C379      1.0  0.79136  0.43170  0.75101  1.0000
  N   N26       1.0  0.79116  0.40992  0.76347  1.0000
  H   H454      1.0  0.22081  0.41826  0.78531  1.0000
  H   H455      1.0  0.32043  0.57480  0.76687  1.0000
  C   C380      1.0  0.53558  0.55631  0.73703  1.0000
  H   H456      1.0  0.83344  0.43456  0.79011  1.0000
  C   C381      1.0  0.84248  0.33202  0.83114  1.0000
  H   H457      1.0  0.92915  0.35233  0.75574  1.0000
  H   H458      1.0  0.81442  0.56916  0.78838  1.0000
  S   S102      1.0  0.90666  0.39017  0.87533  1.0000
  H   H459      1.0  0.99781  0.39657  0.89994  1.0000
  H   H460      1.0  0.81188  0.50519  0.78024  1.0000
  C   C382      1.0  0.85478  0.54829  0.84755  1.0000
  C   C383      1.0  0.77665  0.50707  0.84548  1.0000
  Fe  Fe49      1.0  0.85644  0.39162  0.84944  1.0000
  Fe  Fe50      1.0  0.70790  0.49272  0.76045  1.0000
  H   H461      1.0  0.94135  0.37541  0.81388  1.0000
  C   C384      1.0  0.82773  0.56081  0.80179  1.0000
  H   H462      1.0  0.78669  0.44358  0.76365  1.0000
  H   H463      1.0  0.86458  0.34420  0.84436  1.0000
  S   S103      1.0  0.74391  0.58030  0.76898  1.0000
  C   C385      1.0  0.80796  0.49062  0.79298  1.0000
  N   N27       1.0  0.78945  0.54694  0.82249  1.0000
  H   H464      1.0  0.83298  0.40575  0.79064  1.0000
  H   H465      1.0  0.58558  0.60002  0.75946  1.0000
  H   H466      1.0  0.73965  0.49440  0.83942  1.0000
  H   H467      1.0  0.78901  0.36587  0.77546  1.0000
  C   C386      1.0  0.84680  0.47548  0.81994  1.0000
  H   H468      1.0  0.87343  0.30821  0.83414  1.0000
  C   C387      1.0  0.78399  0.56577  0.83506  1.0000
  C   C388      1.0  0.74267  0.39455  0.77894  1.0000
  C   C389      1.0  0.87286  0.53632  0.86180  1.0000
  C   C390      1.0  0.79423  0.37101  0.75662  1.0000
  H   H469      1.0  0.87931  0.56882  0.84330  1.0000
  C   C391      1.0  0.89841  0.41705  0.96349  1.0000
  H   H470      1.0  0.88765  0.51195  0.79880  1.0000
  C   C392      1.0  0.85100  0.49431  0.80340  1.0000
  C   C393      1.0  0.00411  0.40370  0.75850  1.0000
  H   H471      1.0  0.28596  0.56620  0.74155  1.0000
  S   S104      1.0  0.83399  0.41301  0.87248  1.0000
  H   H472      1.0  0.70953  0.38447  0.76830  1.0000
  H   H473      1.0  0.08408  0.46002  0.95595  1.0000
  H   H474      1.0  0.29316  0.60449  0.77428  1.0000
  H   H475      1.0  0.92753  0.40783  0.77545  1.0000
  H   H476      1.0  0.58385  0.57319  0.77463  1.0000
  H   H477      1.0  0.36549  0.60944  0.78761  1.0000
  H   H478      1.0  0.12509  0.45818  0.75291  1.0000
  H   H479      1.0  0.64260  0.60004  0.76093  1.0000
  H   H480      1.0  0.59967  0.54432  0.75011  1.0000
  C   C394      1.0  0.99968  0.40087  0.73396  1.0000
  H   H481      1.0  0.30791  0.63010  0.75236  1.0000
  C   C395      1.0  0.24574  0.41750  0.74959  1.0000
  C   C396      1.0  0.54413  0.63346  0.73925  1.0000
  N   N28       1.0  0.59139  0.57506  0.73654  1.0000
  H   H482      1.0  0.43203  0.57556  0.74459  1.0000
  Fe  Fe51      1.0  0.33211  0.49353  0.73894  1.0000
  H   H483      1.0  0.65772  0.57237  0.73789  1.0000
  C   C397      1.0  0.46320  0.59360  0.73629  1.0000
  C   C398      1.0  0.98897  0.39696  0.96967  1.0000
  C   C399      1.0  0.14820  0.40365  0.73920  1.0000
  C   C400      1.0  0.99648  0.46719  0.73911  1.0000
  H   H484      1.0  0.01844  0.45937  0.73342  1.0000
  C   C401      1.0  0.94859  0.48703  0.73260  1.0000
  S   S105      1.0  0.62913  0.87585  0.18095  1.0000
  C   C402      1.0  0.23217  0.79630  0.17987  1.0000
  Fe  Fe52      1.0  0.09697  0.83845  0.21203  1.0000
  H   H485      1.0  0.29046  0.92554  0.14767  1.0000
  S   S106      1.0  0.05868  0.84681  0.18329  1.0000
  S   S107      1.0  0.13842  0.81958  0.20188  1.0000
  S   S108      1.0  0.07671  0.95094  0.14987  1.0000
  H   H486      1.0  0.09049  0.88648  0.10533  1.0000
  C   C403      1.0  0.06121  0.87562  0.17634  1.0000
  C   C404      1.0  0.03065  0.87586  0.15923  1.0000
  C   C405      1.0  0.03362  0.89864  0.15177  1.0000
  C   C406      1.0  0.06797  0.92154  0.16106  1.0000
  C   C407      1.0  0.09753  0.92123  0.17873  1.0000
  C   C408      1.0  0.09374  0.89825  0.18658  1.0000
  H   H487      1.0  0.00515  0.85839  0.15135  1.0000
  H   H488      1.0  0.01063  0.89860  0.13820  1.0000
  H   H489      1.0  0.12391  0.93885  0.18614  1.0000
  H   H490      1.0  0.11660  0.89819  0.20019  1.0000
  S   S109      1.0  0.29974  0.67934  0.19957  1.0000
  H   H491      1.0  0.28847  0.89652  0.15321  1.0000
  H   H492      1.0  0.37572  0.87141  0.19504  1.0000
  C   C409      1.0  0.68641  0.87965  0.16918  1.0000
  H   H493      1.0  0.67302  0.84487  0.18725  1.0000
  C   C410      1.0  0.39255  0.72346  0.20255  1.0000
  H   H494      1.0  0.39053  0.76969  0.19297  1.0000
  H   H495      1.0  0.39493  0.72577  0.18346  1.0000
  Fe  Fe53      1.0  0.01835  0.94907  0.12647  1.0000
  H   H496      1.0  0.46777  0.75705  0.20460  1.0000
  H   H497      1.0  0.18089  0.74615  0.17303  1.0000
  H   H498      1.0  0.19737  0.79699  0.17907  1.0000
  N   N29       1.0  0.21443  0.89121  0.15230  1.0000
  C   C411      1.0  0.19198  0.86351  0.14973  1.0000
  C   C412      1.0  0.26940  0.90506  0.14405  1.0000
  C   C413      1.0  0.20934  0.89388  0.17780  1.0000
  C   C414      1.0  0.18974  0.90226  0.13911  1.0000
  C   C415      1.0  0.14676  0.88730  0.12635  1.0000
  C   C416      1.0  0.20782  0.92872  0.13932  1.0000
  C   C417      1.0  0.12405  0.89836  0.11440  1.0000
  H   H499      1.0  0.21161  0.85588  0.15979  1.0000
  H   H500      1.0  0.15112  0.85170  0.15689  1.0000
  H   H501      1.0  0.19496  0.86001  0.13095  1.0000
  H   H502      1.0  0.27497  0.90442  0.12470  1.0000
  H   H503      1.0  0.16850  0.88368  0.18454  1.0000
  H   H504      1.0  0.22710  0.88561  0.18841  1.0000
  H   H505      1.0  0.22767  0.91419  0.18170  1.0000
  H   H506      1.0  0.12889  0.86685  0.12587  1.0000
  H   H507      1.0  0.24392  0.79435  0.16176  1.0000
  N   N30       1.0  0.22309  0.77484  0.19681  1.0000
  C   C418      1.0  0.17613  0.75118  0.19101  1.0000
  C   C419      1.0  0.26827  0.77283  0.19582  1.0000
  C   C420      1.0  0.26545  0.74947  0.19270  1.0000
  C   C421      1.0  0.35667  0.77049  0.19386  1.0000
  C   C422      1.0  0.30919  0.74847  0.19173  1.0000
  S   S110      1.0  0.15635  0.65389  0.20898  1.0000
  H   H508      1.0  0.39743  0.81054  0.19952  1.0000
  H   H509      1.0  0.14290  0.75334  0.19150  1.0000
  C   C423      1.0  0.36054  0.79349  0.19741  1.0000
  C   C424      1.0  0.31704  0.79461  0.19861  1.0000
  S   S111      1.0  0.49980  0.81790  0.21889  1.0000
  C   C425      1.0  0.43379  0.74118  0.21448  1.0000
  H   H510      1.0  0.32180  0.81272  0.20183  1.0000
  H   H511      1.0  0.26200  0.81544  0.18496  1.0000
  C   C426      1.0  0.34871  0.70253  0.21517  1.0000
  H   H512      1.0  0.16485  0.73457  0.20406  1.0000
  C   C427      1.0  0.14277  0.92436  0.11500  1.0000
  C   C428      1.0  0.69888  0.86164  0.17519  1.0000
  C   C429      1.0  0.18448  0.93950  0.12748  1.0000
  H   H513      1.0  0.23943  0.94115  0.14912  1.0000
  H   H514      1.0  0.23001  0.73164  0.19094  1.0000
  H   H515      1.0  0.30624  0.73048  0.18920  1.0000
  H   H516      1.0  0.02355  0.93379  0.99266  1.0000
  H   H517      1.0  0.01912  0.94918  0.19196  1.0000
  C   C430      1.0  0.02111  0.95801  0.20814  1.0000
  S   S112      1.0  0.27618  0.86139  0.20935  1.0000
  Fe  Fe54      1.0  0.58323  0.85010  0.21437  1.0000
  Fe  Fe55      1.0  0.22188  0.65084  0.21844  1.0000
  H   H518      1.0  0.04844  0.70254  0.21263  1.0000
  S   S113      1.0  0.99810  0.94286  0.03864  1.0000
  H   H519      1.0  0.12378  0.93261  0.10647  1.0000
  C   C431      1.0  0.36440  0.86192  0.21280  1.0000
  H   H520      1.0  0.45706  0.69625  0.21158  1.0000
  C   C432      1.0  0.44396  0.68659  0.22933  1.0000
  H   H521      1.0  0.24570  0.79835  0.22605  1.0000
  H   H522      1.0  0.37218  0.65839  0.21926  1.0000
  C   C433      1.0  0.06995  0.70758  0.22794  1.0000
  H   H523      1.0  0.69031  0.88486  0.22581  1.0000
  H   H524      1.0  0.17930  0.78150  0.22246  1.0000
  C   C434      1.0  0.21331  0.78002  0.22092  1.0000
  H   H525      1.0  0.43217  0.86070  0.21498  1.0000
  H   H526      1.0  0.96056  0.86066  0.20265  1.0000
  Fe  Fe56      1.0  0.19564  0.84397  0.22632  1.0000
  Fe  Fe57      1.0  0.98065  0.94869  0.07665  1.0000
  H   H527      1.0  0.71044  0.91511  0.14841  1.0000
  S   S114      1.0  0.06424  0.75019  0.22516  1.0000
  H   H528      1.0  0.07741  0.67482  0.22858  1.0000
  C   C435      1.0  0.99339  0.93726  0.99090  1.0000
  C   C436      1.0  0.39639  0.85583  0.22403  1.0000
  C   C437      1.0  0.97273  0.94206  0.01099  1.0000
  C   C438      1.0  0.03851  0.95182  0.22786  1.0000
  H   H529      1.0  0.05020  0.93823  0.22686  1.0000
  C   C439      1.0  0.31753  0.85537  0.22434  1.0000
  H   H530      1.0  0.19776  0.95953  0.12850  1.0000
  H   H531      1.0  0.00332  0.84766  0.22998  1.0000
  S   S115      1.0  0.96323  0.91791  0.10554  1.0000
  C   C440      1.0  0.82482  0.87849  0.03088  1.0000
  N   N31       1.0  0.76834  0.91347  0.23036  1.0000
  H   H532      1.0  0.92224  0.91697  0.22148  1.0000
  C   C441      1.0  0.94892  0.85722  0.22145  1.0000
  H   H533      1.0  0.88546  0.94946  0.98422  1.0000
  C   C442      1.0  0.85235  0.91609  0.22427  1.0000
  H   H534      1.0  0.91745  0.95036  0.02349  1.0000
  H   H535      1.0  0.79229  0.90137  0.06152  1.0000
  C   C443      1.0  0.91574  0.94609  0.98598  1.0000
  C   C444      1.0  0.72002  0.90116  0.15321  1.0000
  H   H536      1.0  0.79127  0.92127  0.13097  1.0000
  H   H537      1.0  0.88699  0.87204  0.02744  1.0000
  H   H538      1.0  0.78220  0.91157  0.19317  1.0000
  H   H539      1.0  0.76981  0.83580  0.06083  1.0000
  C   C445      1.0  0.77771  0.88640  0.14898  1.0000
  H   H540      1.0  0.73364  0.87439  0.22201  1.0000
  Fe  Fe58      1.0  0.90546  0.92558  0.12103  1.0000
  S   S116      1.0  0.95976  0.95462  0.14410  1.0000
  H   H541      1.0  0.76499  0.88619  0.02506  1.0000
  H   H542      1.0  0.89119  0.86566  0.21802  1.0000
  C   C446      1.0  0.79901  0.88523  0.99247  1.0000
  C   C447      1.0  0.74406  0.86487  0.16490  1.0000
  H   H543      1.0  0.80274  0.84902  0.08654  1.0000
  N   N32       1.0  0.82098  0.87688  0.05704  1.0000
  H   H544      1.0  0.85255  0.91737  0.20527  1.0000
  H   H545      1.0  0.83576  0.84663  0.06137  1.0000
  H   H546      1.0  0.88484  0.91570  0.05662  1.0000
  H   H547      1.0  0.75272  0.85047  0.16914  1.0000
  C   C448      1.0  0.90993  0.86004  0.23017  1.0000
  H   H548      1.0  0.90100  0.89222  0.06050  1.0000
  H   H549      1.0  0.81223  0.94375  0.20225  1.0000
  H   H550      1.0  0.86851  0.89656  0.08448  1.0000
  C   C449      1.0  0.76589  0.90474  0.14337  1.0000
  C   C450      1.0  0.78283  0.88177  0.06756  1.0000
  C   C451      1.0  0.86129  0.87540  0.01831  1.0000
  C   C452      1.0  0.79352  0.88337  0.01718  1.0000
  S   S117      1.0  0.91977  0.95475  0.09104  1.0000
  H   H551      1.0  0.74500  0.92449  0.19917  1.0000
  H   H552      1.0  0.78149  0.88069  0.08727  1.0000
  C   C453      1.0  0.77782  0.92391  0.20520  1.0000
  C   C454      1.0  0.93359  0.94641  0.00838  1.0000
  C   C455      1.0  0.86639  0.87729  0.99363  1.0000
  C   C456      1.0  0.87092  0.89613  0.06497  1.0000
  C   C457      1.0  0.80670  0.85095  0.06682  1.0000
  H   H553      1.0  0.74366  0.86728  0.06329  1.0000
  S   S118      1.0  0.83220  0.88864  0.13543  1.0000
  H   H554      1.0  0.89555  0.87566  0.98437  1.0000
  C   C458      1.0  0.36360  0.76683  0.25558  1.0000
  H   H555      1.0  0.90697  0.86621  0.32448  1.0000
  H   H556      1.0  0.14514  0.72487  0.28319  1.0000
  C   C459      1.0  0.89525  0.91370  0.25771  1.0000
  H   H557      1.0  0.23632  0.73480  0.27018  1.0000
  S   S119      1.0  0.51406  0.81870  0.27613  1.0000
  H   H558      1.0  0.39956  0.77564  0.26429  1.0000
  Fe  Fe59      1.0  0.59563  0.85043  0.26677  1.0000
  S   S120      1.0  0.65320  0.87600  0.29152  1.0000
  S   S121      1.0  0.09043  0.84017  0.29982  1.0000
  C   C460      1.0  0.89286  0.91584  0.23339  1.0000
  S   S122      1.0  0.92770  0.92521  0.33224  1.0000
  Fe  Fe60      1.0  0.94767  0.91509  0.39793  1.0000
  S   S123      1.0  0.93802  0.88728  0.37114  1.0000
  S   S124      1.0  0.97032  0.91349  0.43560  1.0000
  Fe  Fe61      1.0  0.99024  0.92199  0.34579  1.0000
  S   S125      1.0  0.04440  0.92694  0.31490  1.0000
  Fe  Fe62      1.0  0.87576  0.89185  0.35857  1.0000
  S   S126      1.0  0.80993  0.85842  0.34274  1.0000
  S   S127      1.0  0.00596  0.94956  0.37311  1.0000
  S   S128      1.0  0.88049  0.91647  0.38739  1.0000
  C   C461      1.0  0.94963  0.91669  0.46430  1.0000
  C   C462      1.0  0.35750  0.72085  0.31685  1.0000
  H   H559      1.0  0.29905  0.65305  0.27892  1.0000
  C   C463      1.0  0.12477  0.72019  0.26754  1.0000
  C   C464      1.0  0.95800  0.84509  0.26116  1.0000
  C   C465      1.0  0.92697  0.83323  0.31062  1.0000
  C   C466      1.0  0.07822  0.86454  0.30366  1.0000
  C   C467      1.0  0.08316  0.88122  0.28461  1.0000
  C   C468      1.0  0.07301  0.90038  0.28831  1.0000
  C   C469      1.0  0.05704  0.90273  0.31099  1.0000
  C   C470      1.0  0.05132  0.88583  0.32998  1.0000
  C   C471      1.0  0.06238  0.86697  0.32634  1.0000
  H   H560      1.0  0.09519  0.87948  0.26707  1.0000
  H   H561      1.0  0.07748  0.91337  0.27353  1.0000
  H   H562      1.0  0.03928  0.88754  0.34753  1.0000
  H   H563      1.0  0.05855  0.85415  0.34115  1.0000
  H   H564      1.0  0.82351  0.83192  0.29330  1.0000
  C   C472      1.0  0.69572  0.87027  0.30572  1.0000
  C   C473      1.0  0.69731  0.84846  0.30276  1.0000
  C   C474      1.0  0.73246  0.84498  0.31421  1.0000
  C   C475      1.0  0.76669  0.86345  0.32835  1.0000
  C   C476      1.0  0.76573  0.88548  0.33091  1.0000
  C   C477      1.0  0.73004  0.88872  0.31984  1.0000
  H   H565      1.0  0.67102  0.83412  0.29195  1.0000
  H   H566      1.0  0.73281  0.82783  0.31224  1.0000
  H   H567      1.0  0.79174  0.89978  0.34183  1.0000
  H   H568      1.0  0.72904  0.90565  0.32222  1.0000
  H   H569      1.0  0.73675  0.91940  0.26244  1.0000
  Fe  Fe63      1.0  0.93860  0.94958  0.36159  1.0000
  C   C478      1.0  0.38832  0.71652  0.25162  1.0000
  C   C479      1.0  0.84598  0.82461  0.30085  1.0000
  S   S129      1.0  0.48595  0.75706  0.25402  1.0000
  H   H570      1.0  0.38730  0.71322  0.27051  1.0000
  C   C480      1.0  0.34608  0.69966  0.23980  1.0000
  S   S130      1.0  0.41889  0.83438  0.26192  1.0000
  H   H571      1.0  0.95131  0.96583  0.28464  1.0000
  H   H572      1.0  0.94652  0.95355  0.42580  1.0000
  C   C481      1.0  0.97294  0.84984  0.23690  1.0000
  Fe  Fe64      1.0  0.49275  0.83810  0.24894  1.0000
  H   H573      1.0  0.78536  0.90796  0.27673  1.0000
  C   C482      1.0  0.90745  0.91870  0.46851  1.0000
  S   S131      1.0  0.13478  0.67884  0.26875  1.0000
  H   H574      1.0  0.20620  0.76440  0.23426  1.0000
  H   H575      1.0  0.26821  0.83873  0.25663  1.0000
  H   H576      1.0  0.31249  0.68382  0.24963  1.0000
  C   C483      1.0  0.37553  0.65255  0.25750  1.0000
  H   H577      1.0  0.83436  0.80616  0.29346  1.0000
  C   C484      1.0  0.11386  0.69813  0.25675  1.0000
  C   C485      1.0  0.81536  0.91100  0.26410  1.0000
  C   C486      1.0  0.40919  0.66313  0.27542  1.0000
  C   C487      1.0  0.75348  0.92850  0.24419  1.0000
  H   H578      1.0  0.31575  0.68117  0.33083  1.0000
  H   H579      1.0  0.26973  0.72896  0.24710  1.0000
  H   H580      1.0  0.91374  0.82990  0.32977  1.0000
  C   C488      1.0  0.47527  0.69698  0.24748  1.0000
  H   H581      1.0  0.39063  0.75895  0.30094  1.0000
  C   C489      1.0  0.43221  0.73739  0.23902  1.0000
  N   N33       1.0  0.31735  0.75348  0.27260  1.0000
  C   C490      1.0  0.31801  0.77255  0.28744  1.0000
  H   H582      1.0  0.95528  0.88315  0.30028  1.0000
  C   C491      1.0  0.27262  0.74359  0.25860  1.0000
  C   C492      1.0  0.31666  0.73320  0.28794  1.0000
  C   C493      1.0  0.35779  0.73949  0.30174  1.0000
  C   C494      1.0  0.27489  0.70715  0.29052  1.0000
  H   H583      1.0  0.32477  0.82873  0.27661  1.0000
  Fe  Fe65      1.0  0.09608  0.79123  0.23348  1.0000
  C   C495      1.0  0.31609  0.69549  0.31890  1.0000
  C   C496      1.0  0.91441  0.86799  0.30494  1.0000
  C   C497      1.0  0.08651  0.69191  0.23686  1.0000
  H   H584      1.0  0.28558  0.76316  0.30146  1.0000
  S   S132      1.0  0.15569  0.81448  0.25766  1.0000
  H   H585      1.0  0.88545  0.91784  0.45411  1.0000
  H   H586      1.0  0.11810  0.75321  0.26662  1.0000
  H   H587      1.0  0.36373  0.75346  0.24344  1.0000
  Fe  Fe66      1.0  0.13741  0.64916  0.24821  1.0000
  Fe  Fe67      1.0  0.11214  0.83381  0.26349  1.0000
  H   H588      1.0  0.24216  0.66904  0.30767  1.0000
  H   H589      1.0  0.36617  0.78300  0.24470  1.0000
  C   C498      1.0  0.85619  0.91097  0.27304  1.0000
  S   S133      1.0  0.04917  0.80797  0.24172  1.0000
  C   C499      1.0  0.91797  0.84756  0.27067  1.0000
  N   N34       1.0  0.90181  0.84330  0.29631  1.0000
  H   H590      1.0  0.31555  0.78735  0.27675  1.0000
  C   C500      1.0  0.10928  0.73619  0.25826  1.0000
  C   C501      1.0  0.38189  0.84350  0.24699  1.0000
  H   H591      1.0  0.96881  0.84710  0.30936  1.0000
  H   H592      1.0  0.83344  0.82037  0.32015  1.0000
  H   H593      1.0  0.38968  0.72621  0.32701  1.0000
  C   C502      1.0  0.27485  0.68869  0.30581  1.0000
  C   C503      1.0  0.30359  0.84339  0.24736  1.0000
  H   H594      1.0  0.85681  0.90839  0.29201  1.0000
  H   H595      1.0  0.97864  0.83956  0.27202  1.0000
  H   H596      1.0  0.51243  0.71465  0.24382  1.0000
  H   H597      1.0  0.89127  0.87498  0.29758  1.0000
  Fe  Fe68      1.0  0.52447  0.79992  0.24581  1.0000
  C   C504      1.0  0.33570  0.83762  0.25863  1.0000
  H   H598      1.0  0.24141  0.70050  0.28113  1.0000
  C   C505      1.0  0.89477  0.85544  0.25442  1.0000
  H   H599      1.0  0.91930  0.81466  0.30496  1.0000
  H   H600      1.0  0.27530  0.75923  0.24678  1.0000
  H   H601      1.0  0.05456  0.95719  0.26349  1.0000
  H   H602      1.0  0.35396  0.78334  0.29614  1.0000
  C   C506      1.0  0.08199  0.72999  0.23834  1.0000
  C   C507      1.0  0.45808  0.68518  0.27044  1.0000
  S   S134      1.0  0.60860  0.83003  0.23861  1.0000
  H   H603      1.0  0.78659  0.94834  0.24532  1.0000
  H   H604      1.0  0.39769  0.65468  0.29350  1.0000
  S   S135      1.0  0.57356  0.87180  0.24229  1.0000
  H   H605      1.0  0.48255  0.69358  0.28450  1.0000
  H   H606      1.0  0.71439  0.87772  0.25104  1.0000
  C   C508      1.0  0.04099  0.96302  0.24885  1.0000
  H   H607      1.0  0.92689  0.91366  0.26465  1.0000
  S   S136      1.0  0.20499  0.64774  0.25745  1.0000
  H   H608      1.0  0.86475  0.85814  0.26040  1.0000
  C   C509      1.0  0.81272  0.91423  0.23945  1.0000
  S   S137      1.0  0.15751  0.86545  0.23418  1.0000
  H   H609      1.0  0.02609  0.96564  0.29758  1.0000
  H   H610      1.0  0.00948  0.91573  0.48057  1.0000
  H   H611      1.0  0.28831  0.63955  0.23652  1.0000
  C   C510      1.0  0.39482  0.66469  0.23411  1.0000
  H   H612      1.0  0.72293  0.92982  0.23630  1.0000
  C   C511      1.0  0.72483  0.88645  0.23239  1.0000
  Fe  Fe69      1.0  0.92785  0.92731  0.57623  1.0000
  H   H613      1.0  0.67182  0.65059  0.66475  1.0000
  S   S138      1.0  0.90164  0.92694  0.53914  1.0000
  Fe  Fe70      1.0  0.92867  0.89240  0.61613  1.0000
  S   S139      1.0  0.95240  0.92146  0.64239  1.0000
  S   S140      1.0  0.92691  0.85591  0.62472  1.0000
  Fe  Fe71      1.0  0.89594  0.92933  0.62784  1.0000
  S   S141      1.0  0.83860  0.92850  0.65477  1.0000
  Fe  Fe72      1.0  0.00715  0.94964  0.61277  1.0000
  C   C512      1.0  0.68388  0.94438  0.60189  1.0000
  S   S142      1.0  0.86740  0.89752  0.60386  1.0000
  S   S143      1.0  0.98728  0.91994  0.58710  1.0000
  C   C513      1.0  0.66028  0.95042  0.64223  1.0000
  H   H614      1.0  0.02040  0.90402  0.63241  1.0000
  H   H615      1.0  0.57724  0.65915  0.70734  1.0000
  Fe  Fe73      1.0  0.72718  0.73443  0.70339  1.0000
  S   S144      1.0  0.72272  0.75657  0.67169  1.0000
  H   H616      1.0  0.98460  0.92104  0.52097  1.0000
  S   S145      1.0  0.70572  0.69349  0.70650  1.0000
  C   C514      1.0  0.47895  0.94121  0.72759  1.0000
  C   C515      1.0  0.96262  0.92016  0.50656  1.0000
  C   C516      1.0  0.85326  0.80820  0.57475  1.0000
  H   H617      1.0  0.03609  0.86100  0.63191  1.0000
  H   H618      1.0  0.20738  0.90272  0.69857  1.0000
  H   H619      1.0  0.75726  0.94381  0.62247  1.0000
  H   H620      1.0  0.71606  0.77877  0.60371  1.0000
  H   H621      1.0  0.19788  0.93960  0.69149  1.0000
  C   C517      1.0  0.11953  0.90156  0.65103  1.0000
  H   H622      1.0  0.84100  0.87226  0.53500  1.0000
  C   C518      1.0  0.18299  0.90231  0.68546  1.0000
  H   H623      1.0  0.89356  0.86625  0.57905  1.0000
  C   C519      1.0  0.83762  0.95561  0.66204  1.0000
  H   H624      1.0  0.14990  0.92484  0.60686  1.0000
  H   H625      1.0  0.88322  0.85497  0.51495  1.0000
  C   C520      1.0  0.80992  0.95376  0.68310  1.0000
  H   H626      1.0  0.91763  0.88263  0.54984  1.0000
  H   H627      1.0  0.16082  0.86487  0.67597  1.0000
  H   H628      1.0  0.79359  0.93674  0.69538  1.0000
  C   C521      1.0  0.87040  0.82924  0.63918  1.0000
  C   C522      1.0  0.87153  0.80867  0.64994  1.0000
  C   C523      1.0  0.82662  0.78664  0.66067  1.0000
  C   C524      1.0  0.78014  0.78483  0.66016  1.0000
  C   C525      1.0  0.77910  0.80556  0.64971  1.0000
  C   C526      1.0  0.82422  0.82784  0.63944  1.0000
  H   H629      1.0  0.90712  0.80962  0.64976  1.0000
  H   H630      1.0  0.82768  0.77067  0.66856  1.0000
  H   H631      1.0  0.74323  0.80426  0.64932  1.0000
  H   H632      1.0  0.82297  0.84359  0.63117  1.0000
  H   H633      1.0  0.76439  0.75936  0.61444  1.0000
  H   H634      1.0  0.65542  0.92328  0.60402  1.0000
  H   H635      1.0  0.81212  0.86065  0.56450  1.0000
  H   H636      1.0  0.13303  0.94307  0.62389  1.0000
  C   C527      1.0  0.58319  0.94355  0.67621  1.0000
  Fe  Fe74      1.0  0.77238  0.70804  0.72804  1.0000
  H   H637      1.0  0.72728  0.64794  0.69276  1.0000
  H   H638      1.0  0.75342  0.81655  0.57558  1.0000
  C   C528      1.0  0.43748  0.96507  0.72928  1.0000
  H   H639      1.0  0.77215  0.78605  0.70872  1.0000
  C   C529      1.0  0.92089  0.92255  0.51066  1.0000
  H   H640      1.0  0.02087  0.88646  0.65838  1.0000
  H   H641      1.0  0.92992  0.85889  0.55988  1.0000
  H   H642      1.0  0.10597  0.86344  0.64653  1.0000
  H   H643      1.0  0.83051  0.65094  0.70497  1.0000
  H   H644      1.0  0.55396  0.94106  0.68924  1.0000
  H   H645      1.0  0.86322  0.80408  0.72007  1.0000
  C   C530      1.0  0.77637  0.80875  0.57904  1.0000
  C   C531      1.0  0.82086  0.85469  0.54776  1.0000
  C   C532      1.0  0.83079  0.78647  0.59111  1.0000
  C   C533      1.0  0.06239  0.87880  0.62000  1.0000
  H   H646      1.0  0.69743  0.92017  0.63882  1.0000
  H   H647      1.0  0.42842  0.64636  0.71627  1.0000
  H   H648      1.0  0.89191  0.81589  0.56754  1.0000
  H   H649      1.0  0.78475  0.84103  0.54023  1.0000
  C   C534      1.0  0.15678  0.88106  0.67266  1.0000
  H   H650      1.0  0.89086  0.83092  0.52901  1.0000
  H   H651      1.0  0.14350  0.93924  0.66218  1.0000
  C   C535      1.0  0.78133  0.77583  0.60131  1.0000
  C   C536      1.0  0.17774  0.92309  0.68143  1.0000
  H   H652      1.0  0.82931  0.82242  0.52095  1.0000
  C   C537      1.0  0.82690  0.82015  0.56831  1.0000
  H   H653      1.0  0.85215  0.77813  0.59632  1.0000
  C   C538      1.0  0.08536  0.96754  0.66562  1.0000
  C   C539      1.0  0.75415  0.78688  0.59523  1.0000
  N   N35       1.0  0.85229  0.84361  0.55147  1.0000
  C   C540      1.0  0.90039  0.86367  0.56037  1.0000
  C   C541      1.0  0.86444  0.83769  0.52812  1.0000
  H   H654      1.0  0.86100  0.92348  0.49439  1.0000
  H   H655      1.0  0.87437  0.83552  0.71609  1.0000
  N   N36       1.0  0.08673  0.90189  0.63329  1.0000
  H   H656      1.0  0.73628  0.79768  0.72185  1.0000
  S   S146      1.0  0.95237  0.95982  0.59954  1.0000
  C   C542      1.0  0.97682  0.91728  0.48355  1.0000
  H   H657      1.0  0.03836  0.87992  0.60676  1.0000
  H   H658      1.0  0.62593  0.91658  0.71975  1.0000
  C   C543      1.0  0.12534  0.88053  0.65569  1.0000
  H   H659      1.0  0.40322  0.92709  0.71804  1.0000
  C   C544      1.0  0.72556  0.94116  0.63477  1.0000
  H   H660      1.0  0.70973  0.96843  0.67034  1.0000
  H   H661      1.0  0.09389  0.92542  0.60196  1.0000
  S   S147      1.0  0.38301  0.96577  0.72320  1.0000
  C   C545      1.0  0.80800  0.64403  0.72189  1.0000
  C   C546      1.0  0.11726  0.92469  0.61577  1.0000
  H   H662      1.0  0.06004  0.92087  0.65468  1.0000
  C   C547      1.0  0.14652  0.92274  0.66454  1.0000
  C   C548      1.0  0.04537  0.90339  0.64527  1.0000
  H   H663      1.0  0.09126  0.87660  0.61017  1.0000
  H   H664      1.0  0.79343  0.81916  0.70347  1.0000
  S   S148      1.0  0.79735  0.74956  0.72244  1.0000
  H   H665      1.0  0.53168  0.92587  0.64970  1.0000
  C   C549      1.0  0.67135  0.95884  0.66513  1.0000
  C   C550      1.0  0.57085  0.93505  0.65392  1.0000
  H   H666      1.0  0.47709  0.92379  0.72399  1.0000
  H   H667      1.0  0.08149  0.95839  0.70304  1.0000
  C   C551      1.0  0.77553  0.80247  0.71720  1.0000
  H   H668      1.0  0.66705  0.95419  0.59299  1.0000
  H   H669      1.0  0.64282  0.96195  0.69912  1.0000
  H   H670      1.0  0.70214  0.91439  0.71205  1.0000
  H   H671      1.0  0.04458  0.95795  0.66542  1.0000
  H   H672      1.0  0.74259  0.94864  0.65136  1.0000
  C   C552      1.0  0.89337  0.92168  0.49149  1.0000
  S   S149      1.0  0.82049  0.69158  0.72063  1.0000
  C   C553      1.0  0.43685  0.94304  0.72433  1.0000
  C   C554      1.0  0.63331  0.95534  0.68178  1.0000
  C   C555      1.0  0.54555  0.64085  0.71542  1.0000
  C   C556      1.0  0.60862  0.93835  0.63709  1.0000
  H   H673      1.0  0.71598  0.94763  0.58949  1.0000
  N   N37       1.0  0.70150  0.95437  0.62495  1.0000
  H   H674      1.0  0.59633  0.93132  0.62021  1.0000
  C   C557      1.0  0.10645  0.96792  0.68697  1.0000
  C   C558      1.0  0.69209  0.91722  0.72958  1.0000
  C   C559      1.0  0.85922  0.81841  0.72914  1.0000
  H   H675      1.0  0.77991  0.97159  0.70408  1.0000
  H   H676      1.0  0.50953  0.67482  0.73131  1.0000
  Fe  Fe75      1.0  0.93393  0.93850  0.89959  1.0000
  C   C560      1.0  0.92103  0.92373  0.77788  1.0000
  S   S150      1.0  0.91136  0.94067  0.93817  1.0000
  Fe  Fe76      1.0  0.95170  0.91213  0.85937  1.0000
  S   S151      1.0  0.97358  0.94496  0.83265  1.0000
  S   S152      1.0  0.96193  0.88171  0.84461  1.0000
  H   H677      1.0  0.58972  0.91331  0.82562  1.0000
  H   H678      1.0  0.06707  0.91103  0.76973  1.0000
  Fe  Fe77      1.0  0.90620  0.94431  0.84904  1.0000
  S   S153      1.0  0.85554  0.94382  0.82126  1.0000
  S   S154      1.0  0.00186  0.93755  0.88606  1.0000
  S   S155      1.0  0.88162  0.90990  0.87496  1.0000
  H   H679      1.0  0.13071  0.93801  0.76277  1.0000
  C   C561      1.0  0.59980  0.91079  0.80739  1.0000
  H   H680      1.0  0.67454  0.93462  0.83476  1.0000
  H   H681      1.0  0.59294  0.89119  0.80755  1.0000
  H   H682      1.0  0.81702  0.74794  0.79265  1.0000
  C   C562      1.0  0.66663  0.92540  0.77541  1.0000
  S   S156      1.0  0.72967  0.70265  0.76262  1.0000
  Fe  Fe78      1.0  0.74872  0.74499  0.75725  1.0000
  S   S157      1.0  0.77760  0.78807  0.80007  1.0000
  H   H683      1.0  0.66464  0.73824  0.78966  1.0000
  H   H684      1.0  0.72164  0.72458  0.80781  1.0000
  C   C563      1.0  0.08750  0.94343  0.80275  1.0000
  C   C564      1.0  0.82912  0.96982  0.79116  1.0000
  H   H685      1.0  0.63376  0.95694  0.78415  1.0000
  C   C565      1.0  0.98475  0.91378  0.78442  1.0000
  H   H686      1.0  0.83013  0.95801  0.77812  1.0000
  C   C566      1.0  0.76760  0.65099  0.75533  1.0000
  C   C567      1.0  0.78321  0.78431  0.75442  1.0000
  C   C568      1.0  0.91124  0.85629  0.83142  1.0000
  C   C569      1.0  0.92026  0.84061  0.81785  1.0000
  C   C570      1.0  0.88016  0.81987  0.80760  1.0000
  C   C571      1.0  0.83062  0.81449  0.81121  1.0000
  C   C572      1.0  0.82192  0.83040  0.82453  1.0000
  C   C573      1.0  0.86202  0.85131  0.83443  1.0000
  H   H687      1.0  0.95826  0.84430  0.81554  1.0000
  H   H688      1.0  0.88739  0.80763  0.79767  1.0000
  H   H689      1.0  0.78374  0.82639  0.82744  1.0000
  H   H690      1.0  0.85462  0.86325  0.84482  1.0000
  C   C574      1.0  0.63668  0.92251  0.75644  1.0000
  H   H691      1.0  0.73500  0.92573  0.78363  1.0000
  C   C575      1.0  0.65933  0.95613  0.79662  1.0000
  H   H692      1.0  0.06381  0.92293  0.81009  1.0000
  C   C576      1.0  0.01057  0.95676  0.76918  1.0000
  C   C577      1.0  0.08987  0.93173  0.76317  1.0000
  C   C578      1.0  0.81600  0.77552  0.76541  1.0000
  C   C579      1.0  0.47718  0.66088  0.74349  1.0000
  H   H693      1.0  0.85633  0.78521  0.76048  1.0000
  H   H694      1.0  0.07807  0.95437  0.81451  1.0000
  C   C580      1.0  0.93657  0.94140  0.96586  1.0000
  Fe  Fe79      1.0  0.66359  0.68944  0.74097  1.0000
  C   C581      1.0  0.43006  0.64423  0.73508  1.0000
  H   H695      1.0  0.12793  0.94987  0.80447  1.0000
  H   H696      1.0  0.99131  0.93271  0.95344  1.0000
  C   C582      1.0  0.52333  0.96168  0.73522  1.0000
  C   C583      1.0  0.72235  0.91993  0.74777  1.0000
  H   H697      1.0  0.75607  0.91929  0.74427  1.0000
  C   C584      1.0  0.02489  0.93944  0.77687  1.0000
  H   H698      1.0  0.70275  0.77628  0.75771  1.0000
  H   H699      1.0  0.02457  0.97102  0.92517  1.0000
  H   H700      1.0  0.68395  0.91266  0.81965  1.0000
  S   S158      1.0  0.59116  0.65363  0.75723  1.0000
  H   H701      1.0  0.65092  0.96130  0.81388  1.0000
  C   C585      1.0  0.93368  0.90613  0.78490  1.0000
  C   C586      1.0  0.97547  0.93687  0.96852  1.0000
  H   H702      1.0  0.99251  0.89962  0.79098  1.0000
  H   H703      1.0  0.44884  0.63844  0.80141  1.0000
  H   H704      1.0  0.81882  0.84582  0.73816  1.0000
  H   H705      1.0  0.76472  0.82145  0.75734  1.0000
  H   H706      1.0  0.90387  0.88672  0.79169  1.0000
  C   C587      1.0  0.79308  0.75335  0.78453  1.0000
  N   N38       1.0  0.07867  0.94740  0.77795  1.0000
  C   C588      1.0  0.80397  0.82797  0.75014  1.0000
  C   C589      1.0  0.72689  0.76995  0.76362  1.0000
  H   H707      1.0  0.82729  0.83318  0.76548  1.0000
  C   C590      1.0  0.70407  0.74758  0.78273  1.0000
  H   H708      1.0  0.75889  0.66320  0.76445  1.0000
  H   H709      1.0  0.69906  0.97151  0.78994  1.0000
  N   N39       1.0  0.65346  0.93071  0.79883  1.0000
  C   C591      1.0  0.73734  0.73964  0.79338  1.0000
  C   C592      1.0  0.70985  0.92380  0.77042  1.0000
  H   H710      1.0  0.57214  0.91143  0.79629  1.0000
  H   H711      1.0  0.08210  0.93364  0.74453  1.0000
  H   H712      1.0  0.88154  0.91809  0.77929  1.0000
  H   H713      1.0  0.60390  0.92404  0.75869  1.0000
  C   C593      1.0  0.68598  0.93115  0.81725  1.0000
  H   H714      1.0  0.72653  0.94697  0.81291  1.0000
  H   H715      1.0  0.94917  0.96260  0.76476  1.0000
  C   C594      1.0  0.84320  0.96796  0.81387  1.0000
  Fe  Fe80      1.0  0.01782  0.97011  0.86009  1.0000
  C   C595      1.0  0.95932  0.94890  0.76984  1.0000
  H   H716      1.0  0.88456  0.82488  0.74374  1.0000
  H   H717      1.0  0.52100  0.67114  0.77351  1.0000
  N   N40       1.0  0.80545  0.80784  0.73794  1.0000
  C   C596      1.0  0.48378  0.65882  0.76732  1.0000
  H   H718      1.0  0.84045  0.88441  0.96157  1.0000
  S   S159      1.0  0.57476  0.95758  0.73876  1.0000
  C   C597      1.0  0.64922  0.91841  0.73394  1.0000
  S   S160      1.0  0.67693  0.72851  0.73558  1.0000
  C   C598      1.0  0.79657  0.66005  0.73342  1.0000
  H   H719      1.0  0.20180  0.97020  0.85111  1.0000
  C   C599      1.0  0.44314  0.64026  0.78296  1.0000
  C   C600      1.0  0.83533  0.88220  0.98074  1.0000
  H   H720      1.0  0.77574  0.88956  0.98224  1.0000
