data_image0
_chemical_formula_structural       CH2C2SH4FeH3CHSCHC2FeSFeS2FeSFeS3FeHSCHC3SC3FeS2FeS2FeSFeS3FeSHFeS2FeSFeS3FeS2FeS2Fe2S3HFeHCSHFeSHSHFeS2FeS2FeSFeS3CHC4HC2HC3H3NHC7H4C6H4C6H4C3H2CNSHC6HCHNC6H6C2FeH2CHCH2C3HCH5C6H4C6H4C4HCH8C4SH4CHCHC2HC7H3C2HCHCH2C3H2NH2C2H4SC4H2CH2CNHC2FeCH4NC2H8CH2CH7NC9H14CH2C2H5SH2CNCH2CHCH3CHCHCHNCH2C2SCH3CHCHC3H2C4H2C2H3CH2CFeC2H2FeH3CHC3H3SH2SNC9H16C2H3CH3C2HCH2C6SCHSHS2CNC9H2CH11C2H2CHC2HCH2CH2NH2C2HFeHNHC2H3C3HCHSH2CH3CHCH3SHC2HCH2C3SC3FeC2H3NC5HSHCH11SCH5CHFeCSFeHC5HC2H4C2FeH2CHNH6CHCFeC2H2CH2SHCHCH2SCFeSFeS2FeSFeS3FeHSCHFeC2SCFeHSFeS2FeSH2S2H2FeS2CFeS2FeS2FeSFeS3C2SCSCHSH2FeS2FeS2FeSFeS3FeS2FeS2FeSFeS3H3NH2CHC5NH3C3HC2H4C6H4SC5SH3C6H2CH2C6H4C2H2C2HCH2C6H4C6H4C6H4C6H4CSH3FeHCNSH3CHC2HCHC6H4C6H4C4HCH3CH3CHCH2CSHCHCHC2SCH2C2H3N2CH2CHCH3CHCHC3H2CHC6HCH3NH3CHC2H2SHC2HCHC2H2SH4CH3FeH2NH5C2HC4HFeH2CH2CH2CH2C2H5C2HSNSC3H2CHCSNH4SHSCHFeCHC2NC2H2CH2C2H2SNCFeCH2CHCHCNC9H14CH2C4H2CHC2H2CH3C2HSC2HC3H6CH2NC6H11CHCH5C2HCH2CH2CH2CHCNSHCH2CHNC9H11CH2NC9H14SCHSC6FeC3HFeH2CHCHCH2C2HSNC2HC5FeHCHC3NCH2CH2CSHCHC2H2CHCH2CHC2H5CHCHCH2CH2NSH2C2HNH2C5H2SH3SH10C3HFeHCHC4H2SCFeCHFeCHSCSCH2CH3Fe2H2C4H4C2H5CH3CHCHCHFeH3SC3HSCSH2CHNHC3H3C2HCSFeS2CH2SHFeSFeSHSHFeS2FeSFeCS2H3CFeSHFeS2FeSFeS3FeS2FeS2FeSFeS2HSHFeS2FeSFeS3FeS2FeS2FeSFeHS2FeS2FeS2Fe2CS2FeS2FeS2FeHFeS3CS2H2C6H4C6H3C2H3C4H4CH2C6H4C6H4C6H4C6H4CH2C3HSCHC6H12C2H2C4HC4HC6H7CH2SNHC7H4C5H7CNC4HCHCH12CNC2HC2H4CSH2S2C2H4CH3SCNHCHCHCHCHC2SC2HSH2SC2HCNC8H10CHCH2NH8C2H3CHNHFeHC2HCHC2HCHSCHCFeHSH3C7H6CHCHCNHFeH2NCH3CH3CH3C2HC2HSC2HC4SHNFeNC9H14NC9H14NC9H14NC9H14C5H5CHC2H6CHCH2CHNCFeC3H3CH2CHS2C2H2FeCH2FeH2CHSCH2CH5C2H2CHCNCSC2HCHSHFeHC3HC5NHCSH2NH2CHSFeH6FeC4HCH2C2HCHCHC2H2CNH2C2H3CHS2H3C2HC2H2NC2H2FeS2FeHSFeSH2SCFeS2FeSFeSFeS3CHFeS2FeS2FeSFeS6H2SFeS2FeSFeS4HCHFeCSHFeSHSFeS2FeHSFeSHS2FeS2FeS2FeSFeS3FeS2FeS2FeSFeS3C6H4C6H4C6H4C6H3SHC2H2C6H4C2HC4H2C2HC3H4C4H4C5HC6H4C6H4C6H4CHC6H4C6H4C6H3S2HCFeC4H5NC9H14C2SNC2H2CH4SHFeHSH4CHNC9H14NCHCHCHCH3NCH3C2NC9H14CH4C2HFeCNC6HCH2CH7CHCHSNHCHC2H5CH2SC2H3CH2CH2C2NCH2C2HCH4CHNC3HCH3SHC5H2CHC2H2CH2CSC7HFeCH2C2SCH3FeH2C3NHCSC6HCHFeNHC3H3CHC4H6SH2SHC2HCSHC2HSC2H2SHCHFe2H2C2HNH2SCHC5H2FeC2H3C2HNCH3CHFeCS2CH3CH2CHC2H2C3H3CSHCH2C3H3CH2CNC2H2CHCHSHCHC2HCNC2HCHCHC3H4C2HSC2H3CHC2H2SH2CH2CHNCH2CHSFeH2CH4C2H3FeHCHCHFeH2SC3HFeHNSCH2CSFe2C4FeCHCSHCSCHC2H3SFeCHCH2CH2SHFeHCH2C3HFeH6SCH2SH3SC2HCH3CH4NSHSH5CFeHCH5CH2CH3C2H2CH3CH4CHCSH2SHCHCNC2H2FeSCFeS2FeSFeS3HFeS2FeS2FeSFeS2FeS2CFeHCFeHSHCFeSHSFeS2FeS2FeSFeS5CHSH2FeS2FeC2HFeS3C5H2C6H4C2HC5H3CHCH3C6H6CHC6H3C6H4C6H4C6H4C6H6C8H2SHCHCHC2HCH7CH2CSC2HCHC2HCH4NC2HCH4CNH3C5HC3H3C3HCH2CHCH3CHSH2CNHC2H2CH3SCHCHFeCSNC9H15CH2FeHSC2H4CSCFeH4C2NFeHCFeH2CH2CH3CHC3HSH3SNCHSC2HC2SCH2FeH2NC4HC2HCH5CHNCH2SHSCH4CHS2H2CHCH2CH2FeCHCH3CH2C2H2C2HCH2CSH7SHC2HNH3SHC2SCH2C2HC2HCSH5SFeHSNC9H13C3H2CHCSNFeC2H5CSHCHC3H2C2H5FeCNH2C2HC3HFeHCH2C4HSH3FeS2FeS2FeSFeS3FeHSFeHSFeCSCS2FeS2FeS2FeSFeCS2FeS3CSFeS2FeS2FeSFeS3CHC2HCFeS2FeS2FeSFeS3FeS2HCHC6H4C2H3C10H4C6H4C3H2CSH2C6H3C7H5CHC2HCH3C6H4C6H5CH2C7H4C6H7C3H5C3HCH2CH2C4H3CH4NC9H2CH12NSHCNC4H5C2H3NHC3SNC2HC5SH6C2H5CHCH3CHCH4C4S2C2H4CHCH4CHFeH3CH7NCH3CSH2CHCHC4NC9H13NHNHC7H4NSH4CNC9H14C3HC3HC6HCHSNH3CH4CH2CNC4SHSFeCH9CHC2HCH3C2HCH2SHCH3NC4Fe2CNH5CHCH3CHFeH2C2HCH3SH5C2FeH3CHC2H2C2NH4C2H8CH2C2SHCH2FeH2CSH3C2HFeH4CHNSHC2HCH2FeS2FeS2FeSFeCS2FeSFeS2HFeHS2FeS2FeS2FeSFeS3CH3FeCSCHCHSHFeS2FeS2FeSFeS2FeS2FeSCFeHFeS3HCHFeCSHC2HSCH2C2SH2CFeS2FeS2FeSFeS3C6H2NSC6H5CH6FeH2CHCH2CNC6H4C6H5C3HCHC2HC3FeH3CH3C7H4CFeSHC9H7CHC2H3C4H4CH2C2HCH2C7H4C6H5CHC6H7SHCHCHC2NC5H10SH4C5H3C2HC3H2FeSH3NHCHCHCH2C2H2S2H7C3H4NC7HCH12CFeCNCNCN2HCHCH2C2HC2H3CHCHC2NCH2CHC3SCHCHSHSH2CH2C2HCH3SHCH4CHCHCHCH2FeCHC2HC2H2CH3CHNC9H15CSNC7H6SCH6C3FeC2HNHCNH2CHC2HCH5CHNC2H3CH6CH2C3H3C2SC3SHCH3CH3CH3C3HCNCHCH3CH4CHC7H2SH2CSH3CHCH2CHCH2C3SHSCHCFeCH3CHC2HC3HCHCSHC2HC2HC2HC2HCHCHCHC2HFeC2H4FeSHFeS2FeHSFeSCSHCSHFeS2HFeSCSHFeS2FeHFeS3FeHSFeHSH2CHS2H2C4H3CSHCHCHC3HNSFeS2FeS2FeHFeS3C3HSH3CFeS2FeS2FeSFeS3C2SNCHCH2C4HCH2C3HC2H4C7H2SHC6H4CH3CHNHC3H3CHCHC2H5SCHC2HFeSC6HCH3CH2C2HSHC4HCH2C7H4CH4SH2Fe2C6H5CHCH2C10H4C7H4C6H5C6H4CH2CH4CHCFeNH2CH6CH2CHC3H6NC9H12CFeC2HCH5CH2CH2C2H3NH4C3S2HCHSHCHCSH4CFeCH3NC9H14C2HCSH5N2HCH4SC2NHCH5CH3C4FeHSFeSHSCHCFeS2H2C2HCSCNHC2HFeCH2C3FeSCSHFeS2FeS2FeSHS2CNHC3HSH2SHC2SCS2CHC5H3CH4SCH4C4HC2H2CH2C3HC6H4NHC6H5C6H5CHCH4CH4NHC2H2C4H6C8H5C4SHFeH2FeHC7H8CH2FeNC4FeC4H8CHCH3CHCHCNCHSHC2H6FeSCH2CHCH4SHS2H2CHCHC2HC2HCSCH5NH3C2HC3HCH3SCHNH3CHC3H2NHC3H2CH2SH3C3H3CH2CHFeS2CSFeSFeS2HFeSH2SCFeCFeSHSFeS2FeCHFeHSH3FeCSFeHSC2HCS2FeS2FeS2FeSFeS3HNHCH2C5H2CFeHCH2CS2HC2HSH3CH3CHCH4FeH2CHNHCH4CNH5C2SCHNC6H6SC2H2C7H4C7H3CH3CHCH2C4H2C5H3C2HC3FeSH2C6H7C6H4C2HCSC2H2NH2C2HC4H2CH2C2H6SH7NH2C2H5C2HC2FeHC4H2NSCHC2H7C2HCHNC9HNH5C2H5NCH2CHC2SC2H3SHCHCH3SHCHSCHCH2SH2FeHC2H3CH6C2H5CH3CH2CHC3SH2CFeS2FeS2FeSFeHS3FeS2FeH2FeHFeHS2CHC2SH2CHSH2CFeSFeS2FeS2FeS2FeSFeS4HCHFe2SC3H8CSH3C6H4C2H2C2H3FeH5C6H4CH3CSNC2HC6H4SHC2HCNH2NCHCNC2H2C9SH4CHCH2C6H4C6HC5H3SCH3C2FeCHCHCH7CHNHCHC2HC2H2C2HCH2C2HCHC4HCH2SCHCH2SH2CH2C4H2C3HNCSNC9H13CH3CH5C3H2CH3CHCH2C2H2CHSHSH2C4HCHC3HCH5CHSCH3SCHC2H5C2HCH6CH5CH2CH2NHSC3H4CHCHCH2C2HCH3CH2CH3NH7CN3CSFeSHS2CFeSHFeSFeS3FeH2FeS2H4S2H2CFeS2H5CSFeSFeSHSFeS2FeS2Fe2S3CHNS2HSHCHFeHSCSH2CHCHCFeH2C7H4C6H4C6H3CHFeC4H5NC6H4CH3CH2C2H2SH2CHC2H2C7H5CH4CH3CH2CHCNCHC3H5CH4C2HCHC2H2SCFeH2SHC4SCFeC3HC2H3C2HC3HC2FeHC2HFeC2HCSH2C3H3NC2HSH5C3H4CHNFeH2CHSC2H2FeH2NHCH2CHCH2CHNCHC2H2CH3CS2CNCH6CFeS2FeS2Fe2S3HC3HNHCSCHCH2NH2FeS2H2FeSCSCH3C2SHCSCH2C2FeHSHFeSCSFeS2FeS2FeSFeCS2FeS2FeS2FeSFeS3FeSHFeS2FeSFeS3CFeS2FeS3CFeS2FeS2FeSFeS3H2C2HC6H4C4H2C6H4C3H2C6H4C3H2C6H2C8H6C3NH3CHCSNFeC3SFeC6H4SCH4C6H4CSH7C2SCNH2C6H5C2H2C4H2CSCHC6H4CHC6H5CH3CH2FeHC6H4NC9H12SCHC3H3CHNCNCHC2H3C4H4CHFeCHCH2CH7CHNHC5HCSHNCHNHCH3NC4FeC2NH11C2NC8H13SHNC6H2FeH13C2HCHC3HCFeHSH2C2H2SHNH3CH5C3HSHCHCH4CHCH3SH2CHCHCH2N2HC2H2CHCFe2HC2HC4H2CSHC3HC2NC9H14SHCH2CSHSC2H3C2HSH2C2HFeCH4CHCHC2HFeHCH2CHCHC2H4CHFeHSHCHC2H2SHSHC3H2C2H2CH5C2HCFeSC4H7NC6H10CH3CSC2H2CHCH4C3HC2HS2CH3C3HCNCHCHS2FeH7CHCFeHSHFeCSCH3CSCHC3H5SC2H2CH4CHCSH5C2HCH4CHFeH4C2HCHSHCH3CHC2H3CHC2HCSH4CFeS3H4CHCH2C2FeS2FeSHFeHFeSHSHS2CSHFeSFeSCHFeS3HFeHS2Fe2SFeSFeS2FeS2FeS2FeSFeS3FeSFeS2FeCS2FeS2FeS2FeCFeS3Fe2S2FeSHSCH2CSCHSHCHC7H4C6H4C6H4C6H3C3H2C6H4C4H2C6H4SHCHC3H2SC6H5FeNCH2NH2C7H4CSC2H3CSCH3CH5CHC2HCH3C4FeH3CH3C2H2NHC6H4C4H3C3HCHNH3CHCH2C2HCHC2H2C2H2CHCHCHCH3CHCH3CHCH4SCH4CH2CSC2HNC9H14C2NC2H2CSHCHFeCHCHSC2SHCHCHFeHCFeHCH2CHCHCHNCSHC3H3C2H3CH3C2NC3H9CH2CHCNC2SCH3CH3NH4NHC2HCH3C2H2CH3SCNH2C3HSHCH2CH2C2HCS2H2CNC9H14SH2CHFe2C3HNHSH2FeH3SHNCHSCHCH3C4SH2FeHCSH2CH2FeHSHCSC2H6CFeCNC8H9C2NCH2C6SC2HC2HCHCH5Fe2HC2H2C5SC6H2SC3H3CH2C2HC2H2CH2CH3C3HCH5CFeC3H2SH2SH2CHC3H4CH3CHC3HCH2CSHCH3SFeS2FeSFeSHC2HCSHS2FeS2FeS2FeSFeS3FeS2C2FeSFeHC2SHS2FeSFeS2FeS2FeSFeS3NCHSCFeS2FeS2FeSFeS3FeS2FeS2FeSFeS3FeS2CFeSCSHC7H4C6H5C6H3CHC6H2SCHSC6H4C6H5CH3CH2CHC6H4C2HC3HCH2C6H4C6H4C6H4C7H3C7H4CHC8H6C4H4C4HC5H4CH2C2H4C4H2CHNCH4CH3NCH4SHC2HCHCSCH3CH3CSCHCH2FeHCNH6CSH2NC3HCHC2HCH8C2H3NC9H12NCH2CHC2HCHCHCH3CH4NC2HNC9H14NC6NHCH15C2H4CHCHC2H2CH3NC5HCH2CH3CHCH2FeH2CH2CSHCHCFeCH4NC9H15C4HCSHC2H8C3H2NC5H13CHCH2NC6HC2H13SC2NCHCH2CHCH5CH2C2HCH6C2H3CFeHCH3CH3CH3C2HC3NH2CHSC2SCH5NH5C2HSC2HCH2CHCH4CHCH2C2H2SH2CHCH4CHCSNH3C3FeC5HSH3C3HSHFeH2FeHSHSHSFeSHSFeS2HC2FeS2H2FeS3FeS2FeS2FeSFeCS2FeSFeS2FeSFeCS2FeS2FeS2FeSFeS3CHSCSH4C6H4C6H4C6H4SHC2FeHFeH2C6H6NH6C6H4C6H4C6H4C4NH3C6H4C2HC4H6C2H3CHFeHCHCH3CHNC9H14NHS2C6H3CHCSCH7CH2C2HCHSH3CH2SHSH5CHCH2SH3C2HC3HFeH4CHFeH4C2NHFeCHC3HSC2HCH4CFeH2C2HCHCH5CHNSHCH2SCSH4NCH2CHCHSCSCH2NC7HCH12C2NC2FeH2C2HC4FeC2H3CSCFeC2H2C2SHNC9H14NC9H8FeC3FeCHSHCH3CHC3H2C2SHC3H4CHC2HC3NHCHCSNHC3HCH2CH3CH2C3H3SC4H10C3HCNCHCHSH2CSH2CNHC5FeH2CH3CSC2SC3HCH3CHSCH2SCH2CH2FeCFeS2HFeS2HFeS2FeSCHS2CH3CFeS3CFeS2FeS2FeSFeS3FeS2FeS2FeSFeCS3CFeS2Fe2SFeS4FeC3HNSHFeS2HFeS2HCHC3HNH2C6H4C6HC2H3SC3H2CHCSHC3FeH2C2H3C6H4FeC6H4CH3S2H2CHC6H4CH2C3H2CH2C6H3C6HNHC2H2CNH2C3NH2CSCHFeH2SHCSHCFeCH3CHCHCFeH4C3H4C3HSHCNHFeCS2CNC2H4SHCHCHCNCH2NC9H15C3HFeCH2SCSHCH2SHCH2CH2NC6HC2NCH9CSHSHSH7C2HC2HC2HC3H2CSNH5CHCS2C2FeC3HC4NH3C2HC2H2CH3SHC2HCH2SH2SCH4CHC2H2CH2FeHCH2SC2SFeCH3C2SNC9H15NC9H14NC9HCH5CH6C2SH3CHC2FeH3C2H4C4HCHSH3C3H5CH5CHCHSCH2CHFeNC2HNC4HCH2SCH3C2FeHFeCHCH3CHC2H2CFeCNSHCSH2CHCHCH4CH5CH3CH2C2SHC2H5SH2C2NCH2CH2C2H2CH4C3HCHNCH4C2HFeHCH2SCSFeS2FeSFeSHS2CSH2CFeSH2FeHSFeS2FeSFeHS2FeS2FeSHFe2S2HCHCHCSH3C3NCFeSH2SHFeS2FeS2FeHFeCFeS3HCH3CHSC5FeS3NCHNH2CH5C2HC6H4C6H4CHC2H4C2HC2H2CSCH3SH3C4H5NC2H2CH3CHC6H4C7H4C7H6SC2HCSH2SC2HCH2CH3C4SH3FeC2H2CHCH3CH3CH2FeH2N2C9H14NHCSCFeCHC2HCH3SCSHSH2CFeH6CH4CHCHCHCSHCH3CHC2FeC2H2CHCH2C2H2C2HCH3SH2CFeCHC2H3CHC2HC4HCHCH2NC3HCNC9H15CFeSC2FeC2HC2HC2HCHCH2CHCH3CS2H3CH5NC3FeCH3CH2S2H2CNC9HC2H2CH3SH2C3NC4HSCHCH4SFeCH2S2C2H2CHCHCH2CNH7C2H2CH3C2HCHSHCHCHNH2CHFeHC2NCHC4HSC3HCH3CHSHSCHSC2HC2HCH4FeH5CH3SCHC3SHCH2CFeSCHC2HCH2NSCH2CH2NH2FeS2FeS2FeSFeS3FeS2FeSHFeSFeS4CHFeS2FeS2FeSFeS3FeS2FeS2FeSFeS3C2FeSFeS2FeSH2SHFeSFeSC2H2CFeS2H2FeSHSCHC2H2CHCHCH2SH2C6H4C6H4C6H4C6H4C6H4C2HS2H2CNHC4H3C6H4C6H6NHC4HC2HCH2C6H4C2HC2H2C6H4C6H3NC4NH9C4HCH3C2H4CH3NHC5HC2HCH3FeH4CH2FeNH2C7H4CH5C4HC2HSCHCHC2NC9H13NC9H16C2H3NC9H4CH5SCH2CH2CHFeHCH3CHCHCSHCHSHCNC9H12SHCSH4CHC2HC2H2NCSCSCHSH2C3H2SHC2HS2H6CH2CHCH4C2H2C2H4C2HCH2CH2CH3CHC2H2C3HCNCHFeCHC2H3CH4C3H3SCHCH3CH3C2H2CHFeHCHCFeH2SHSHCHFeHCH3CHC2SH3NHC2NC4H2CH4SCH2FeCHFeHCHCH4CHC3H5FeSCH3FeS2FeS2FeSFeS3FeS2FeS2FeSFeS3HCHC2FeHS2H3SC4HFeS2FeS2FeSFeS3FeS2FeS2FeSFeS3FeS2FeSFeSFeS2FeS2FeHFeHS2HCHCH2C6H4C6H4C6H4C6H5CHNHC7H4C2NHC2SH2C2HC6H4C6H4C6H4CH2C3H4C6H4C6H2C6H5CH3C3HSH2C2H2C6H8C2NCH3C2HC2H2C2HCH4CHSH2C2H4CHCH2NH2CSH2C2HC2HNCHC3H5C2SH3SNCNC6H10NC6H15SHNC7H12NCH2C5HC2HCHCHCH3CH2NC9H17C2H3CHCHCH4CHCHNH7CHC2HCH2SCH3SHCH3CNC9H14NC6SCH4SHFeCHCHC3H3C2SNHCH7NH2C2HCHC2NHC7HC3H3C4Fe2CH4C2HCHSCFeC3HC2HC8H3CHCH13C3H5CHFeCH3SH3SNCHCH2CH3CH2C
_chemical_formula_sum              "C4680 H5616 S1248 Fe624 N312"
_cell_length_a       90.8249
_cell_length_b       91.0772
_cell_length_c       90.9696
_cell_angle_alpha    73.8828
_cell_angle_beta     73.8916
_cell_angle_gamma    73.8643

_space_group_name_H-M_alt    "P 1"
_space_group_IT_number       1

loop_
  _space_group_symop_operation_xyz
  'x, y, z'

loop_
  _atom_site_type_symbol
  _atom_site_label
  _atom_site_symmetry_multiplicity
  _atom_site_fract_x
  _atom_site_fract_y
  _atom_site_fract_z
  _atom_site_occupancy
  C   C1        1.0  0.03063  0.05369  0.24463  1.0000
  H   H1        1.0  0.15169  0.26965  0.07478  1.0000
  H   H2        1.0  0.01408  0.29967  0.22658  1.0000
  C   C2        1.0  0.09970  0.09387  0.35384  1.0000
  C   C3        1.0  0.04006  0.29363  0.17690  1.0000
  S   S1        1.0  0.01517  0.44395  0.42003  1.0000
  H   H3        1.0  0.16112  0.35285  0.07084  1.0000
  H   H4        1.0  0.03709  0.26205  0.99794  1.0000
  H   H5        1.0  0.00335  0.37033  0.28008  1.0000
  H   H6        1.0  0.12713  0.05436  0.37392  1.0000
  Fe  Fe1       1.0  0.99165  0.36245  0.38799  1.0000
  H   H7        1.0  0.00343  0.23248  0.10401  1.0000
  H   H8        1.0  0.07927  0.30782  0.15953  1.0000
  H   H9        1.0  0.05605  0.26221  0.12039  1.0000
  C   C4        1.0  0.05236  0.27661  0.99759  1.0000
  H   H10       1.0  0.15577  0.46662  0.03918  1.0000
  S   S2        1.0  0.16707  0.41223  0.04995  1.0000
  C   C5        1.0  0.02806  0.33003  0.36901  1.0000
  H   H11       1.0  0.99098  0.32792  0.32446  1.0000
  C   C6        1.0  0.16530  0.16711  0.00574  1.0000
  C   C7        1.0  0.00702  0.29501  0.20787  1.0000
  Fe  Fe2       1.0  0.11218  0.03240  0.26422  1.0000
  S   S3        1.0  0.09946  0.04520  0.24489  1.0000
  Fe  Fe3       1.0  0.10510  0.06141  0.27794  1.0000
  S   S4        1.0  0.09199  0.07646  0.25965  1.0000
  S   S5        1.0  0.10661  0.07439  0.29506  1.0000
  Fe  Fe4       1.0  0.08130  0.05591  0.26369  1.0000
  S   S6        1.0  0.05524  0.05838  0.26772  1.0000
  Fe  Fe5       1.0  0.11137  0.06451  0.24275  1.0000
  S   S7        1.0  0.12471  0.07845  0.22133  1.0000
  S   S8        1.0  0.09307  0.04150  0.28339  1.0000
  S   S9        1.0  0.12543  0.05102  0.26072  1.0000
  Fe  Fe6       1.0  0.16867  0.10078  0.33813  1.0000
  H   H12       1.0  0.10508  0.06828  0.33043  1.0000
  S   S10       1.0  0.14706  0.11191  0.35418  1.0000
  C   C8        1.0  0.03612  0.24611  0.10667  1.0000
  H   H13       1.0  0.02868  0.29975  0.17352  1.0000
  C   C9        1.0  0.07194  0.27854  0.09738  1.0000
  C   C10       1.0  0.10072  0.17716  0.10291  1.0000
  C   C11       1.0  0.04086  0.25669  0.09273  1.0000
  S   S11       1.0  0.01554  0.12667  0.24753  1.0000
  C   C12       1.0  0.03287  0.27237  0.09045  1.0000
  C   C13       1.0  0.15183  0.05501  0.29736  1.0000
  C   C14       1.0  0.15771  0.14630  0.32793  1.0000
  Fe  Fe7       1.0  0.06735  0.16561  0.33596  1.0000
  S   S12       1.0  0.06636  0.18556  0.31506  1.0000
  S   S13       1.0  0.08440  0.14393  0.32930  1.0000
  Fe  Fe8       1.0  0.04129  0.18505  0.35691  1.0000
  S   S14       1.0  0.03832  0.20630  0.33736  1.0000
  S   S15       1.0  0.02639  0.18520  0.38135  1.0000
  Fe  Fe9       1.0  0.04024  0.18902  0.32303  1.0000
  S   S16       1.0  0.02698  0.19309  0.30414  1.0000
  Fe  Fe10      1.0  0.06462  0.20048  0.33146  1.0000
  S   S17       1.0  0.08109  0.21635  0.32650  1.0000
  S   S18       1.0  0.04115  0.16807  0.34297  1.0000
  S   S19       1.0  0.06765  0.18030  0.35191  1.0000
  Fe  Fe11      1.0  0.02696  0.28843  0.25397  1.0000
  S   S20       1.0  0.05154  0.29013  0.24113  1.0000
  H   H14       1.0  0.07290  0.21792  0.99082  1.0000
  Fe  Fe12      1.0  0.02402  0.31191  0.27361  1.0000
  S   S21       1.0  0.04822  0.31608  0.26194  1.0000
  S   S22       1.0  0.00752  0.31950  0.29535  1.0000
  Fe  Fe13      1.0  0.04257  0.31597  0.23937  1.0000
  S   S23       1.0  0.04859  0.33271  0.21607  1.0000
  Fe  Fe14      1.0  0.05517  0.29000  0.26453  1.0000
  S   S24       1.0  0.07727  0.27750  0.27291  1.0000
  S   S25       1.0  0.01740  0.31433  0.25078  1.0000
  S   S26       1.0  0.03155  0.28571  0.27761  1.0000
  Fe  Fe15      1.0  0.09394  0.28080  0.04584  1.0000
  S   S27       1.0  0.08218  0.26257  0.06337  1.0000
  S   S28       1.0  0.11344  0.28661  0.05253  1.0000
  Fe  Fe16      1.0  0.07552  0.28289  0.02139  1.0000
  S   S29       1.0  0.06218  0.26498  0.03727  1.0000
  S   S30       1.0  0.07385  0.29362  0.99614  1.0000
  Fe  Fe17      1.0  0.06022  0.27760  0.05597  1.0000
  Fe  Fe18      1.0  0.08546  0.25187  0.04292  1.0000
  S   S31       1.0  0.09613  0.22682  0.04122  1.0000
  S   S32       1.0  0.07179  0.29669  0.03966  1.0000
  S   S33       1.0  0.09901  0.26890  0.02590  1.0000
  H   H15       1.0  0.11360  0.07229  0.37658  1.0000
  Fe  Fe19      1.0  0.99281  0.26872  0.17877  1.0000
  H   H16       1.0  0.01385  0.41030  0.38663  1.0000
  C   C15       1.0  0.10030  0.07805  0.33613  1.0000
  S   S34       1.0  0.16890  0.16694  0.06097  1.0000
  H   H17       1.0  0.13063  0.08736  0.35600  1.0000
  Fe  Fe20      1.0  0.16899  0.18504  0.07327  1.0000
  S   S35       1.0  0.14752  0.20220  0.08203  1.0000
  H   H18       1.0  0.16864  0.44763  0.07662  1.0000
  S   S36       1.0  0.17331  0.12815  0.09098  1.0000
  H   H19       1.0  0.05142  0.06107  0.22986  1.0000
  Fe  Fe21      1.0  0.13508  0.34673  0.11750  1.0000
  S   S37       1.0  0.13699  0.33561  0.09773  1.0000
  S   S38       1.0  0.14796  0.36572  0.11484  1.0000
  Fe  Fe22      1.0  0.11902  0.32202  0.14229  1.0000
  S   S39       1.0  0.12018  0.30881  0.12433  1.0000
  S   S40       1.0  0.11112  0.31036  0.16780  1.0000
  Fe  Fe23      1.0  0.14451  0.31294  0.11411  1.0000
  S   S41       1.0  0.16416  0.29467  0.10397  1.0000
  Fe  Fe24      1.0  0.11253  0.33246  0.10958  1.0000
  S   S42       1.0  0.09406  0.33533  0.09616  1.0000
  S   S43       1.0  0.14420  0.32410  0.13321  1.0000
  S   S44       1.0  0.10964  0.34569  0.12821  1.0000
  C   C16       1.0  0.04586  0.33389  0.13900  1.0000
  H   H20       1.0  0.01924  0.24478  0.08008  1.0000
  C   C17       1.0  0.00820  0.30825  0.37959  1.0000
  C   C18       1.0  0.16598  0.14668  0.31250  1.0000
  C   C19       1.0  0.16672  0.08053  0.22319  1.0000
  C   C20       1.0  0.10194  0.22309  0.97969  1.0000
  H   H21       1.0  0.08614  0.98802  0.25510  1.0000
  C   C21       1.0  0.12870  0.01718  0.14355  1.0000
  C   C22       1.0  0.12292  0.98296  0.22157  1.0000
  H   H22       1.0  0.99386  0.27718  0.37984  1.0000
  C   C23       1.0  0.01200  0.17679  0.29409  1.0000
  C   C24       1.0  0.02120  0.32707  0.35853  1.0000
  C   C25       1.0  0.08010  0.10166  0.33815  1.0000
  H   H23       1.0  0.01357  0.30624  0.40234  1.0000
  H   H24       1.0  0.05141  0.27331  0.01006  1.0000
  H   H25       1.0  0.99193  0.22761  0.12997  1.0000
  N   N1        1.0  0.16957  0.02717  0.22500  1.0000
  H   H26       1.0  0.06364  0.27409  0.09361  1.0000
  C   C26       1.0  0.02960  0.29556  0.14064  1.0000
  C   C27       1.0  0.10816  0.30083  0.06390  1.0000
  C   C28       1.0  0.11852  0.30112  0.07267  1.0000
  C   C29       1.0  0.11441  0.31194  0.08229  1.0000
  C   C30       1.0  0.09999  0.32272  0.08303  1.0000
  C   C31       1.0  0.08979  0.32274  0.07392  1.0000
  C   C32       1.0  0.09382  0.31172  0.06446  1.0000
  H   H27       1.0  0.12968  0.29284  0.07220  1.0000
  H   H28       1.0  0.12238  0.31185  0.08922  1.0000
  H   H29       1.0  0.07869  0.33114  0.07434  1.0000
  H   H30       1.0  0.08591  0.31177  0.05747  1.0000
  C   C33       1.0  0.11045  0.21960  0.05251  1.0000
  C   C34       1.0  0.12502  0.21039  0.04687  1.0000
  C   C35       1.0  0.13649  0.20481  0.05593  1.0000
  C   C36       1.0  0.13329  0.20834  0.07068  1.0000
  C   C37       1.0  0.11868  0.21740  0.07634  1.0000
  C   C38       1.0  0.10732  0.22308  0.06724  1.0000
  H   H31       1.0  0.12749  0.20773  0.03543  1.0000
  H   H32       1.0  0.14783  0.19798  0.05141  1.0000
  H   H33       1.0  0.11615  0.22008  0.08777  1.0000
  H   H34       1.0  0.09597  0.22984  0.07182  1.0000
  C   C39       1.0  0.06676  0.32741  0.20314  1.0000
  C   C40       1.0  0.06970  0.33624  0.18768  1.0000
  C   C41       1.0  0.08345  0.33145  0.17675  1.0000
  C   C42       1.0  0.09446  0.31788  0.18130  1.0000
  C   C43       1.0  0.09176  0.30936  0.19688  1.0000
  C   C44       1.0  0.07796  0.31407  0.20774  1.0000
  H   H35       1.0  0.06114  0.34665  0.18404  1.0000
  H   H36       1.0  0.08543  0.33813  0.16479  1.0000
  H   H37       1.0  0.10026  0.29890  0.20050  1.0000
  H   H38       1.0  0.07599  0.30730  0.21964  1.0000
  C   C45       1.0  0.01010  0.33272  0.30492  1.0000
  C   C46       1.0  0.00000  0.33464  0.31939  1.0000
  C   C47       1.0  0.00135  0.34535  0.32725  1.0000
  H   H39       1.0  0.16158  0.44567  0.04518  1.0000
  H   H40       1.0  0.02319  0.33350  0.34647  1.0000
  C   C48       1.0  0.02169  0.34148  0.29842  1.0000
  N   N2        1.0  0.08770  0.23431  0.98567  1.0000
  S   S45       1.0  0.99771  0.21428  0.20985  1.0000
  H   H41       1.0  0.02945  0.34017  0.28722  1.0000
  C   C49       1.0  0.02100  0.20278  0.38813  1.0000
  C   C50       1.0  0.02574  0.21642  0.37875  1.0000
  C   C51       1.0  0.12009  0.17051  0.08003  1.0000
  C   C52       1.0  0.14581  0.05377  0.18057  1.0000
  C   C53       1.0  0.11568  0.16843  0.09660  1.0000
  C   C54       1.0  0.99468  0.19889  0.36205  1.0000
  H   H42       1.0  0.03321  0.21621  0.36725  1.0000
  C   C55       1.0  0.00304  0.26703  0.07797  1.0000
  H   H43       1.0  0.99345  0.07942  0.27543  1.0000
  N   N3        1.0  0.12109  0.06951  0.35256  1.0000
  C   C56       1.0  0.07945  0.23292  0.31121  1.0000
  C   C57       1.0  0.06604  0.23878  0.30481  1.0000
  C   C58       1.0  0.06511  0.25254  0.29292  1.0000
  C   C59       1.0  0.07773  0.26011  0.28731  1.0000
  C   C60       1.0  0.09109  0.25405  0.29365  1.0000
  C   C61       1.0  0.09188  0.24062  0.30566  1.0000
  H   H44       1.0  0.05632  0.23294  0.30927  1.0000
  H   H45       1.0  0.05466  0.25734  0.28824  1.0000
  H   H46       1.0  0.10082  0.25991  0.28940  1.0000
  H   H47       1.0  0.10219  0.23620  0.31066  1.0000
  H   H48       1.0  0.17411  0.07465  0.26265  1.0000
  H   H49       1.0  0.01417  0.28966  0.10045  1.0000
  C   C62       1.0  0.13225  0.14239  0.10246  1.0000
  C   C63       1.0  0.00738  0.41992  0.39227  1.0000
  Fe  Fe25      1.0  0.00143  0.24688  0.15620  1.0000
  H   H50       1.0  0.01856  0.27745  0.15661  1.0000
  H   H51       1.0  0.09732  0.00902  0.25756  1.0000
  C   C64       1.0  0.17725  0.07875  0.20897  1.0000
  H   H52       1.0  0.13754  0.44159  0.06166  1.0000
  C   C65       1.0  0.15726  0.44563  0.07622  1.0000
  H   H53       1.0  0.04577  0.30179  0.09165  1.0000
  H   H54       1.0  0.15178  0.06849  0.25448  1.0000
  C   C66       1.0  0.00914  0.17165  0.32214  1.0000
  C   C67       1.0  0.01541  0.17945  0.30709  1.0000
  C   C68       1.0  0.04420  0.27028  0.99070  1.0000
  H   H55       1.0  0.07504  0.24342  0.00639  1.0000
  C   C69       1.0  0.11957  0.15555  0.12357  1.0000
  H   H56       1.0  0.17360  0.32492  0.09309  1.0000
  H   H57       1.0  0.01693  0.18269  0.28245  1.0000
  H   H58       1.0  0.17719  0.13862  0.31000  1.0000
  H   H59       1.0  0.17025  0.26798  0.09029  1.0000
  H   H60       1.0  0.15978  0.05087  0.21470  1.0000
  C   C70       1.0  0.12997  0.12142  0.34679  1.0000
  C   C71       1.0  0.12840  0.11945  0.33263  1.0000
  C   C72       1.0  0.11440  0.12652  0.32737  1.0000
  C   C73       1.0  0.10198  0.13589  0.33603  1.0000
  C   C74       1.0  0.10357  0.13805  0.35010  1.0000
  C   C75       1.0  0.11749  0.13072  0.35552  1.0000
  H   H61       1.0  0.13781  0.11223  0.32587  1.0000
  H   H62       1.0  0.11316  0.12463  0.31659  1.0000
  H   H63       1.0  0.09394  0.14504  0.35699  1.0000
  H   H64       1.0  0.11857  0.13217  0.36655  1.0000
  C   C76       1.0  0.04458  0.07758  0.26245  1.0000
  C   C77       1.0  0.05174  0.08906  0.25141  1.0000
  C   C78       1.0  0.04277  0.10417  0.24689  1.0000
  C   C79       1.0  0.02669  0.10786  0.25354  1.0000
  C   C80       1.0  0.01963  0.09645  0.26472  1.0000
  C   C81       1.0  0.02851  0.08130  0.26908  1.0000
  H   H65       1.0  0.06407  0.08619  0.24598  1.0000
  H   H66       1.0  0.04829  0.11294  0.23815  1.0000
  H   H67       1.0  0.00727  0.09919  0.26977  1.0000
  H   H68       1.0  0.02296  0.07240  0.27755  1.0000
  C   C82       1.0  0.12566  0.07119  0.29778  1.0000
  C   C83       1.0  0.12994  0.08241  0.30269  1.0000
  C   C84       1.0  0.14528  0.08000  0.30471  1.0000
  C   C85       1.0  0.15623  0.06628  0.30200  1.0000
  H   H69       1.0  0.14655  0.16684  0.09111  1.0000
  C   C86       1.0  0.13661  0.05749  0.29513  1.0000
  H   H70       1.0  0.12145  0.09303  0.30479  1.0000
  H   H71       1.0  0.14865  0.08881  0.30816  1.0000
  H   H72       1.0  0.13983  0.13402  0.11031  1.0000
  H   H73       1.0  0.13325  0.04865  0.29167  1.0000
  H   H74       1.0  0.00383  0.47541  0.40506  1.0000
  H   H75       1.0  0.06996  0.10996  0.33446  1.0000
  H   H76       1.0  0.16864  0.09940  0.11252  1.0000
  H   H77       1.0  0.13973  0.14279  0.09045  1.0000
  C   C87       1.0  0.15089  0.06685  0.18079  1.0000
  C   C88       1.0  0.14392  0.07474  0.19307  1.0000
  C   C89       1.0  0.13222  0.06925  0.20541  1.0000
  C   C90       1.0  0.12720  0.05613  0.20521  1.0000
  S   S46       1.0  0.12681  0.00775  0.26530  1.0000
  H   H78       1.0  0.12987  0.03842  0.19254  1.0000
  H   H79       1.0  0.14774  0.08496  0.19313  1.0000
  H   H80       1.0  0.11808  0.05195  0.21457  1.0000
  H   H81       1.0  0.08550  0.32445  0.13387  1.0000
  C   C91       1.0  0.02776  0.28019  0.14648  1.0000
  H   H82       1.0  0.17410  0.30578  0.12596  1.0000
  C   C92       1.0  0.14035  0.16503  0.10362  1.0000
  H   H83       1.0  0.15211  0.01906  0.21906  1.0000
  C   C93       1.0  0.08706  0.08861  0.33157  1.0000
  C   C94       1.0  0.03883  0.06451  0.23405  1.0000
  H   H84       1.0  0.00025  0.26016  0.20769  1.0000
  C   C95       1.0  0.01557  0.31142  0.38994  1.0000
  C   C96       1.0  0.16220  0.39897  0.06787  1.0000
  C   C97       1.0  0.15070  0.39057  0.06982  1.0000
  C   C98       1.0  0.14632  0.38021  0.08412  1.0000
  C   C99       1.0  0.15318  0.37845  0.09667  1.0000
  C   C100      1.0  0.16463  0.38690  0.09473  1.0000
  C   C101      1.0  0.16929  0.39698  0.08032  1.0000
  H   H85       1.0  0.14512  0.39212  0.06025  1.0000
  H   H86       1.0  0.13739  0.37384  0.08555  1.0000
  H   H87       1.0  0.16734  0.33360  0.06677  1.0000
  C   C102      1.0  0.09709  0.98499  0.25891  1.0000
  C   C103      1.0  0.99920  0.16151  0.32416  1.0000
  H   H88       1.0  0.15513  0.01050  0.23839  1.0000
  C   C104      1.0  0.16031  0.45693  0.04847  1.0000
  H   H89       1.0  0.13863  0.08265  0.26503  1.0000
  C   C105      1.0  0.04920  0.27189  0.12574  1.0000
  H   H90       1.0  0.08489  0.22329  0.01035  1.0000
  H   H91       1.0  0.16867  0.34459  0.09544  1.0000
  C   C106      1.0  0.18803  0.23528  0.07589  1.0000
  C   C107      1.0  0.01445  0.42529  0.40117  1.0000
  C   C108      1.0  0.18249  0.12687  0.00200  1.0000
  H   H92       1.0  0.14916  0.15745  0.11051  1.0000
  H   H93       1.0  0.10893  0.15061  0.12646  1.0000
  N   N4        1.0  0.06351  0.29171  0.10530  1.0000
  H   H94       1.0  0.02633  0.41962  0.40249  1.0000
  H   H95       1.0  0.16842  0.23727  0.03913  1.0000
  C   C109      1.0  0.08585  0.23485  0.00230  1.0000
  C   C110      1.0  0.17407  0.16864  0.01558  1.0000
  H   H96       1.0  0.14172  0.11000  0.25696  1.0000
  H   H97       1.0  0.13667  0.08374  0.33663  1.0000
  H   H98       1.0  0.99362  0.34660  0.33843  1.0000
  H   H99       1.0  0.99420  0.15569  0.33585  1.0000
  S   S47       1.0  0.00787  0.47668  0.44552  1.0000
  C   C111      1.0  0.15470  0.02158  0.22926  1.0000
  C   C112      1.0  0.16854  0.04047  0.21125  1.0000
  C   C113      1.0  0.11307  0.21401  0.98891  1.0000
  C   C114      1.0  0.18834  0.13241  0.04536  1.0000
  H   H100      1.0  0.99894  0.18174  0.22225  1.0000
  H   H101      1.0  0.14474  0.07010  0.35239  1.0000
  C   C115      1.0  0.01117  0.23077  0.39927  1.0000
  H   H102      1.0  0.14446  0.03054  0.23367  1.0000
  H   H103      1.0  0.12499  0.99041  0.22835  1.0000
  C   C116      1.0  0.99211  0.42732  0.39035  1.0000
  N   N5        1.0  0.14983  0.45767  0.06412  1.0000
  H   H104      1.0  0.00675  0.30672  0.20079  1.0000
  C   C117      1.0  0.01089  0.27605  0.23193  1.0000
  C   C118      1.0  0.12611  0.00606  0.13724  1.0000
  Fe  Fe26      1.0  0.99099  0.23496  0.19109  1.0000
  C   C119      1.0  0.14923  0.99442  0.20063  1.0000
  H   H105      1.0  0.18302  0.48119  0.98936  1.0000
  H   H106      1.0  0.14400  0.11083  0.23647  1.0000
  H   H107      1.0  0.16930  0.16716  0.02803  1.0000
  H   H108      1.0  0.99967  0.47285  0.36931  1.0000
  N   N6        1.0  0.04895  0.30468  0.17773  1.0000
  C   C120      1.0  0.03882  0.31493  0.18849  1.0000
  C   C121      1.0  0.06250  0.29525  0.18476  1.0000
  H   H109      1.0  0.02729  0.32079  0.18539  1.0000
  H   H110      1.0  0.03631  0.30834  0.20088  1.0000
  H   H111      1.0  0.04453  0.32433  0.18829  1.0000
  H   H112      1.0  0.03707  0.28555  0.18844  1.0000
  H   H113      1.0  0.06944  0.30292  0.18606  1.0000
  H   H114      1.0  0.05868  0.28829  0.19675  1.0000
  H   H115      1.0  0.07042  0.28688  0.17757  1.0000
  H   H116      1.0  0.02955  0.32479  0.15896  1.0000
  C   C122      1.0  0.00619  0.43782  0.40848  1.0000
  H   H117      1.0  0.12793  0.14720  0.13059  1.0000
  H   H118      1.0  0.09581  0.23861  0.00405  1.0000
  C   C123      1.0  0.06172  0.28712  0.98829  1.0000
  H   H119      1.0  0.17658  0.11890  0.02671  1.0000
  H   H120      1.0  0.03179  0.35923  0.30101  1.0000
  H   H121      1.0  0.08783  0.19652  0.06941  1.0000
  H   H122      1.0  0.04219  0.23393  0.10835  1.0000
  H   H123      1.0  0.03674  0.34157  0.13314  1.0000
  H   H124      1.0  0.02449  0.24084  0.37695  1.0000
  H   H125      1.0  0.02172  0.30470  0.14634  1.0000
  N   N7        1.0  0.04760  0.22884  0.26646  1.0000
  C   C124      1.0  0.05903  0.21693  0.27504  1.0000
  C   C125      1.0  0.05518  0.24229  0.25790  1.0000
  C   C126      1.0  0.03354  0.23431  0.27811  1.0000
  C   C127      1.0  0.04268  0.22234  0.25577  1.0000
  C   C128      1.0  0.04126  0.20649  0.25953  1.0000
  C   C129      1.0  0.03819  0.23189  0.24176  1.0000
  C   C130      1.0  0.03679  0.20037  0.24932  1.0000
  C   C131      1.0  0.03365  0.22567  0.23167  1.0000
  C   C132      1.0  0.03314  0.20991  0.23534  1.0000
  H   H126      1.0  0.06896  0.21105  0.26682  1.0000
  H   H127      1.0  0.06409  0.22217  0.28169  1.0000
  H   H128      1.0  0.05352  0.20784  0.28410  1.0000
  H   H129      1.0  0.06070  0.24593  0.26541  1.0000
  H   H130      1.0  0.04661  0.25301  0.25377  1.0000
  H   H131      1.0  0.06453  0.23936  0.24762  1.0000
  H   H132      1.0  0.02777  0.22453  0.28526  1.0000
  H   H133      1.0  0.03653  0.23955  0.28630  1.0000
  H   H134      1.0  0.02462  0.24335  0.27231  1.0000
  H   H135      1.0  0.04350  0.19863  0.27039  1.0000
  H   H136      1.0  0.03798  0.24427  0.23840  1.0000
  H   H137      1.0  0.03613  0.18815  0.25229  1.0000
  H   H138      1.0  0.03041  0.23318  0.22096  1.0000
  H   H139      1.0  0.02967  0.20518  0.22740  1.0000
  C   C133      1.0  0.00328  0.28386  0.20240  1.0000
  H   H140      1.0  0.00190  0.29044  0.36301  1.0000
  H   H141      1.0  0.10702  0.05714  0.37273  1.0000
  C   C134      1.0  0.01570  0.26697  0.11618  1.0000
  C   C135      1.0  0.11443  0.17850  0.33912  1.0000
  H   H142      1.0  0.16330  0.26608  0.03697  1.0000
  H   H143      1.0  0.11171  0.21466  0.00091  1.0000
  H   H144      1.0  0.04960  0.32243  0.30742  1.0000
  H   H145      1.0  0.00715  0.28217  0.40406  1.0000
  H   H146      1.0  0.13855  0.00289  0.20368  1.0000
  S   S48       1.0  0.18032  0.16782  0.09191  1.0000
  H   H147      1.0  0.18760  0.14510  0.04013  1.0000
  H   H148      1.0  0.00603  0.27104  0.12516  1.0000
  C   C136      1.0  0.99698  0.40326  0.43648  1.0000
  N   N8        1.0  0.12664  0.15804  0.10649  1.0000
  C   C137      1.0  0.07532  0.29700  0.10987  1.0000
  H   H149      1.0  0.08073  0.28223  0.08659  1.0000
  H   H150      1.0  0.13673  0.17675  0.10667  1.0000
  C   C138      1.0  0.14743  0.47339  0.06723  1.0000
  H   H151      1.0  0.13811  0.04821  0.34865  1.0000
  C   C139      1.0  0.16758  0.03264  0.26577  1.0000
  H   H152      1.0  0.16053  0.01295  0.18575  1.0000
  H   H153      1.0  0.15797  0.44750  0.98008  1.0000
  H   H154      1.0  0.12104  0.02874  0.14271  1.0000
  C   C140      1.0  0.03764  0.26837  0.13917  1.0000
  H   H155      1.0  0.06469  0.34146  0.12046  1.0000
  C   C141      1.0  0.14899  0.98702  0.14560  1.0000
  H   H156      1.0  0.10327  0.18749  0.34098  1.0000
  C   C142      1.0  0.09539  0.18855  0.07698  1.0000
  H   H157      1.0  0.11127  0.16695  0.34472  1.0000
  N   N9        1.0  0.15852  0.09070  0.24834  1.0000
  C   C143      1.0  0.09080  0.18707  0.09316  1.0000
  H   H158      1.0  0.16246  0.13777  0.33738  1.0000
  H   H159      1.0  0.11873  0.04875  0.34712  1.0000
  C   C144      1.0  0.18193  0.29017  0.11005  1.0000
  C   C145      1.0  0.17259  0.03202  0.23796  1.0000
  S   S49       1.0  0.01597  0.27082  0.25025  1.0000
  C   C146      1.0  0.16175  0.25994  0.07472  1.0000
  H   H160      1.0  0.13117  0.06007  0.33177  1.0000
  H   H161      1.0  0.13476  0.19659  0.98995  1.0000
  H   H162      1.0  0.17237  0.45786  0.04795  1.0000
  C   C147      1.0  0.18272  0.01433  0.22031  1.0000
  H   H163      1.0  0.00587  0.31497  0.35518  1.0000
  C   C148      1.0  0.00187  0.28552  0.37563  1.0000
  H   H164      1.0  0.03694  0.04183  0.24854  1.0000
  C   C149      1.0  0.01491  0.08466  0.23552  1.0000
  C   C150      1.0  0.02295  0.35230  0.30622  1.0000
  C   C151      1.0  0.00622  0.07395  0.24659  1.0000
  H   H165      1.0  0.18022  0.22666  0.06078  1.0000
  H   H166      1.0  0.13385  0.98310  0.13279  1.0000
  C   C152      1.0  0.99550  0.15908  0.31116  1.0000
  C   C153      1.0  0.01455  0.05824  0.25071  1.0000
  C   C154      1.0  0.99569  0.22112  0.26363  1.0000
  C   C155      1.0  0.12643  0.20359  0.98277  1.0000
  H   H167      1.0  0.08231  0.08668  0.32273  1.0000
  H   H168      1.0  0.08001  0.28822  0.11964  1.0000
  C   C156      1.0  0.10997  0.18024  0.07045  1.0000
  C   C157      1.0  0.03097  0.07992  0.22940  1.0000
  H   H169      1.0  0.07862  0.26874  0.10502  1.0000
  H   H170      1.0  0.15488  0.02193  0.25713  1.0000
  H   H171      1.0  0.01382  0.27839  0.37665  1.0000
  C   C158      1.0  0.12747  0.05607  0.34468  1.0000
  H   H172      1.0  0.10430  0.09665  0.36225  1.0000
  H   H173      1.0  0.00799  0.19261  0.41052  1.0000
  C   C159      1.0  0.10343  0.99690  0.26024  1.0000
  Fe  Fe27      1.0  0.99509  0.46590  0.46960  1.0000
  C   C160      1.0  0.00213  0.16662  0.29611  1.0000
  C   C161      1.0  0.11030  0.17742  0.31460  1.0000
  H   H174      1.0  0.11427  0.17935  0.30166  1.0000
  H   H175      1.0  0.07047  0.30833  0.11366  1.0000
  Fe  Fe28      1.0  0.00029  0.45948  0.43684  1.0000
  H   H176      1.0  0.11639  0.00902  0.13146  1.0000
  H   H177      1.0  0.00878  0.04938  0.25891  1.0000
  H   H178      1.0  0.99740  0.40500  0.42378  1.0000
  C   C162      1.0  0.01269  0.35439  0.32059  1.0000
  H   H179      1.0  0.18651  0.10047  0.23517  1.0000
  C   C163      1.0  0.00315  0.26883  0.21181  1.0000
  C   C164      1.0  0.17846  0.33553  0.09060  1.0000
  C   C165      1.0  0.02036  0.27751  0.10221  1.0000
  H   H180      1.0  0.11365  0.18178  0.05781  1.0000
  H   H181      1.0  0.11641  0.16662  0.12779  1.0000
  H   H182      1.0  0.05047  0.25265  0.08365  1.0000
  S   S50       1.0  0.03802  0.28572  0.07290  1.0000
  H   H183      1.0  0.16498  0.03755  0.20183  1.0000
  H   H184      1.0  0.04251  0.31120  0.12341  1.0000
  S   S51       1.0  0.00837  0.37707  0.37181  1.0000
  N   N10       1.0  0.03351  0.11731  0.29618  1.0000
  C   C166      1.0  0.03612  0.10151  0.29305  1.0000
  C   C167      1.0  0.02109  0.11811  0.31072  1.0000
  C   C168      1.0  0.02765  0.12901  0.28294  1.0000
  C   C169      1.0  0.04787  0.12081  0.29789  1.0000
  C   C170      1.0  0.04701  0.13470  0.30262  1.0000
  C   C171      1.0  0.06303  0.11093  0.29457  1.0000
  C   C172      1.0  0.06037  0.13815  0.30449  1.0000
  C   C173      1.0  0.07632  0.11460  0.29633  1.0000
  C   C174      1.0  0.07498  0.12811  0.30138  1.0000
  H   H185      1.0  0.04102  0.09213  0.30234  1.0000
  H   H186      1.0  0.02498  0.09891  0.29265  1.0000
  H   H187      1.0  0.04416  0.10044  0.28148  1.0000
  H   H188      1.0  0.01705  0.13003  0.31318  1.0000
  H   H189      1.0  0.02527  0.10999  0.32110  1.0000
  H   H190      1.0  0.01029  0.11507  0.30995  1.0000
  H   H191      1.0  0.03657  0.12872  0.27173  1.0000
  H   H192      1.0  0.01687  0.12680  0.28117  1.0000
  H   H193      1.0  0.02460  0.14112  0.28484  1.0000
  H   H194      1.0  0.03600  0.14306  0.30489  1.0000
  H   H195      1.0  0.06502  0.10028  0.29056  1.0000
  H   H196      1.0  0.05941  0.14866  0.30846  1.0000
  H   H197      1.0  0.08776  0.10684  0.29384  1.0000
  H   H198      1.0  0.08530  0.13078  0.30294  1.0000
  H   H199      1.0  0.13743  0.15550  0.34350  1.0000
  H   H200      1.0  0.18079  0.00999  0.21084  1.0000
  C   C175      1.0  0.08633  0.10421  0.34935  1.0000
  C   C176      1.0  0.18806  0.04443  0.24730  1.0000
  H   H201      1.0  0.01159  0.17372  0.33227  1.0000
  H   H202      1.0  0.09880  0.18575  0.31703  1.0000
  H   H203      1.0  0.17242  0.47262  0.06387  1.0000
  C   C177      1.0  0.14541  0.16787  0.30350  1.0000
  H   H204      1.0  0.06247  0.23804  0.98942  1.0000
  H   H205      1.0  0.10812  0.16535  0.31897  1.0000
  H   H206      1.0  0.03751  0.08841  0.22151  1.0000
  C   C178      1.0  0.16184  0.00042  0.19032  1.0000
  C   C179      1.0  0.99565  0.28954  0.40171  1.0000
  H   H207      1.0  0.16997  0.38559  0.10442  1.0000
  C   C180      1.0  0.01107  0.29104  0.22250  1.0000
  H   H208      1.0  0.15852  0.08769  0.27276  1.0000
  H   H209      1.0  0.16632  0.15751  0.28832  1.0000
  C   C181      1.0  0.13612  0.99122  0.13816  1.0000
  C   C182      1.0  0.05614  0.30458  0.09367  1.0000
  C   C183      1.0  0.15982  0.15738  0.30030  1.0000
  C   C184      1.0  0.18680  0.11145  0.09816  1.0000
  C   C185      1.0  0.07331  0.32425  0.13943  1.0000
  C   C186      1.0  0.16416  0.02829  0.25372  1.0000
  S   S52       1.0  0.15497  0.04331  0.16578  1.0000
  C   C187      1.0  0.17609  0.99039  0.18573  1.0000
  H   H210      1.0  0.00644  0.25346  0.23396  1.0000
  S   S53       1.0  0.00499  0.24857  0.40572  1.0000
  H   H211      1.0  0.03168  0.29573  0.31343  1.0000
  S   S54       1.0  0.17691  0.07458  0.34168  1.0000
  S   S55       1.0  0.17073  0.10510  0.31218  1.0000
  C   C188      1.0  0.18484  0.04000  0.23518  1.0000
  N   N11       1.0  0.05395  0.29737  0.31622  1.0000
  C   C189      1.0  0.04860  0.31363  0.31875  1.0000
  C   C190      1.0  0.07040  0.29561  0.30705  1.0000
  C   C191      1.0  0.11702  0.06305  0.36968  1.0000
  C   C192      1.0  0.05307  0.28517  0.33092  1.0000
  C   C193      1.0  0.04794  0.28872  0.34607  1.0000
  C   C194      1.0  0.05743  0.26907  0.33035  1.0000
  C   C195      1.0  0.04723  0.27681  0.35968  1.0000
  C   C196      1.0  0.05663  0.25727  0.34400  1.0000
  C   C197      1.0  0.05150  0.26113  0.35865  1.0000
  H   H212      1.0  0.03601  0.31606  0.32486  1.0000
  H   H213      1.0  0.15966  0.43364  0.07402  1.0000
  C   C198      1.0  0.13379  0.07804  0.34926  1.0000
  H   H214      1.0  0.07836  0.29686  0.31376  1.0000
  H   H215      1.0  0.07146  0.30443  0.29573  1.0000
  H   H216      1.0  0.07508  0.28403  0.30381  1.0000
  H   H217      1.0  0.16020  0.04424  0.29571  1.0000
  H   H218      1.0  0.17676  0.12996  0.04633  1.0000
  H   H219      1.0  0.04851  0.28454  0.30233  1.0000
  H   H220      1.0  0.04451  0.30057  0.34772  1.0000
  H   H221      1.0  0.06158  0.26547  0.31930  1.0000
  H   H222      1.0  0.04346  0.27974  0.37111  1.0000
  H   H223      1.0  0.06012  0.24505  0.34318  1.0000
  H   H224      1.0  0.05095  0.25193  0.36921  1.0000
  C   C199      1.0  0.02353  0.25123  0.11839  1.0000
  C   C200      1.0  0.16972  0.08803  0.23351  1.0000
  H   H225      1.0  0.16001  0.07105  0.17135  1.0000
  H   H226      1.0  0.18578  0.99508  0.17764  1.0000
  C   C201      1.0  0.06156  0.33388  0.13185  1.0000
  H   H227      1.0  0.13393  0.19745  0.32038  1.0000
  C   C202      1.0  0.04137  0.29916  0.12745  1.0000
  C   C203      1.0  0.13674  0.16797  0.31912  1.0000
  H   H228      1.0  0.11390  0.20476  0.31844  1.0000
  C   C204      1.0  0.12468  0.19566  0.31560  1.0000
  H   H229      1.0  0.99954  0.16483  0.28601  1.0000
  H   H230      1.0  0.11827  0.99055  0.21124  1.0000
  C   C205      1.0  0.01149  0.20318  0.40315  1.0000
  H   H231      1.0  0.12843  0.19822  0.30262  1.0000
  H   H232      1.0  0.05222  0.31598  0.09730  1.0000
  N   N12       1.0  0.99698  0.29775  0.38498  1.0000
  H   H233      1.0  0.14113  0.17597  0.29364  1.0000
  H   H234      1.0  0.08553  0.29877  0.09998  1.0000
  C   C206      1.0  0.02533  0.32214  0.38464  1.0000
  C   C207      1.0  0.14326  0.15669  0.33128  1.0000
  H   H235      1.0  0.06434  0.30664  0.08206  1.0000
  Fe  Fe29      1.0  0.18056  0.07923  0.31556  1.0000
  H   H236      1.0  0.12227  0.18041  0.34556  1.0000
  N   N13       1.0  0.12181  0.17960  0.32219  1.0000
  H   H237      1.0  0.09647  0.17672  0.11530  1.0000
  C   C208      1.0  0.13384  0.04852  0.19269  1.0000
  C   C209      1.0  0.01137  0.31640  0.36367  1.0000
  H   H238      1.0  0.04691  0.28635  0.16822  1.0000
  H   H239      1.0  0.07955  0.19384  0.09814  1.0000
  H   H240      1.0  0.17452  0.34982  0.05296  1.0000
  C   C210      1.0  0.05357  0.31442  0.16192  1.0000
  C   C211      1.0  0.18606  0.17275  0.98314  1.0000
  C   C212      1.0  0.00658  0.21711  0.40871  1.0000
  H   H241      1.0  0.15621  0.07611  0.22571  1.0000
  C   C213      1.0  0.04397  0.29557  0.30666  1.0000
  H   H242      1.0  0.00979  0.09691  0.23179  1.0000
  S   S56       1.0  0.17567  0.06311  0.30363  1.0000
  H   H243      1.0  0.05587  0.31605  0.32547  1.0000
  H   H244      1.0  0.15388  0.16428  0.01072  1.0000
  C   C214      1.0  0.10709  0.08041  0.34740  1.0000
  H   H245      1.0  0.13155  0.16491  0.07429  1.0000
  H   H246      1.0  0.99102  0.29790  0.40959  1.0000
  H   H247      1.0  0.00295  0.19423  0.35242  1.0000
  C   C215      1.0  0.15139  0.99872  0.15177  1.0000
  H   H248      1.0  0.12905  0.46185  0.05517  1.0000
  C   C216      1.0  0.17140  0.34443  0.06564  1.0000
  H   H249      1.0  0.08099  0.11452  0.35428  1.0000
  H   H250      1.0  0.17474  0.07312  0.20117  1.0000
  H   H251      1.0  0.03518  0.33875  0.36509  1.0000
  S   S57       1.0  0.01772  0.23764  0.13554  1.0000
  H   H252      1.0  0.00374  0.19101  0.26096  1.0000
  C   C217      1.0  0.11778  0.99311  0.26479  1.0000
  C   C218      1.0  0.14132  0.01353  0.15076  1.0000
  H   H253      1.0  0.03600  0.25644  0.14365  1.0000
  C   C219      1.0  0.02082  0.23036  0.38430  1.0000
  H   H254      1.0  0.04339  0.30522  0.29605  1.0000
  H   H255      1.0  0.13822  0.08473  0.24522  1.0000
  C   C220      1.0  0.06949  0.31465  0.15425  1.0000
  C   C221      1.0  0.17134  0.16900  0.98952  1.0000
  C   C222      1.0  0.05136  0.28748  0.11942  1.0000
  S   S58       1.0  0.01459  0.36821  0.32993  1.0000
  C   C223      1.0  0.18906  0.17184  0.00925  1.0000
  C   C224      1.0  0.16686  0.08680  0.26133  1.0000
  C   C225      1.0  0.04188  0.32428  0.15379  1.0000
  Fe  Fe30      1.0  0.99881  0.37337  0.35296  1.0000
  C   C226      1.0  0.14634  0.08119  0.25341  1.0000
  C   C227      1.0  0.00676  0.26500  0.22664  1.0000
  H   H256      1.0  0.12694  0.45292  0.07593  1.0000
  H   H257      1.0  0.01060  0.27250  0.06760  1.0000
  H   H258      1.0  0.12224  0.13719  0.10328  1.0000
  N   N14       1.0  0.15270  0.24984  0.05640  1.0000
  C   C228      1.0  0.13699  0.24926  0.06683  1.0000
  C   C229      1.0  0.15164  0.26496  0.04475  1.0000
  C   C230      1.0  0.15694  0.23718  0.04762  1.0000
  C   C231      1.0  0.16408  0.24852  0.06589  1.0000
  C   C232      1.0  0.18379  0.29748  0.12086  1.0000
  H   H259      1.0  0.14958  0.44560  0.08813  1.0000
  S   S59       1.0  0.01069  0.24644  0.17671  1.0000
  H   H260      1.0  0.16098  0.02954  0.27767  1.0000
  C   C233      1.0  0.17234  0.25907  0.08369  1.0000
  H   H261      1.0  0.13211  0.25946  0.07250  1.0000
  H   H262      1.0  0.12821  0.24946  0.06027  1.0000
  H   H263      1.0  0.13754  0.23843  0.07629  1.0000
  H   H264      1.0  0.14330  0.26625  0.03726  1.0000
  H   H265      1.0  0.00136  0.22669  0.25161  1.0000
  H   H266      1.0  0.14715  0.27522  0.05035  1.0000
  H   H267      1.0  0.15756  0.22547  0.05569  1.0000
  H   H268      1.0  0.14801  0.23838  0.04083  1.0000
  H   H269      1.0  0.00351  0.21977  0.35641  1.0000
  H   H270      1.0  0.00536  0.21395  0.26957  1.0000
  H   H271      1.0  0.03023  0.32488  0.39291  1.0000
  S   S60       1.0  0.99778  0.34404  0.40883  1.0000
  C   C234      1.0  0.15042  0.10743  0.24614  1.0000
  H   H272      1.0  0.15885  0.11522  0.24309  1.0000
  H   H273      1.0  0.01475  0.47069  0.38678  1.0000
  H   H274      1.0  0.00373  0.39128  0.44066  1.0000
  H   H275      1.0  0.00350  0.41157  0.43746  1.0000
  H   H276      1.0  0.99939  0.21722  0.42036  1.0000
  C   C235      1.0  0.01039  0.48032  0.39326  1.0000
  H   H277      1.0  0.17816  0.40338  0.07896  1.0000
  Fe  Fe31      1.0  0.18221  0.15005  0.07844  1.0000
  C   C236      1.0  0.17753  0.23604  0.06684  1.0000
  S   S61       1.0  0.99938  0.28868  0.18358  1.0000
  Fe  Fe32      1.0  0.18089  0.04212  0.15924  1.0000
  H   H278      1.0  0.17178  0.12516  0.00029  1.0000
  C   C237      1.0  0.18115  0.09874  0.10872  1.0000
  C   C238      1.0  0.00789  0.25139  0.08505  1.0000
  C   C239      1.0  0.99480  0.19913  0.25457  1.0000
  C   C240      1.0  0.16054  0.47938  0.06654  1.0000
  C   C241      1.0  0.13512  0.45344  0.06424  1.0000
  H   H279      1.0  0.16107  0.99689  0.15726  1.0000
  C   C242      1.0  0.99860  0.24445  0.09886  1.0000
  C   C243      1.0  0.99172  0.36827  0.28595  1.0000
  H   H280      1.0  0.18418  0.00424  0.23044  1.0000
  H   H281      1.0  0.99311  0.35170  0.27249  1.0000
  H   H282      1.0  0.17460  0.09487  0.25981  1.0000
  H   H283      1.0  0.18715  0.07534  0.12250  1.0000
  C   C244      1.0  0.07344  0.23017  0.98445  1.0000
  C   C245      1.0  0.18364  0.09397  0.22844  1.0000
  Fe  Fe33      1.0  0.18982  0.42025  0.04426  1.0000
  H   H284      1.0  0.18214  0.04396  0.27203  1.0000
  H   H285      1.0  0.00095  0.20423  0.24259  1.0000
  C   C246      1.0  0.18552  0.24683  0.08418  1.0000
  H   H286      1.0  0.18618  0.40447  0.99217  1.0000
  N   N15       1.0  0.18465  0.34088  0.07354  1.0000
  H   H287      1.0  0.17994  0.04394  0.20556  1.0000
  H   H288      1.0  0.17632  0.45865  0.98564  1.0000
  H   H289      1.0  0.18059  0.36424  0.07707  1.0000
  H   H290      1.0  0.18760  0.33295  0.09745  1.0000
  H   H291      1.0  0.12164  0.47965  0.07182  1.0000
  H   H292      1.0  0.14346  0.02235  0.15539  1.0000
  C   C247      1.0  0.99494  0.21332  0.36430  1.0000
  H   H293      1.0  0.99607  0.31617  0.43307  1.0000
  C   C248      1.0  0.17946  0.04073  0.26259  1.0000
  Fe  Fe34      1.0  0.99162  0.13278  0.26284  1.0000
  C   C249      1.0  0.18531  0.12348  0.01707  1.0000
  C   C250      1.0  0.99094  0.44515  0.40653  1.0000
  H   H294      1.0  0.18987  0.13019  0.05758  1.0000
  H   H295      1.0  0.07791  0.25903  0.98028  1.0000
  C   C251      1.0  0.18992  0.35553  0.07129  1.0000
  H   H296      1.0  0.18730  0.39537  0.87191  1.0000
  H   H297      1.0  0.03694  0.27234  0.76544  1.0000
  S   S62       1.0  0.03354  0.45667  0.60048  1.0000
  H   H298      1.0  0.01025  0.26261  0.91106  1.0000
  C   C252      1.0  0.17699  0.46737  0.96038  1.0000
  H   H299      1.0  0.13844  0.15176  0.77651  1.0000
  C   C253      1.0  0.05852  0.11268  0.80945  1.0000
  H   H300      1.0  0.01363  0.20695  0.65921  1.0000
  H   H301      1.0  0.05562  0.01573  0.70808  1.0000
  S   S63       1.0  0.17130  0.38530  0.90437  1.0000
  C   C254      1.0  0.07617  0.99878  0.74834  1.0000
  Fe  Fe35      1.0  0.04217  0.27447  0.90621  1.0000
  S   S64       1.0  0.04229  0.28996  0.92153  1.0000
  Fe  Fe36      1.0  0.06927  0.24971  0.91703  1.0000
  S   S65       1.0  0.07254  0.26305  0.93278  1.0000
  S   S66       1.0  0.08250  0.22544  0.91493  1.0000
  Fe  Fe37      1.0  0.04630  0.26787  0.93989  1.0000
  S   S67       1.0  0.03658  0.26497  0.96582  1.0000
  Fe  Fe38      1.0  0.06840  0.28405  0.91333  1.0000
  S   S68       1.0  0.07959  0.30467  0.90646  1.0000
  S   S69       1.0  0.04324  0.25286  0.92550  1.0000
  S   S70       1.0  0.06819  0.27016  0.89666  1.0000
  Fe  Fe39      1.0  0.16683  0.19381  0.92110  1.0000
  H   H302      1.0  0.15677  0.15190  0.78016  1.0000
  S   S71       1.0  0.15483  0.21761  0.90940  1.0000
  C   C255      1.0  0.99971  0.46345  0.52146  1.0000
  H   H303      1.0  0.05467  0.44315  0.57529  1.0000
  Fe  Fe40      1.0  0.17127  0.17068  0.95154  1.0000
  C   C256      1.0  0.04035  0.00185  0.72616  1.0000
  C   C257      1.0  0.05442  0.28518  0.96518  1.0000
  S   S72       1.0  0.15777  0.17194  0.93359  1.0000
  C   C258      1.0  0.04764  0.12497  0.83156  1.0000
  Fe  Fe41      1.0  0.16742  0.34340  0.84024  1.0000
  H   H304      1.0  0.18193  0.06633  0.76225  1.0000
  S   S73       1.0  0.17639  0.36385  0.84190  1.0000
  Fe  Fe42      1.0  0.14693  0.33243  0.82509  1.0000
  S   S74       1.0  0.15840  0.30711  0.83204  1.0000
  S   S75       1.0  0.12667  0.34029  0.81250  1.0000
  Fe  Fe43      1.0  0.15680  0.31263  0.85503  1.0000
  S   S76       1.0  0.15182  0.29365  0.87636  1.0000
  H   H305      1.0  0.00194  0.22070  0.68015  1.0000
  H   H306      1.0  0.99683  0.45214  0.52686  1.0000
  S   S77       1.0  0.14346  0.33753  0.84894  1.0000
  S   S78       1.0  0.16972  0.34046  0.81582  1.0000
  H   H307      1.0  0.15323  0.14237  0.91790  1.0000
  H   H308      1.0  0.01938  0.25078  0.51885  1.0000
  Fe  Fe44      1.0  0.13412  0.10102  0.83940  1.0000
  S   S79       1.0  0.11402  0.11016  0.82704  1.0000
  S   S80       1.0  0.13366  0.08602  0.86368  1.0000
  C   C259      1.0  0.04545  0.40954  0.61308  1.0000
  Fe  Fe45      1.0  0.07178  0.09412  0.75868  1.0000
  S   S81       1.0  0.07529  0.08248  0.73891  1.0000
  S   S82       1.0  0.05551  0.11776  0.75911  1.0000
  Fe  Fe46      1.0  0.09892  0.07056  0.77162  1.0000
  S   S83       1.0  0.10502  0.05733  0.75259  1.0000
  S   S84       1.0  0.11352  0.06140  0.78980  1.0000
  Fe  Fe47      1.0  0.10088  0.08109  0.73662  1.0000
  S   S85       1.0  0.11624  0.09128  0.71431  1.0000
  Fe  Fe48      1.0  0.07898  0.05989  0.75693  1.0000
  S   S86       1.0  0.06813  0.03895  0.76274  1.0000
  S   S87       1.0  0.09716  0.09401  0.75536  1.0000
  S   S88       1.0  0.07307  0.07182  0.77709  1.0000
  C   C260      1.0  0.01122  0.18151  0.69547  1.0000
  C   C261      1.0  0.13433  0.25076  0.96656  1.0000
  S   S89       1.0  0.17925  0.09270  0.72988  1.0000
  C   C262      1.0  0.11999  0.27186  0.94880  1.0000
  S   S90       1.0  0.16341  0.17203  0.69345  1.0000
  C   C263      1.0  0.15767  0.13582  0.90873  1.0000
  H   H309      1.0  0.02917  0.31193  0.86091  1.0000
  S   S91       1.0  0.18711  0.14008  0.90731  1.0000
  H   H310      1.0  0.11219  0.30923  0.92738  1.0000
  H   H311      1.0  0.16525  0.43235  0.96912  1.0000
  Fe  Fe49      1.0  0.08185  0.19844  0.67733  1.0000
  S   S92       1.0  0.07606  0.22295  0.66269  1.0000
  S   S93       1.0  0.10071  0.17713  0.67262  1.0000
  Fe  Fe50      1.0  0.05594  0.20515  0.70501  1.0000
  S   S94       1.0  0.04773  0.23004  0.69342  1.0000
  S   S95       1.0  0.04685  0.19263  0.72937  1.0000
  Fe  Fe51      1.0  0.05083  0.22090  0.67190  1.0000
  S   S96       1.0  0.02999  0.23291  0.66053  1.0000
  Fe  Fe52      1.0  0.07319  0.23045  0.68508  1.0000
  S   S97       1.0  0.08093  0.25163  0.68566  1.0000
  S   S98       1.0  0.05678  0.19571  0.68452  1.0000
  S   S99       1.0  0.08123  0.20630  0.69872  1.0000
  Fe  Fe53      1.0  0.09466  0.30300  0.76279  1.0000
  S   S100      1.0  0.07433  0.32364  0.76298  1.0000
  S   S101      1.0  0.11825  0.30238  0.76719  1.0000
  Fe  Fe54      1.0  0.07604  0.28279  0.75634  1.0000
  S   S102      1.0  0.05410  0.30171  0.75656  1.0000
  S   S103      1.0  0.07520  0.25894  0.75423  1.0000
  Fe  Fe55      1.0  0.07044  0.31753  0.74215  1.0000
  S   S104      1.0  0.06772  0.33496  0.71928  1.0000
  Fe  Fe56      1.0  0.06015  0.30591  0.77717  1.0000
  S   S105      1.0  0.04492  0.30794  0.80076  1.0000
  S   S106      1.0  0.09218  0.29821  0.74068  1.0000
  S   S107      1.0  0.08064  0.28559  0.77825  1.0000
  H   H312      1.0  0.99410  0.15092  0.81102  1.0000
  H   H313      1.0  0.17149  0.10996  0.79099  1.0000
  H   H314      1.0  0.05629  0.42907  0.60830  1.0000
  N   N16       1.0  0.04885  0.44773  0.55272  1.0000
  H   H315      1.0  0.15928  0.04503  0.92275  1.0000
  H   H316      1.0  0.00786  0.44077  0.60557  1.0000
  C   C264      1.0  0.04089  0.22386  0.85108  1.0000
  H   H317      1.0  0.02934  0.19791  0.66899  1.0000
  C   C265      1.0  0.18486  0.06956  0.77150  1.0000
  C   C266      1.0  0.03708  0.34790  0.69030  1.0000
  C   C267      1.0  0.05064  0.34505  0.69624  1.0000
  C   C268      1.0  0.05050  0.33833  0.71217  1.0000
  C   C269      1.0  0.03662  0.33469  0.72217  1.0000
  N   N17       1.0  0.16886  0.05178  0.79201  1.0000
  H   H318      1.0  0.01170  0.42783  0.54193  1.0000
  H   H319      1.0  0.06128  0.34803  0.68843  1.0000
  H   H320      1.0  0.03628  0.32974  0.73450  1.0000
  C   C270      1.0  0.02709  0.23264  0.64218  1.0000
  C   C271      1.0  0.01318  0.24182  0.63773  1.0000
  C   C272      1.0  0.01124  0.12489  0.80278  1.0000
  H   H321      1.0  0.14650  0.20087  0.76240  1.0000
  C   C273      1.0  0.03483  0.22374  0.61771  1.0000
  C   C274      1.0  0.03796  0.22358  0.63212  1.0000
  H   H322      1.0  0.01928  0.98351  0.72883  1.0000
  H   H323      1.0  0.04476  0.25013  0.75656  1.0000
  H   H324      1.0  0.04324  0.21669  0.60998  1.0000
  H   H325      1.0  0.04872  0.21643  0.63544  1.0000
  C   C275      1.0  0.07898  0.25377  0.70474  1.0000
  C   C276      1.0  0.07449  0.24220  0.71774  1.0000
  C   C277      1.0  0.07349  0.24383  0.73290  1.0000
  C   C278      1.0  0.07636  0.25731  0.73514  1.0000
  C   C279      1.0  0.08052  0.26904  0.72216  1.0000
  C   C280      1.0  0.08211  0.26713  0.70696  1.0000
  H   H326      1.0  0.07199  0.23188  0.71614  1.0000
  H   H327      1.0  0.07045  0.23464  0.74290  1.0000
  H   H328      1.0  0.08281  0.27945  0.72379  1.0000
  H   H329      1.0  0.08569  0.27606  0.69692  1.0000
  S   S108      1.0  0.99484  0.21768  0.81942  1.0000
  C   C281      1.0  0.04550  0.27427  0.97444  1.0000
  C   C282      1.0  0.02106  0.29322  0.81700  1.0000
  C   C283      1.0  0.02710  0.30297  0.80305  1.0000
  C   C284      1.0  0.01858  0.30926  0.79127  1.0000
  C   C285      1.0  0.02133  0.22743  0.75572  1.0000
  S   S109      1.0  0.02400  0.34727  0.64826  1.0000
  H   H330      1.0  0.02761  0.28850  0.82618  1.0000
  H   H331      1.0  0.02318  0.31694  0.78056  1.0000
  H   H332      1.0  0.02917  0.32221  0.67870  1.0000
  C   C286      1.0  0.00042  0.20790  0.73012  1.0000
  C   C287      1.0  0.01674  0.20660  0.72586  1.0000
  C   C288      1.0  0.02657  0.19401  0.73374  1.0000
  C   C289      1.0  0.02013  0.18262  0.74565  1.0000
  C   C290      1.0  0.00389  0.18367  0.74952  1.0000
  C   C291      1.0  0.15901  0.03498  0.85151  1.0000
  H   H333      1.0  0.02166  0.21556  0.71683  1.0000
  H   H334      1.0  0.02772  0.17287  0.75175  1.0000
  C   C292      1.0  0.17363  0.13325  0.90158  1.0000
  H   H335      1.0  0.13020  0.29825  0.93334  1.0000
  H   H336      1.0  0.99992  0.22266  0.55547  1.0000
  C   C293      1.0  0.14591  0.17270  0.68821  1.0000
  C   C294      1.0  0.14150  0.15922  0.68802  1.0000
  C   C295      1.0  0.12761  0.16057  0.68318  1.0000
  C   C296      1.0  0.11793  0.17537  0.67896  1.0000
  C   C297      1.0  0.12222  0.18876  0.67952  1.0000
  C   C298      1.0  0.13627  0.18743  0.68385  1.0000
  H   H337      1.0  0.14884  0.14781  0.69141  1.0000
  H   H338      1.0  0.12432  0.15016  0.68282  1.0000
  H   H339      1.0  0.11498  0.20020  0.67603  1.0000
  H   H340      1.0  0.13982  0.19790  0.68356  1.0000
  C   C299      1.0  0.07583  0.02453  0.75152  1.0000
  C   C300      1.0  0.07115  0.01021  0.75732  1.0000
  H   H341      1.0  0.13183  0.13446  0.80221  1.0000
  H   H342      1.0  0.08858  0.25126  0.96357  1.0000
  C   C301      1.0  0.09072  0.01587  0.72764  1.0000
  C   C302      1.0  0.08584  0.02728  0.73675  1.0000
  H   H343      1.0  0.06813  0.10520  0.80299  1.0000
  C   C303      1.0  0.06050  0.44338  0.56275  1.0000
  H   H344      1.0  0.09814  0.01816  0.71606  1.0000
  H   H345      1.0  0.08944  0.03835  0.73217  1.0000
  C   C304      1.0  0.03566  0.11789  0.76151  1.0000
  C   C305      1.0  0.02497  0.13224  0.75884  1.0000
  C   C306      1.0  0.00883  0.13276  0.76217  1.0000
  C   C307      1.0  0.00331  0.11893  0.76829  1.0000
  C   C308      1.0  0.01407  0.10451  0.77034  1.0000
  C   C309      1.0  0.03025  0.10398  0.76694  1.0000
  H   H346      1.0  0.02914  0.14301  0.75438  1.0000
  H   H347      1.0  0.00068  0.14386  0.76001  1.0000
  H   H348      1.0  0.00985  0.09377  0.77494  1.0000
  H   H349      1.0  0.03847  0.09284  0.76894  1.0000
  C   C310      1.0  0.13392  0.09163  0.71829  1.0000
  C   C311      1.0  0.14083  0.07926  0.72903  1.0000
  C   C312      1.0  0.15499  0.07951  0.73219  1.0000
  C   C313      1.0  0.16193  0.09241  0.72514  1.0000
  C   C314      1.0  0.15491  0.10492  0.71458  1.0000
  C   C315      1.0  0.14103  0.10440  0.71096  1.0000
  H   H350      1.0  0.13539  0.06937  0.73469  1.0000
  H   H351      1.0  0.16042  0.06979  0.74032  1.0000
  H   H352      1.0  0.16019  0.11496  0.70915  1.0000
  H   H353      1.0  0.13557  0.11406  0.70279  1.0000
  C   C316      1.0  0.11297  0.09642  0.81737  1.0000
  C   C317      1.0  0.10414  0.10105  0.80580  1.0000
  C   C318      1.0  0.10397  0.09027  0.79744  1.0000
  C   C319      1.0  0.11252  0.07485  0.80076  1.0000
  C   C320      1.0  0.12085  0.07011  0.81273  1.0000
  C   C321      1.0  0.12117  0.08090  0.82095  1.0000
  H   H354      1.0  0.09772  0.11304  0.80308  1.0000
  H   H355      1.0  0.09740  0.09394  0.78831  1.0000
  H   H356      1.0  0.12710  0.05809  0.81561  1.0000
  H   H357      1.0  0.12758  0.07715  0.83020  1.0000
  C   C322      1.0  0.12420  0.32907  0.80059  1.0000
  C   C323      1.0  0.11009  0.33291  0.79544  1.0000
  C   C324      1.0  0.10783  0.32441  0.78575  1.0000
  C   C325      1.0  0.11983  0.31218  0.78084  1.0000
  C   C326      1.0  0.13387  0.30825  0.78611  1.0000
  C   C327      1.0  0.13600  0.31654  0.79607  1.0000
  H   H358      1.0  0.10091  0.34261  0.79884  1.0000
  H   H359      1.0  0.09701  0.32764  0.78169  1.0000
  H   H360      1.0  0.14324  0.29886  0.78232  1.0000
  H   H361      1.0  0.14694  0.31349  0.79991  1.0000
  C   C328      1.0  0.13389  0.24663  0.94166  1.0000
  S   S110      1.0  0.00088  0.27223  0.56857  1.0000
  H   H362      1.0  0.14579  0.22942  0.95851  1.0000
  H   H363      1.0  0.16314  0.24161  0.87858  1.0000
  H   H364      1.0  0.18838  0.03201  0.79120  1.0000
  Fe  Fe57      1.0  0.01417  0.47568  0.59154  1.0000
  H   H365      1.0  0.07821  0.01018  0.78667  1.0000
  C   C329      1.0  0.16097  0.01024  0.84475  1.0000
  N   N18       1.0  0.16664  0.06451  0.90504  1.0000
  S   S111      1.0  0.18718  0.11182  0.81532  1.0000
  H   H366      1.0  0.06406  0.24031  0.87297  1.0000
  H   H367      1.0  0.13787  0.45223  0.86144  1.0000
  H   H368      1.0  0.03929  0.03124  0.75109  1.0000
  C   C330      1.0  0.06231  0.29176  0.97215  1.0000
  H   H369      1.0  0.01482  0.31278  0.70474  1.0000
  C   C331      1.0  0.03364  0.23516  0.75116  1.0000
  C   C332      1.0  0.06337  0.21116  0.88986  1.0000
  H   H370      1.0  0.05104  0.24823  0.78013  1.0000
  C   C333      1.0  0.16832  0.44224  0.97179  1.0000
  H   H371      1.0  0.99413  0.44275  0.57109  1.0000
  C   C334      1.0  0.09970  0.30122  0.89845  1.0000
  C   C335      1.0  0.10859  0.28602  0.89814  1.0000
  C   C336      1.0  0.12476  0.28367  0.89163  1.0000
  C   C337      1.0  0.13186  0.29654  0.88508  1.0000
  C   C338      1.0  0.12293  0.31168  0.88538  1.0000
  C   C339      1.0  0.10690  0.31400  0.89226  1.0000
  H   H372      1.0  0.10301  0.27614  0.90289  1.0000
  H   H373      1.0  0.13170  0.27195  0.89136  1.0000
  H   H374      1.0  0.12844  0.32161  0.88055  1.0000
  H   H375      1.0  0.10002  0.32575  0.89262  1.0000
  C   C340      1.0  0.10259  0.22330  0.91331  1.0000
  C   C341      1.0  0.10898  0.23647  0.90994  1.0000
  C   C342      1.0  0.12512  0.23464  0.90852  1.0000
  C   C343      1.0  0.13479  0.21963  0.91082  1.0000
  C   C344      1.0  0.12839  0.20646  0.91424  1.0000
  C   C345      1.0  0.11230  0.20830  0.91537  1.0000
  H   H376      1.0  0.10151  0.24806  0.90824  1.0000
  H   H377      1.0  0.13008  0.24483  0.90580  1.0000
  H   H378      1.0  0.13581  0.19486  0.91591  1.0000
  H   H379      1.0  0.10736  0.19810  0.91799  1.0000
  C   C346      1.0  0.17331  0.37916  0.88696  1.0000
  C   C347      1.0  0.16607  0.36714  0.88761  1.0000
  C   C348      1.0  0.16706  0.36218  0.87395  1.0000
  C   C349      1.0  0.17505  0.36942  0.85947  1.0000
  H   H380      1.0  0.01521  0.24988  0.49406  1.0000
  C   C350      1.0  0.00104  0.17833  0.71041  1.0000
  H   H381      1.0  0.15966  0.36163  0.89875  1.0000
  H   H382      1.0  0.16146  0.35290  0.87461  1.0000
  H   H383      1.0  0.15798  0.06080  0.77188  1.0000
  C   C351      1.0  0.11853  0.21072  0.95807  1.0000
  H   H384      1.0  0.12180  0.13489  0.78163  1.0000
  H   H385      1.0  0.14867  0.07165  0.92457  1.0000
  H   H386      1.0  0.00181  0.28220  0.82992  1.0000
  C   C352      1.0  0.12524  0.26595  0.96312  1.0000
  H   H387      1.0  0.02278  0.20041  0.53395  1.0000
  C   C353      1.0  0.01924  0.15428  0.71865  1.0000
  H   H388      1.0  0.12625  0.03536  0.84004  1.0000
  H   H389      1.0  0.13618  0.36061  0.77075  1.0000
  C   C354      1.0  0.02143  0.24140  0.54744  1.0000
  S   S112      1.0  0.15664  0.08652  0.82842  1.0000
  H   H390      1.0  0.07849  0.03360  0.79230  1.0000
  C   C355      1.0  0.02655  0.27205  0.77539  1.0000
  H   H391      1.0  0.99692  0.16264  0.73300  1.0000
  C   C356      1.0  0.17563  0.44838  0.86591  1.0000
  H   H392      1.0  0.07290  0.23131  0.97210  1.0000
  C   C357      1.0  0.03209  0.43683  0.60646  1.0000
  C   C358      1.0  0.01826  0.43205  0.60782  1.0000
  S   S113      1.0  0.13760  0.00458  0.83422  1.0000
  C   C359      1.0  0.04557  0.42550  0.60931  1.0000
  H   H393      1.0  0.12269  0.29191  0.92052  1.0000
  H   H394      1.0  0.14928  0.46706  0.95611  1.0000
  C   C360      1.0  0.03933  0.31224  0.68043  1.0000
  C   C361      1.0  0.17210  0.42721  0.85687  1.0000
  H   H395      1.0  0.01773  0.22441  0.89371  1.0000
  H   H396      1.0  0.09752  0.30814  0.95446  1.0000
  H   H397      1.0  0.03368  0.99244  0.69517  1.0000
  N   N19       1.0  0.02573  0.25591  0.78451  1.0000
  N   N20       1.0  0.02354  0.22548  0.54481  1.0000
  C   C362      1.0  0.16985  0.04802  0.91386  1.0000
  H   H398      1.0  0.02634  0.15752  0.79214  1.0000
  H   H399      1.0  0.17875  0.01534  0.85297  1.0000
  C   C363      1.0  0.10757  0.01727  0.78303  1.0000
  H   H400      1.0  0.03039  0.24769  0.53916  1.0000
  C   C364      1.0  0.00172  0.46885  0.50513  1.0000
  H   H401      1.0  0.14651  0.05075  0.78876  1.0000
  H   H402      1.0  0.10526  0.22400  0.70729  1.0000
  H   H403      1.0  0.07226  0.21177  0.87864  1.0000
  C   C365      1.0  0.08578  0.00164  0.73340  1.0000
  H   H404      1.0  0.02972  0.46740  0.54768  1.0000
  C   C366      1.0  0.03180  0.00055  0.74199  1.0000
  H   H405      1.0  0.16563  0.41877  0.85712  1.0000
  C   C367      1.0  0.14575  0.19963  0.75113  1.0000
  C   C368      1.0  0.15971  0.07464  0.91665  1.0000
  C   C369      1.0  0.11881  0.37114  0.75668  1.0000
  H   H406      1.0  0.11445  0.02661  0.77857  1.0000
  H   H407      1.0  0.09216  0.04218  0.79595  1.0000
  C   C370      1.0  0.03173  0.40463  0.61452  1.0000
  H   H408      1.0  0.15773  0.19002  0.89200  1.0000
  C   C371      1.0  0.18159  0.38619  0.87252  1.0000
  C   C372      1.0  0.02509  0.22321  0.85560  1.0000
  C   C373      1.0  0.16997  0.13374  0.66310  1.0000
  C   C374      1.0  0.12248  0.11765  0.76960  1.0000
  C   C375      1.0  0.03870  0.46311  0.55500  1.0000
  C   C376      1.0  0.02527  0.30322  0.70674  1.0000
  H   H409      1.0  0.03586  0.32379  0.83250  1.0000
  C   C377      1.0  0.00797  0.26302  0.89988  1.0000
  H   H410      1.0  0.06187  0.24022  0.89305  1.0000
  H   H411      1.0  0.99904  0.33787  0.61078  1.0000
  H   H412      1.0  0.17333  0.03957  0.90608  1.0000
  N   N21       1.0  0.01766  0.13697  0.80556  1.0000
  H   H413      1.0  0.04558  0.47233  0.55198  1.0000
  H   H414      1.0  0.13818  0.24644  0.97756  1.0000
  H   H415      1.0  0.18689  0.14438  0.84921  1.0000
  C   C378      1.0  0.03193  0.12946  0.81201  1.0000
  H   H416      1.0  0.17998  0.48039  0.93610  1.0000
  C   C379      1.0  0.04478  0.11964  0.80384  1.0000
  C   C380      1.0  0.08835  0.25027  0.97608  1.0000
  H   H417      1.0  0.01906  0.27841  0.86096  1.0000
  H   H418      1.0  0.99159  0.18460  0.67725  1.0000
  S   S114      1.0  0.99944  0.47076  0.57815  1.0000
  H   H419      1.0  0.12156  0.26552  0.92682  1.0000
  C   C381      1.0  0.15940  0.45973  0.94937  1.0000
  C   C382      1.0  0.99317  0.25652  0.88482  1.0000
  H   H420      1.0  0.06835  0.43171  0.56185  1.0000
  C   C383      1.0  0.13864  0.24114  0.95586  1.0000
  H   H421      1.0  0.17195  0.16200  0.84671  1.0000
  C   C384      1.0  0.02587  0.17067  0.69284  1.0000
  C   C385      1.0  0.99654  0.25563  0.89923  1.0000
  H   H422      1.0  0.15609  0.05734  0.81436  1.0000
  H   H423      1.0  0.04439  0.11736  0.79292  1.0000
  S   S115      1.0  0.03305  0.38440  0.61693  1.0000
  H   H424      1.0  0.12069  0.20939  0.94612  1.0000
  H   H425      1.0  0.14559  0.46114  0.88157  1.0000
  H   H426      1.0  0.12627  0.09890  0.75791  1.0000
  H   H427      1.0  0.15334  0.41224  0.88264  1.0000
  C   C386      1.0  0.03393  0.00020  0.70263  1.0000
  H   H428      1.0  0.17293  0.26134  0.89555  1.0000
  H   H429      1.0  0.06322  0.00811  0.76863  1.0000
  H   H430      1.0  0.03124  0.14210  0.78187  1.0000
  Fe  Fe58      1.0  0.16802  0.10254  0.83397  1.0000
  H   H431      1.0  0.14342  0.06382  0.90377  1.0000
  H   H432      1.0  0.05465  0.03385  0.72386  1.0000
  N   N22       1.0  0.15252  0.12881  0.78414  1.0000
  H   H433      1.0  0.01942  0.11864  0.79380  1.0000
  H   H434      1.0  0.01898  0.22265  0.84714  1.0000
  H   H435      1.0  0.14451  0.11589  0.80730  1.0000
  H   H436      1.0  0.18353  0.07891  0.69724  1.0000
  H   H437      1.0  0.02478  0.13936  0.83303  1.0000
  C   C387      1.0  0.17284  0.10638  0.67632  1.0000
  C   C388      1.0  0.12930  0.12526  0.77652  1.0000
  H   H438      1.0  0.00019  0.13004  0.79839  1.0000
  C   C389      1.0  0.18658  0.42709  0.84627  1.0000
  C   C390      1.0  0.00151  0.26454  0.87103  1.0000
  C   C391      1.0  0.15494  0.05865  0.78487  1.0000
  C   C392      1.0  0.15090  0.14540  0.77558  1.0000
  H   H439      1.0  0.15183  0.07878  0.88935  1.0000
  Fe  Fe59      1.0  0.99623  0.25082  0.58700  1.0000
  H   H440      1.0  0.17490  0.24065  0.90043  1.0000
  H   H441      1.0  0.17598  0.21912  0.84869  1.0000
  C   C393      1.0  0.08058  0.00183  0.79723  1.0000
  H   H442      1.0  0.15652  0.14624  0.76292  1.0000
  H   H443      1.0  0.01601  0.20996  0.69191  1.0000
  C   C394      1.0  0.01978  0.41424  0.56273  1.0000
  H   H444      1.0  0.04071  0.00900  0.69492  1.0000
  H   H445      1.0  0.15061  0.12271  0.67512  1.0000
  C   C395      1.0  0.13149  0.10491  0.76319  1.0000
  H   H446      1.0  0.99916  0.17461  0.75834  1.0000
  H   H447      1.0  0.02166  0.00660  0.70648  1.0000
  C   C396      1.0  0.01281  0.25719  0.79861  1.0000
  C   C397      1.0  0.14730  0.09980  0.76361  1.0000
  H   H448      1.0  0.16153  0.41842  0.89504  1.0000
  H   H449      1.0  0.02399  0.26572  0.59142  1.0000
  H   H450      1.0  0.06904  0.30031  0.96498  1.0000
  H   H451      1.0  0.06626  0.45706  0.53344  1.0000
  H   H452      1.0  0.14415  0.19472  0.71077  1.0000
  C   C398      1.0  0.00482  0.14593  0.81600  1.0000
  C   C399      1.0  0.02952  0.41270  0.57273  1.0000
  H   H453      1.0  0.14843  0.06998  0.78822  1.0000
  S   S116      1.0  0.01725  0.23319  0.59501  1.0000
  N   N23       1.0  0.15098  0.43738  0.87848  1.0000
  S   S117      1.0  0.17425  0.41783  0.92333  1.0000
  C   C400      1.0  0.99841  0.29920  0.62331  1.0000
  C   C401      1.0  0.15314  0.12072  0.89260  1.0000
  C   C402      1.0  0.16591  0.20599  0.87094  1.0000
  H   H454      1.0  0.05516  0.28864  0.95267  1.0000
  H   H455      1.0  0.03735  0.35297  0.67799  1.0000
  C   C403      1.0  0.01596  0.27141  0.88610  1.0000
  H   H456      1.0  0.02978  0.40308  0.58296  1.0000
  C   C404      1.0  0.02091  0.23303  0.61323  1.0000
  S   S118      1.0  0.17740  0.45982  0.90246  1.0000
  N   N24       1.0  0.17281  0.45403  0.95734  1.0000
  H   H457      1.0  0.00768  0.41213  0.61240  1.0000
  H   H458      1.0  0.03241  0.46237  0.56745  1.0000
  H   H459      1.0  0.10216  0.37868  0.74220  1.0000
  H   H460      1.0  0.04743  0.31692  0.68425  1.0000
  S   S119      1.0  0.02934  0.28192  0.88648  1.0000
  H   H461      1.0  0.13524  0.13101  0.91029  1.0000
  S   S120      1.0  0.14551  0.11834  0.84287  1.0000
  C   C405      1.0  0.14751  0.12936  0.90440  1.0000
  H   H462      1.0  0.17228  0.45681  0.87322  1.0000
  Fe  Fe60      1.0  0.00607  0.33962  0.64109  1.0000
  C   C406      1.0  0.11089  0.36889  0.74657  1.0000
  H   H463      1.0  0.06101  0.22504  0.85797  1.0000
  C   C407      1.0  0.15529  0.18681  0.74510  1.0000
  C   C408      1.0  0.02036  0.31513  0.85393  1.0000
  N   N25       1.0  0.09881  0.01704  0.79949  1.0000
  C   C409      1.0  0.03380  0.13198  0.82608  1.0000
  C   C410      1.0  0.08676  0.03180  0.79999  1.0000
  H   H464      1.0  0.04605  0.42160  0.57809  1.0000
  H   H465      1.0  0.99944  0.24933  0.62007  1.0000
  C   C411      1.0  0.18080  0.25019  0.89280  1.0000
  H   H466      1.0  0.04725  0.22378  0.91391  1.0000
  H   H467      1.0  0.17238  0.16657  0.88225  1.0000
  C   C412      1.0  0.15427  0.10737  0.77036  1.0000
  C   C413      1.0  0.02132  0.22558  0.52924  1.0000
  H   H468      1.0  0.14069  0.42092  0.89821  1.0000
  H   H469      1.0  0.09969  0.01970  0.77481  1.0000
  S   S121      1.0  0.14031  0.11181  0.88833  1.0000
  N   N26       1.0  0.11024  0.28781  0.94477  1.0000
  C   C414      1.0  0.11020  0.01664  0.80868  1.0000
  Fe  Fe61      1.0  0.17861  0.15047  0.70557  1.0000
  C   C415      1.0  0.10531  0.29644  0.95763  1.0000
  H   H470      1.0  0.11613  0.02669  0.80376  1.0000
  H   H471      1.0  0.16198  0.17532  0.72581  1.0000
  C   C416      1.0  0.18951  0.10398  0.67228  1.0000
  H   H472      1.0  0.12363  0.24162  0.72727  1.0000
  C   C417      1.0  0.01932  0.42664  0.54969  1.0000
  H   H473      1.0  0.01451  0.20484  0.55821  1.0000
  C   C418      1.0  0.16900  0.11866  0.88505  1.0000
  N   N27       1.0  0.08339  0.14401  0.71987  1.0000
  C   C419      1.0  0.06973  0.15012  0.73160  1.0000
  C   C420      1.0  0.08102  0.15241  0.70392  1.0000
  C   C421      1.0  0.08365  0.12727  0.72144  1.0000
  C   C422      1.0  0.09788  0.14660  0.72227  1.0000
  C   C423      1.0  0.09966  0.16206  0.72043  1.0000
  C   C424      1.0  0.11047  0.13413  0.72655  1.0000
  C   C425      1.0  0.11329  0.16488  0.72237  1.0000
  C   C426      1.0  0.12401  0.13712  0.72859  1.0000
  C   C427      1.0  0.12546  0.15244  0.72640  1.0000
  H   H474      1.0  0.06790  0.16294  0.73036  1.0000
  H   H475      1.0  0.05859  0.14800  0.73056  1.0000
  H   H476      1.0  0.07128  0.14438  0.74375  1.0000
  H   H477      1.0  0.07884  0.16533  0.70225  1.0000
  H   H478      1.0  0.07073  0.15005  0.70134  1.0000
  H   H479      1.0  0.09155  0.14887  0.69481  1.0000
  H   H480      1.0  0.08453  0.12038  0.73343  1.0000
  H   H481      1.0  0.07266  0.12568  0.71952  1.0000
  H   H482      1.0  0.09357  0.12191  0.71281  1.0000
  H   H483      1.0  0.09058  0.17210  0.71723  1.0000
  H   H484      1.0  0.11025  0.12197  0.72819  1.0000
  H   H485      1.0  0.11459  0.17679  0.72035  1.0000
  H   H486      1.0  0.13356  0.12747  0.73163  1.0000
  H   H487      1.0  0.13615  0.15471  0.72750  1.0000
  C   C428      1.0  0.05770  0.44947  0.53615  1.0000
  H   H488      1.0  0.12240  0.27276  0.97194  1.0000
  H   H489      1.0  0.11552  0.29864  0.96053  1.0000
  C   C429      1.0  0.17767  0.03738  0.78627  1.0000
  C   C430      1.0  0.01703  0.23911  0.50285  1.0000
  C   C431      1.0  0.04018  0.22394  0.90559  1.0000
  C   C432      1.0  0.03937  0.02325  0.74414  1.0000
  H   H490      1.0  0.01581  0.27788  0.77062  1.0000
  H   H491      1.0  0.14047  0.21916  0.69551  1.0000
  C   C433      1.0  0.01839  0.21134  0.51123  1.0000
  H   H492      1.0  0.04183  0.20439  0.54549  1.0000
  C   C434      1.0  0.02481  0.22404  0.88207  1.0000
  C   C435      1.0  0.14421  0.19646  0.72201  1.0000
  H   H493      1.0  0.99649  0.19918  0.79797  1.0000
  H   H494      1.0  0.01891  0.29327  0.57670  1.0000
  C   C436      1.0  0.02860  0.43755  0.54664  1.0000
  H   H495      1.0  0.00203  0.23938  0.78923  1.0000
  H   H496      1.0  0.18363  0.43586  0.94439  1.0000
  H   H497      1.0  0.00469  0.22311  0.87445  1.0000
  C   C437      1.0  0.14546  0.12040  0.77703  1.0000
  C   C438      1.0  0.00643  0.28975  0.81917  1.0000
  H   H498      1.0  0.17421  0.15105  0.86593  1.0000
  S   S122      1.0  0.00604  0.34682  0.69343  1.0000
  C   C439      1.0  0.99774  0.29632  0.80752  1.0000
  C   C440      1.0  0.01015  0.24210  0.62332  1.0000
  H   H499      1.0  0.10440  0.01746  0.82102  1.0000
  C   C441      1.0  0.15163  0.42162  0.88898  1.0000
  C   C442      1.0  0.02300  0.33784  0.71631  1.0000
  C   C443      1.0  0.18768  0.47318  0.90372  1.0000
  H   H500      1.0  0.00958  0.24862  0.54614  1.0000
  H   H501      1.0  0.01187  0.24550  0.80640  1.0000
  H   H502      1.0  0.99984  0.46835  0.54338  1.0000
  H   H503      1.0  0.12858  0.22070  0.74790  1.0000
  H   H504      1.0  0.01474  0.26421  0.80586  1.0000
  H   H505      1.0  0.01227  0.33513  0.72418  1.0000
  C   C444      1.0  0.01007  0.22921  0.76942  1.0000
  H   H506      1.0  0.11871  0.20555  0.70825  1.0000
  H   H507      1.0  0.14054  0.98540  0.70848  1.0000
  N   N28       1.0  0.10497  0.35190  0.73224  1.0000
  C   C445      1.0  0.10765  0.33525  0.73141  1.0000
  C   C446      1.0  0.08785  0.35745  0.73815  1.0000
  C   C447      1.0  0.10956  0.36101  0.71610  1.0000
  C   C448      1.0  0.11401  0.35423  0.74239  1.0000
  C   C449      1.0  0.12622  0.34230  0.74819  1.0000
  C   C450      1.0  0.13419  0.34477  0.75812  1.0000
  H   H508      1.0  0.10517  0.32767  0.74332  1.0000
  H   H509      1.0  0.09993  0.33361  0.72462  1.0000
  H   H510      1.0  0.11990  0.33066  0.72551  1.0000
  H   H511      1.0  0.08437  0.35264  0.75096  1.0000
  H   H512      1.0  0.08059  0.35388  0.73221  1.0000
  H   H513      1.0  0.08415  0.37040  0.73616  1.0000
  H   H514      1.0  0.12233  0.35718  0.71120  1.0000
  H   H515      1.0  0.10297  0.35955  0.70810  1.0000
  H   H516      1.0  0.10719  0.37376  0.71569  1.0000
  H   H517      1.0  0.12960  0.33079  0.74561  1.0000
  H   H518      1.0  0.14314  0.33535  0.76279  1.0000
  C   C451      1.0  0.18219  0.48086  0.97778  1.0000
  H   H519      1.0  0.06974  0.21053  0.89896  1.0000
  C   C452      1.0  0.02502  0.28996  0.58622  1.0000
  H   H520      1.0  0.15428  0.08993  0.75861  1.0000
  H   H521      1.0  0.01779  0.20051  0.50887  1.0000
  H   H522      1.0  0.12656  0.44104  0.87807  1.0000
  H   H523      1.0  0.07071  0.10998  0.82755  1.0000
  H   H524      1.0  0.17345  0.11206  0.87592  1.0000
  C   C453      1.0  0.01206  0.21764  0.55743  1.0000
  C   C454      1.0  0.16733  0.01976  0.85005  1.0000
  H   H525      1.0  0.05685  0.28289  0.68503  1.0000
  C   C455      1.0  0.09572  0.28689  0.94092  1.0000
  H   H526      1.0  0.04527  0.30939  0.66879  1.0000
  H   H527      1.0  0.16792  0.07348  0.92419  1.0000
  C   C456      1.0  0.02412  0.32188  0.83801  1.0000
  H   H528      1.0  0.10730  0.23198  0.73616  1.0000
  H   H529      1.0  0.07968  0.03192  0.81210  1.0000
  C   C457      1.0  0.09096  0.00364  0.80542  1.0000
  H   H530      1.0  0.99190  0.30315  0.67073  1.0000
  H   H531      1.0  0.11591  0.00583  0.78202  1.0000
  C   C458      1.0  0.13829  0.44073  0.86993  1.0000
  H   H532      1.0  0.05952  0.19993  0.89263  1.0000
  C   C459      1.0  0.16330  0.12107  0.67176  1.0000
  N   N29       1.0  0.04977  0.22472  0.88934  1.0000
  S   S123      1.0  0.16991  0.13803  0.73022  1.0000
  H   H533      1.0  0.02060  0.21993  0.74868  1.0000
  C   C460      1.0  0.13551  0.21102  0.74257  1.0000
  H   H534      1.0  0.04860  0.22227  0.53709  1.0000
  H   H535      1.0  0.13745  0.23912  0.93330  1.0000
  C   C461      1.0  0.00196  0.29537  0.67509  1.0000
  H   H536      1.0  0.14373  0.23302  0.70428  1.0000
  N   N30       1.0  0.04705  0.27698  0.62581  1.0000
  C   C462      1.0  0.05349  0.28949  0.62774  1.0000
  C   C463      1.0  0.03507  0.27301  0.64017  1.0000
  C   C464      1.0  0.06012  0.26299  0.62457  1.0000
  C   C465      1.0  0.03980  0.28162  0.61200  1.0000
  C   C466      1.0  0.03667  0.29733  0.60329  1.0000
  C   C467      1.0  0.03502  0.27037  0.60729  1.0000
  C   C468      1.0  0.02945  0.30133  0.59056  1.0000
  C   C469      1.0  0.02779  0.27450  0.59457  1.0000
  C   C470      1.0  0.17925  0.12466  0.88973  1.0000
  H   H537      1.0  0.04403  0.29985  0.63032  1.0000
  H   H538      1.0  0.05943  0.28547  0.63779  1.0000
  H   H539      1.0  0.06222  0.29342  0.61704  1.0000
  H   H540      1.0  0.02549  0.28342  0.64212  1.0000
  H   H541      1.0  0.04021  0.26852  0.65076  1.0000
  H   H542      1.0  0.02946  0.26391  0.63952  1.0000
  H   H543      1.0  0.06860  0.26487  0.61310  1.0000
  H   H544      1.0  0.06672  0.26010  0.63403  1.0000
  H   H545      1.0  0.05592  0.25224  0.62584  1.0000
  H   H546      1.0  0.03912  0.30688  0.60640  1.0000
  H   H547      1.0  0.03649  0.25832  0.61363  1.0000
  C   C471      1.0  0.00112  0.31375  0.62297  1.0000
  H   H548      1.0  0.16747  0.99856  0.84358  1.0000
  H   H549      1.0  0.15552  0.44663  0.89580  1.0000
  N   N31       1.0  0.09267  0.31009  0.85168  1.0000
  C   C472      1.0  0.08310  0.32057  0.86242  1.0000
  C   C473      1.0  0.10206  0.29623  0.86057  1.0000
  C   C474      1.0  0.10382  0.31879  0.83960  1.0000
  C   C475      1.0  0.08236  0.30483  0.84506  1.0000
  C   C476      1.0  0.07035  0.29728  0.85517  1.0000
  C   C477      1.0  0.08423  0.30640  0.82867  1.0000
  C   C478      1.0  0.06081  0.29169  0.84926  1.0000
  C   C479      1.0  0.07455  0.30084  0.82291  1.0000
  C   C480      1.0  0.06290  0.29349  0.83317  1.0000
  H   H550      1.0  0.07587  0.31443  0.87310  1.0000
  H   H551      1.0  0.09058  0.32548  0.86682  1.0000
  H   H552      1.0  0.07506  0.33058  0.85641  1.0000
  H   H553      1.0  0.09462  0.29008  0.87107  1.0000
  H   H554      1.0  0.11079  0.29956  0.86481  1.0000
  H   H555      1.0  0.10871  0.28764  0.85313  1.0000
  H   H556      1.0  0.09756  0.32935  0.83229  1.0000
  H   H557      1.0  0.11112  0.32305  0.84489  1.0000
  H   H558      1.0  0.11231  0.31132  0.83176  1.0000
  H   H559      1.0  0.06831  0.29554  0.86775  1.0000
  H   H560      1.0  0.09311  0.31181  0.82003  1.0000
  H   H561      1.0  0.05171  0.28597  0.85721  1.0000
  H   H562      1.0  0.07605  0.30226  0.81035  1.0000
  H   H563      1.0  0.05543  0.28922  0.82862  1.0000
  S   S124      1.0  0.01062  0.31534  0.63672  1.0000
  C   C481      1.0  0.03963  0.21677  0.54641  1.0000
  H   H564      1.0  0.00057  0.22305  0.77296  1.0000
  S   S125      1.0  0.16728  0.04675  0.85804  1.0000
  C   C482      1.0  0.16296  0.04706  0.80921  1.0000
  C   C483      1.0  0.99153  0.29761  0.61193  1.0000
  C   C484      1.0  0.04877  0.22449  0.86204  1.0000
  C   C485      1.0  0.99110  0.19559  0.68066  1.0000
  C   C486      1.0  0.11921  0.29719  0.93094  1.0000
  C   C487      1.0  0.18387  0.19425  0.84997  1.0000
  Fe  Fe62      1.0  0.01520  0.37116  0.63396  1.0000
  C   C488      1.0  0.00536  0.31225  0.86095  1.0000
  C   C489      1.0  0.18128  0.06824  0.89415  1.0000
  C   C490      1.0  0.18389  0.06798  0.79876  1.0000
  H   H565      1.0  0.00470  0.24889  0.64540  1.0000
  Fe  Fe63      1.0  0.14708  0.10228  0.86631  1.0000
  H   H566      1.0  0.01214  0.21894  0.56925  1.0000
  H   H567      1.0  0.08790  0.29867  0.93816  1.0000
  C   C491      1.0  0.14668  0.44890  0.88860  1.0000
  H   H568      1.0  0.04578  0.24984  0.88354  1.0000
  C   C492      1.0  0.02108  0.21146  0.52561  1.0000
  H   H569      1.0  0.13947  0.19378  0.96276  1.0000
  C   C493      1.0  0.14612  0.01583  0.84114  1.0000
  H   H570      1.0  0.00340  0.30687  0.87330  1.0000
  H   H571      1.0  0.01970  0.18609  0.66319  1.0000
  C   C494      1.0  0.15443  0.18519  0.73061  1.0000
  C   C495      1.0  0.11567  0.23556  0.72499  1.0000
  H   H572      1.0  0.06805  0.45205  0.55950  1.0000
  S   S126      1.0  0.17064  0.08778  0.85760  1.0000
  N   N32       1.0  0.12457  0.22203  0.71774  1.0000
  C   C496      1.0  0.01807  0.41593  0.61193  1.0000
  C   C497      1.0  0.13032  0.35903  0.76258  1.0000
  H   H573      1.0  0.04058  0.23629  0.79665  1.0000
  C   C498      1.0  0.18624  0.13174  0.65877  1.0000
  C   C499      1.0  0.16948  0.12212  0.78380  1.0000
  C   C500      1.0  0.03485  0.24457  0.76041  1.0000
  C   C501      1.0  0.01111  0.23865  0.77872  1.0000
  C   C502      1.0  0.01947  0.23943  0.51727  1.0000
  Fe  Fe64      1.0  0.15727  0.07283  0.85291  1.0000
  H   H574      1.0  0.01588  0.33099  0.81662  1.0000
  C   C503      1.0  0.02369  0.24653  0.77455  1.0000
  H   H575      1.0  0.02218  0.14378  0.72741  1.0000
  C   C504      1.0  0.19011  0.44816  0.85526  1.0000
  C   C505      1.0  0.05563  0.23938  0.88447  1.0000
  C   C506      1.0  0.01708  0.22336  0.87102  1.0000
  N   N33       1.0  0.04082  0.99113  0.71632  1.0000
  C   C507      1.0  0.00563  0.27957  0.67470  1.0000
  H   H576      1.0  0.99837  0.27503  0.67015  1.0000
  H   H577      1.0  0.18242  0.08807  0.90288  1.0000
  C   C508      1.0  0.02971  0.15725  0.70430  1.0000
  H   H578      1.0  0.04244  0.25517  0.79773  1.0000
  H   H579      1.0  0.02762  0.27948  0.78276  1.0000
  C   C509      1.0  0.02188  0.14801  0.79047  1.0000
  S   S127      1.0  0.99223  0.25134  0.83883  1.0000
  H   H580      1.0  0.01371  0.22516  0.48895  1.0000
  C   C510      1.0  0.00378  0.30608  0.79360  1.0000
  H   H581      1.0  0.12736  0.23781  0.69498  1.0000
  C   C511      1.0  0.16836  0.25196  0.87217  1.0000
  C   C512      1.0  0.05997  0.11535  0.82328  1.0000
  H   H582      1.0  0.13767  0.05224  0.84899  1.0000
  H   H583      1.0  0.17264  0.04079  0.81546  1.0000
  C   C513      1.0  0.04800  0.02473  0.72876  1.0000
  H   H584      1.0  0.99916  0.26514  0.85989  1.0000
  C   C514      1.0  0.14435  0.12820  0.80078  1.0000
  H   H585      1.0  0.09848  0.29000  0.96846  1.0000
  H   H586      1.0  0.17647  0.12219  0.77164  1.0000
  C   C515      1.0  0.18077  0.15512  0.85384  1.0000
  H   H587      1.0  0.08886  0.27955  0.95082  1.0000
  C   C516      1.0  0.13777  0.03099  0.84276  1.0000
  C   C517      1.0  0.16622  0.43777  0.86713  1.0000
  H   H588      1.0  0.04241  0.23366  0.74051  1.0000
  H   H589      1.0  0.99701  0.31120  0.78461  1.0000
  H   H590      1.0  0.03457  0.17227  0.68204  1.0000
  H   H591      1.0  0.02759  0.44711  0.53654  1.0000
  H   H592      1.0  0.10532  0.21027  0.72581  1.0000
  C   C518      1.0  0.04057  0.24856  0.79000  1.0000
  H   H593      1.0  0.19005  0.45373  0.93549  1.0000
  C   C519      1.0  0.01282  0.27202  0.87167  1.0000
  H   H594      1.0  0.02255  0.24102  0.55945  1.0000
  C   C520      1.0  0.01783  0.19654  0.66810  1.0000
  H   H595      1.0  0.03024  0.23432  0.90633  1.0000
  H   H596      1.0  0.04175  0.21656  0.55799  1.0000
  C   C521      1.0  0.00140  0.47261  0.53082  1.0000
  H   H597      1.0  0.03230  0.30773  0.71208  1.0000
  H   H598      1.0  0.05610  0.40091  0.61480  1.0000
  N   N34       1.0  0.18373  0.25015  0.87591  1.0000
  S   S128      1.0  0.17826  0.19358  0.94002  1.0000
  H   H599      1.0  0.13988  0.43167  0.86323  1.0000
  H   H600      1.0  0.04085  0.14904  0.70203  1.0000
  C   C522      1.0  0.07311  0.98924  0.80246  1.0000
  C   C523      1.0  0.11300  0.21512  0.71468  1.0000
  H   H601      1.0  0.00128  0.26316  0.79538  1.0000
  N   N35       1.0  0.03464  0.29835  0.69205  1.0000
  H   H602      1.0  0.11592  0.38227  0.76011  1.0000
  H   H603      1.0  0.15643  0.08720  0.91075  1.0000
  C   C524      1.0  0.04926  0.28718  0.69559  1.0000
  C   C525      1.0  0.02498  0.29170  0.68596  1.0000
  C   C526      1.0  0.02837  0.27558  0.68549  1.0000
  C   C527      1.0  0.01136  0.30136  0.68077  1.0000
  C   C528      1.0  0.01871  0.26968  0.68001  1.0000
  H   H604      1.0  0.15977  0.26239  0.87571  1.0000
  H   H605      1.0  0.18456  0.07394  0.67895  1.0000
  S   S129      1.0  0.18958  0.40269  0.96062  1.0000
  H   H606      1.0  0.04707  0.22387  0.83904  1.0000
  H   H607      1.0  0.16658  0.10281  0.77014  1.0000
  H   H608      1.0  0.09811  0.28191  0.93048  1.0000
  S   S130      1.0  0.99911  0.36268  0.62499  1.0000
  H   H609      1.0  0.02096  0.29327  0.71556  1.0000
  H   H610      1.0  0.04674  0.27692  0.70516  1.0000
  H   H611      1.0  0.09727  0.22762  0.95630  1.0000
  H   H612      1.0  0.05643  0.29273  0.69970  1.0000
  H   H613      1.0  0.03841  0.26729  0.68928  1.0000
  H   H614      1.0  0.00786  0.31368  0.68102  1.0000
  H   H615      1.0  0.02150  0.25737  0.67970  1.0000
  H   H616      1.0  0.18044  0.06353  0.81123  1.0000
  H   H617      1.0  0.15848  0.05880  0.88745  1.0000
  H   H618      1.0  0.17463  0.12906  0.78863  1.0000
  C   C529      1.0  0.02320  0.34427  0.70033  1.0000
  C   C530      1.0  0.17530  0.20754  0.85585  1.0000
  C   C531      1.0  0.13461  0.20987  0.72757  1.0000
  H   H619      1.0  0.10848  0.24455  0.71718  1.0000
  Fe  Fe65      1.0  0.00440  0.35460  0.66780  1.0000
  H   H620      1.0  0.13522  0.44830  0.89703  1.0000
  C   C532      1.0  0.13446  0.22825  0.70250  1.0000
  H   H621      1.0  0.11965  0.00578  0.80876  1.0000
  C   C533      1.0  0.04102  0.22443  0.87793  1.0000
  C   C534      1.0  0.03892  0.43617  0.55640  1.0000
  C   C535      1.0  0.99685  0.32668  0.61127  1.0000
  C   C536      1.0  0.04853  0.01422  0.71987  1.0000
  H   H622      1.0  0.11009  0.12145  0.76945  1.0000
  H   H623      1.0  0.03545  0.21311  0.91008  1.0000
  S   S131      1.0  0.00058  0.45654  0.49376  1.0000
  C   C537      1.0  0.14423  0.04059  0.84778  1.0000
  Fe  Fe66      1.0  0.18085  0.31545  0.82473  1.0000
  C   C538      1.0  0.17912  0.06314  0.78755  1.0000
  H   H624      1.0  0.15497  0.03884  0.81211  1.0000
  Fe  Fe67      1.0  0.18541  0.40097  0.90733  1.0000
  C   C539      1.0  0.18313  0.17891  0.85916  1.0000
  H   H625      1.0  0.15936  0.21625  0.87556  1.0000
  S   S132      1.0  0.18030  0.31879  0.84828  1.0000
  C   C540      1.0  0.12474  0.26176  0.93811  1.0000
  S   S133      1.0  0.99676  0.37915  0.65409  1.0000
  C   C541      1.0  0.09298  0.99234  0.81946  1.0000
  H   H626      1.0  0.16681  0.09718  0.68318  1.0000
  H   H627      1.0  0.17041  0.02840  0.78975  1.0000
  C   C542      1.0  0.16495  0.19116  0.88020  1.0000
  H   H628      1.0  0.06432  0.43788  0.53354  1.0000
  H   H629      1.0  0.02666  0.31346  0.58443  1.0000
  H   H630      1.0  0.04992  0.45514  0.52769  1.0000
  Fe  Fe68      1.0  0.18516  0.11643  0.72226  1.0000
  Fe  Fe69      1.0  0.18079  0.15913  0.92110  1.0000
  H   H631      1.0  0.16252  0.14517  0.65985  1.0000
  H   H632      1.0  0.00862  0.11593  0.81372  1.0000
  C   C543      1.0  0.03137  0.01114  0.75077  1.0000
  C   C544      1.0  0.03894  0.42348  0.56972  1.0000
  C   C545      1.0  0.17342  0.17781  0.87448  1.0000
  C   C546      1.0  0.12913  0.20194  0.96741  1.0000
  H   H633      1.0  0.02496  0.00986  0.76288  1.0000
  H   H634      1.0  0.00171  0.28911  0.63229  1.0000
  H   H635      1.0  0.18513  0.04998  0.88128  1.0000
  H   H636      1.0  0.15004  0.13348  0.80683  1.0000
  C   C547      1.0  0.10513  0.22113  0.96406  1.0000
  C   C548      1.0  0.15463  0.06649  0.89602  1.0000
  H   H637      1.0  0.16253  0.46682  0.93729  1.0000
  H   H638      1.0  0.01252  0.40583  0.56516  1.0000
  H   H639      1.0  0.16351  0.17819  0.75156  1.0000
  H   H640      1.0  0.09886  0.25384  0.97669  1.0000
  H   H641      1.0  0.15532  0.44985  0.94793  1.0000
  C   C549      1.0  0.18030  0.48021  0.94791  1.0000
  H   H642      1.0  0.18147  0.03972  0.77328  1.0000
  H   H643      1.0  0.10034  0.99292  0.82667  1.0000
  H   H644      1.0  0.04888  0.12704  0.84230  1.0000
  C   C550      1.0  0.01623  0.22517  0.49993  1.0000
  H   H645      1.0  0.02545  0.99138  0.74793  1.0000
  C   C551      1.0  0.99784  0.32294  0.83591  1.0000
  H   H646      1.0  0.17949  0.04581  0.92007  1.0000
  C   C552      1.0  0.05733  0.98337  0.71058  1.0000
  H   H647      1.0  0.18331  0.27490  0.87073  1.0000
  Fe  Fe70      1.0  0.18913  0.43398  0.90656  1.0000
  H   H648      1.0  0.07216  0.98797  0.75282  1.0000
  H   H649      1.0  0.16928  0.25345  0.85944  1.0000
  H   H650      1.0  0.00824  0.15607  0.81771  1.0000
  S   S134      1.0  0.18862  0.18120  0.90719  1.0000
  C   C553      1.0  0.99365  0.31593  0.85207  1.0000
  C   C554      1.0  0.17830  0.46795  0.97544  1.0000
  C   C555      1.0  0.01282  0.32595  0.82907  1.0000
  H   H651      1.0  0.06444  0.99170  0.70245  1.0000
  S   S135      1.0  0.09122  0.98774  0.72167  1.0000
  C   C556      1.0  0.00486  0.20982  0.68911  1.0000
  S   S136      1.0  0.16063  0.16591  0.97756  1.0000
  H   H652      1.0  0.01165  0.15357  0.78485  1.0000
  H   H653      1.0  0.00113  0.13832  0.82765  1.0000
  C   C557      1.0  0.18228  0.38147  0.85881  1.0000
  H   H654      1.0  0.99543  0.21070  0.69983  1.0000
  N   N36       1.0  0.00646  0.19556  0.68347  1.0000
  H   H655      1.0  0.06555  0.98790  0.79577  1.0000
  C   C558      1.0  0.99397  0.19632  0.74183  1.0000
  C   C559      1.0  0.18641  0.44591  0.94699  1.0000
  C   C560      1.0  0.00497  0.16484  0.72173  1.0000
  H   H656      1.0  0.18848  0.38713  0.84763  1.0000
  H   H657      1.0  0.99277  0.21786  0.72435  1.0000
  H   H658      1.0  0.17820  0.43671  0.97789  1.0000
  C   C561      1.0  0.18947  0.05941  0.88254  1.0000
  C   C562      1.0  0.18776  0.08063  0.89456  1.0000
  H   H659      1.0  0.19007  0.10888  0.84700  1.0000
  C   C563      1.0  0.19051  0.26396  0.86695  1.0000
  S   S137      1.0  0.19042  0.14810  0.75716  1.0000
  Fe  Fe71      1.0  0.01103  0.58859  0.38374  1.0000
  S   S138      1.0  0.01220  0.60114  0.35849  1.0000
  S   S139      1.0  0.02024  0.56258  0.39155  1.0000
  C   C564      1.0  0.19033  0.88973  0.29877  1.0000
  H   H660      1.0  0.01274  0.64753  0.28693  1.0000
  H   H661      1.0  0.16565  0.86935  0.27328  1.0000
  S   S140      1.0  0.15989  0.82190  0.06353  1.0000
  H   H662      1.0  0.13987  0.87323  0.00443  1.0000
  Fe  Fe72      1.0  0.02362  0.61737  0.36390  1.0000
  S   S141      1.0  0.04531  0.62557  0.34873  1.0000
  Fe  Fe73      1.0  0.00087  0.61881  0.39534  1.0000
  S   S142      1.0  0.02440  0.60355  0.38837  1.0000
  H   H663      1.0  0.18859  0.86996  0.31826  1.0000
  S   S143      1.0  0.01117  0.69567  0.44472  1.0000
  H   H664      1.0  0.13673  0.79630  0.97893  1.0000
  Fe  Fe74      1.0  0.02675  0.73141  0.41724  1.0000
  S   S144      1.0  0.04286  0.70878  0.42570  1.0000
  S   S145      1.0  0.03476  0.75249  0.39975  1.0000
  Fe  Fe75      1.0  0.02621  0.69755  0.42053  1.0000
  S   S146      1.0  0.03501  0.67866  0.40651  1.0000
  Fe  Fe76      1.0  0.02615  0.70917  0.44923  1.0000
  C   C565      1.0  0.02628  0.57139  0.42829  1.0000
  S   S147      1.0  0.01103  0.72013  0.41062  1.0000
  S   S148      1.0  0.01111  0.73264  0.44124  1.0000
  H   H665      1.0  0.01960  0.50439  0.37016  1.0000
  H   H666      1.0  0.13491  0.76832  0.99158  1.0000
  H   H667      1.0  0.10515  0.73392  0.19197  1.0000
  C   C566      1.0  0.14295  0.92423  0.19762  1.0000
  Fe  Fe77      1.0  0.14207  0.91470  0.23901  1.0000
  S   S149      1.0  0.13811  0.92507  0.25973  1.0000
  H   H668      1.0  0.02925  0.67896  0.37525  1.0000
  Fe  Fe78      1.0  0.11513  0.89764  0.25333  1.0000
  S   S150      1.0  0.10810  0.90764  0.27485  1.0000
  S   S151      1.0  0.10900  0.87574  0.25195  1.0000
  Fe  Fe79      1.0  0.11280  0.93032  0.25847  1.0000
  S   S152      1.0  0.09776  0.95479  0.25840  1.0000
  Fe  Fe80      1.0  0.13388  0.90169  0.27421  1.0000
  S   S153      1.0  0.14220  0.88635  0.29561  1.0000
  S   S154      1.0  0.11707  0.92087  0.23683  1.0000
  S   S155      1.0  0.14075  0.89079  0.25351  1.0000
  Fe  Fe81      1.0  0.04479  0.82354  0.21748  1.0000
  S   S156      1.0  0.02719  0.81387  0.23783  1.0000
  S   S157      1.0  0.05657  0.80987  0.19864  1.0000
  Fe  Fe82      1.0  0.04402  0.85053  0.23164  1.0000
  S   S158      1.0  0.02652  0.84279  0.25346  1.0000
  S   S159      1.0  0.05144  0.87348  0.22685  1.0000
  Fe  Fe83      1.0  0.04088  0.81855  0.25237  1.0000
  S   S160      1.0  0.04766  0.79849  0.27180  1.0000
  Fe  Fe84      1.0  0.01439  0.83882  0.23695  1.0000
  S   S161      1.0  0.05958  0.82654  0.23205  1.0000
  S   S162      1.0  0.03080  0.84826  0.21507  1.0000
  H   H669      1.0  0.16501  0.85259  0.26688  1.0000
  S   S163      1.0  0.00845  0.77848  0.13270  1.0000
  H   H670      1.0  0.16032  0.97116  0.12223  1.0000
  Fe  Fe85      1.0  0.03925  0.74670  0.15275  1.0000
  S   S164      1.0  0.04411  0.77006  0.13922  1.0000
  S   S165      1.0  0.05714  0.72821  0.16442  1.0000
  Fe  Fe86      1.0  0.01963  0.77990  0.15116  1.0000
  S   S166      1.0  0.01080  0.80087  0.16221  1.0000
  Fe  Fe87      1.0  0.03269  0.76647  0.12191  1.0000
  S   S167      1.0  0.04466  0.77437  0.09669  1.0000
  S   S168      1.0  0.01582  0.75682  0.16625  1.0000
  S   S169      1.0  0.02939  0.74222  0.13476  1.0000
  Fe  Fe88      1.0  0.09312  0.79965  0.32645  1.0000
  S   S170      1.0  0.10526  0.80020  0.34449  1.0000
  S   S171      1.0  0.07045  0.81622  0.32267  1.0000
  Fe  Fe89      1.0  0.11863  0.77383  0.31403  1.0000
  S   S172      1.0  0.13340  0.77208  0.33094  1.0000
  S   S173      1.0  0.12540  0.76088  0.29438  1.0000
  Fe  Fe90      1.0  0.11022  0.77397  0.34867  1.0000
  S   S174      1.0  0.10613  0.75824  0.37281  1.0000
  Fe  Fe91      1.0  0.12728  0.79852  0.32546  1.0000
  H   H671      1.0  0.13928  0.71784  0.15673  1.0000
  S   S175      1.0  0.09619  0.77363  0.33220  1.0000
  S   S176      1.0  0.11445  0.79999  0.30706  1.0000
  Fe  Fe92      1.0  0.05849  0.68941  0.27334  1.0000
  S   S177      1.0  0.08222  0.68440  0.27882  1.0000
  S   S178      1.0  0.03860  0.67722  0.28658  1.0000
  Fe  Fe93      1.0  0.06435  0.71826  0.24791  1.0000
  S   S179      1.0  0.08829  0.71610  0.25176  1.0000
  S   S180      1.0  0.05414  0.73930  0.23088  1.0000
  Fe  Fe94      1.0  0.09124  0.69053  0.25268  1.0000
  Fe  Fe95      1.0  0.07743  0.71020  0.27738  1.0000
  C   C567      1.0  0.10057  0.70856  0.17321  1.0000
  S   S181      1.0  0.06787  0.69304  0.24722  1.0000
  S   S182      1.0  0.05313  0.71491  0.27351  1.0000
  Fe  Fe96      1.0  0.09871  0.72874  0.03862  1.0000
  S   S183      1.0  0.11523  0.71020  0.02644  1.0000
  S   S184      1.0  0.07666  0.72346  0.05568  1.0000
  Fe  Fe97      1.0  0.12131  0.75054  0.02671  1.0000
  S   S185      1.0  0.13982  0.73382  0.01377  1.0000
  S   S186      1.0  0.12541  0.77429  0.02492  1.0000
  Fe  Fe98      1.0  0.11989  0.73019  0.00615  1.0000
  H   H672      1.0  0.00705  0.50988  0.39499  1.0000
  Fe  Fe99      1.0  0.13362  0.71537  0.03502  1.0000
  S   S187      1.0  0.15146  0.69522  0.04502  1.0000
  S   S188      1.0  0.10163  0.74847  0.01747  1.0000
  S   S189      1.0  0.11674  0.73244  0.04886  1.0000
  C   C568      1.0  0.16739  0.78748  0.00552  1.0000
  S   S190      1.0  0.12521  0.66336  0.17457  1.0000
  S   S191      1.0  0.14918  0.66276  0.13252  1.0000
  H   H673      1.0  0.12692  0.76107  0.12507  1.0000
  H   H674      1.0  0.13646  0.97431  0.27216  1.0000
  C   C569      1.0  0.15246  0.69813  0.06287  1.0000
  C   C570      1.0  0.15631  0.68538  0.07496  1.0000
  C   C571      1.0  0.15598  0.68790  0.08957  1.0000
  C   C572      1.0  0.15148  0.70313  0.09212  1.0000
  C   C573      1.0  0.14783  0.71585  0.07998  1.0000
  C   C574      1.0  0.14863  0.71333  0.06529  1.0000
  H   H675      1.0  0.15913  0.67355  0.07325  1.0000
  H   H676      1.0  0.14238  0.51526  0.07439  1.0000
  H   H677      1.0  0.14450  0.72762  0.08189  1.0000
  H   H678      1.0  0.14639  0.72315  0.05576  1.0000
  C   C575      1.0  0.13587  0.77474  0.03834  1.0000
  C   C576      1.0  0.14158  0.76102  0.04850  1.0000
  C   C577      1.0  0.15006  0.76150  0.05906  1.0000
  C   C578      1.0  0.15338  0.77563  0.05903  1.0000
  C   C579      1.0  0.14772  0.78937  0.04882  1.0000
  C   C580      1.0  0.13875  0.78896  0.03868  1.0000
  H   H679      1.0  0.13959  0.75004  0.04810  1.0000
  H   H680      1.0  0.15452  0.75085  0.06686  1.0000
  H   H681      1.0  0.13431  0.79966  0.03087  1.0000
  C   C581      1.0  0.00944  0.50021  0.36944  1.0000
  C   C582      1.0  0.18392  0.74746  0.04046  1.0000
  H   H682      1.0  0.14657  0.73749  0.13368  1.0000
  H   H683      1.0  0.09762  0.67011  0.19832  1.0000
  H   H684      1.0  0.09339  0.67658  0.22414  1.0000
  C   C583      1.0  0.09243  0.73018  0.29626  1.0000
  C   C584      1.0  0.10224  0.73551  0.28203  1.0000
  C   C585      1.0  0.11234  0.74499  0.28147  1.0000
  C   C586      1.0  0.11239  0.74944  0.29505  1.0000
  H   H685      1.0  0.00196  0.51020  0.36272  1.0000
  H   H686      1.0  0.09618  0.71732  0.20079  1.0000
  H   H687      1.0  0.10210  0.73231  0.27150  1.0000
  H   H688      1.0  0.12005  0.74901  0.27050  1.0000
  C   C587      1.0  0.14574  0.79808  0.37597  1.0000
  H   H689      1.0  0.11577  0.79977  0.39194  1.0000
  H   H690      1.0  0.18786  0.62819  0.02626  1.0000
  C   C588      1.0  0.05298  0.76019  0.08524  1.0000
  C   C589      1.0  0.06342  0.76388  0.07087  1.0000
  C   C590      1.0  0.07077  0.75262  0.06178  1.0000
  C   C591      1.0  0.06718  0.73782  0.06669  1.0000
  C   C592      1.0  0.05639  0.73425  0.08082  1.0000
  C   C593      1.0  0.04949  0.74533  0.09022  1.0000
  H   H691      1.0  0.06581  0.77550  0.06672  1.0000
  H   H692      1.0  0.07895  0.75550  0.05079  1.0000
  H   H693      1.0  0.05341  0.72288  0.08454  1.0000
  H   H694      1.0  0.04121  0.74250  0.10111  1.0000
  C   C594      1.0  0.05615  0.73133  0.18287  1.0000
  C   C595      1.0  0.05048  0.74634  0.18599  1.0000
  C   C596      1.0  0.05015  0.74876  0.20067  1.0000
  C   C597      1.0  0.05523  0.73613  0.21236  1.0000
  C   C598      1.0  0.06095  0.72116  0.20917  1.0000
  C   C599      1.0  0.06142  0.71876  0.19446  1.0000
  H   H695      1.0  0.04654  0.75611  0.17702  1.0000
  H   H696      1.0  0.04591  0.76043  0.20297  1.0000
  H   H697      1.0  0.06494  0.71138  0.21801  1.0000
  H   H698      1.0  0.06568  0.70710  0.19215  1.0000
  C   C600      1.0  0.05429  0.80414  0.28525  1.0000
  C   C601      1.0  0.04727  0.81843  0.28975  1.0000
  C   C602      1.0  0.05221  0.82220  0.30132  1.0000
  C   C603      1.0  0.06464  0.81202  0.30775  1.0000
  C   C604      1.0  0.07198  0.79806  0.30275  1.0000
  C   C605      1.0  0.06640  0.79385  0.29201  1.0000
  H   H699      1.0  0.03773  0.82632  0.28470  1.0000
  H   H700      1.0  0.04644  0.83299  0.30523  1.0000
  H   H701      1.0  0.08170  0.79023  0.30742  1.0000
  H   H702      1.0  0.07153  0.78261  0.28893  1.0000
  C   C606      1.0  0.04361  0.80710  0.18897  1.0000
  C   C607      1.0  0.04867  0.79562  0.18002  1.0000
  C   C608      1.0  0.03860  0.79351  0.17190  1.0000
  C   C609      1.0  0.02352  0.80302  0.17254  1.0000
  C   C610      1.0  0.01841  0.81440  0.18159  1.0000
  C   C611      1.0  0.02840  0.81637  0.18990  1.0000
  H   H703      1.0  0.06041  0.78840  0.17932  1.0000
  H   H704      1.0  0.04260  0.78471  0.16497  1.0000
  H   H705      1.0  0.00671  0.82165  0.18214  1.0000
  H   H706      1.0  0.02449  0.82524  0.19677  1.0000
  C   C612      1.0  0.10499  0.96923  0.26217  1.0000
  H   H707      1.0  0.18681  0.74798  0.05104  1.0000
  H   H708      1.0  0.19023  0.87231  0.27670  1.0000
  C   C613      1.0  0.00954  0.58522  0.44816  1.0000
  C   C614      1.0  0.99181  0.53859  0.45578  1.0000
  C   C615      1.0  0.11902  0.96545  0.26731  1.0000
  H   H709      1.0  0.11847  0.88305  0.98988  1.0000
  S   S192      1.0  0.08023  0.71751  0.29797  1.0000
  C   C616      1.0  0.99589  0.86795  0.20236  1.0000
  H   H710      1.0  0.12497  0.95337  0.27037  1.0000
  C   C617      1.0  0.09244  0.87549  0.24567  1.0000
  C   C618      1.0  0.08951  0.86098  0.24628  1.0000
  C   C619      1.0  0.07678  0.86022  0.24081  1.0000
  C   C620      1.0  0.06707  0.87400  0.23445  1.0000
  C   C621      1.0  0.07006  0.88853  0.23377  1.0000
  C   C622      1.0  0.08265  0.88930  0.23949  1.0000
  H   H711      1.0  0.09702  0.85026  0.25112  1.0000
  H   H712      1.0  0.07453  0.84899  0.24142  1.0000
  H   H713      1.0  0.06252  0.89922  0.22890  1.0000
  H   H714      1.0  0.08482  0.90053  0.23902  1.0000
  H   H715      1.0  0.08781  0.73276  0.18687  1.0000
  H   H716      1.0  0.12911  0.93028  0.18008  1.0000
  H   H717      1.0  0.09907  0.76413  0.13938  1.0000
  H   H718      1.0  0.16204  0.86876  0.31693  1.0000
  H   H719      1.0  0.09088  0.74434  0.16220  1.0000
  H   H720      1.0  0.12987  0.69873  0.17555  1.0000
  H   H721      1.0  0.99793  0.58703  0.45646  1.0000
  H   H722      1.0  0.13360  0.92977  0.20588  1.0000
  C   C623      1.0  0.17277  0.87062  0.20116  1.0000
  C   C624      1.0  0.14264  0.87574  0.99169  1.0000
  H   H723      1.0  0.05450  0.66122  0.36573  1.0000
  H   H724      1.0  0.14601  0.84202  0.99619  1.0000
  C   C625      1.0  0.11798  0.67401  0.22284  1.0000
  C   C626      1.0  0.15833  0.87310  0.98362  1.0000
  C   C627      1.0  0.12291  0.70700  0.18326  1.0000
  C   C628      1.0  0.12342  0.75234  0.13538  1.0000
  H   H725      1.0  0.99713  0.86246  0.16671  1.0000
  C   C629      1.0  0.10780  0.75409  0.14350  1.0000
  C   C630      1.0  0.17079  0.62706  0.10274  1.0000
  C   C631      1.0  0.10758  0.67031  0.20252  1.0000
  C   C632      1.0  0.13012  0.72784  0.15366  1.0000
  H   H726      1.0  0.03835  0.76995  0.29372  1.0000
  C   C633      1.0  0.05476  0.75369  0.39289  1.0000
  C   C634      1.0  0.06703  0.74135  0.39719  1.0000
  C   C635      1.0  0.08277  0.74283  0.39113  1.0000
  C   C636      1.0  0.08634  0.75649  0.38045  1.0000
  C   C637      1.0  0.07406  0.76878  0.37615  1.0000
  C   C638      1.0  0.05838  0.76746  0.38255  1.0000
  H   H727      1.0  0.06443  0.73071  0.40524  1.0000
  H   H728      1.0  0.09219  0.73329  0.39460  1.0000
  H   H729      1.0  0.07664  0.77947  0.36817  1.0000
  H   H730      1.0  0.04896  0.77723  0.37959  1.0000
  H   H731      1.0  0.00644  0.74622  0.19967  1.0000
  H   H732      1.0  0.09501  0.74842  0.98732  1.0000
  H   H733      1.0  0.01543  0.76903  0.19579  1.0000
  C   C639      1.0  0.00750  0.55023  0.40301  1.0000
  H   H734      1.0  0.03302  0.69764  0.33209  1.0000
  H   H735      1.0  0.06099  0.66167  0.34513  1.0000
  S   S193      1.0  0.18405  0.67088  0.12299  1.0000
  N   N37       1.0  0.17974  0.77412  0.00070  1.0000
  H   H736      1.0  0.02935  0.67837  0.33567  1.0000
  C   C640      1.0  0.03806  0.68490  0.33566  1.0000
  C   C641      1.0  0.04316  0.64037  0.33183  1.0000
  C   C642      1.0  0.02841  0.64736  0.32832  1.0000
  C   C643      1.0  0.02709  0.65899  0.31459  1.0000
  C   C644      1.0  0.04050  0.66366  0.30434  1.0000
  C   C645      1.0  0.05519  0.65692  0.30808  1.0000
  C   C646      1.0  0.05651  0.64531  0.32180  1.0000
  H   H737      1.0  0.01808  0.64362  0.33604  1.0000
  H   H738      1.0  0.01571  0.66418  0.31172  1.0000
  H   H739      1.0  0.06559  0.66029  0.30016  1.0000
  H   H740      1.0  0.06794  0.63989  0.32449  1.0000
  C   C647      1.0  0.12549  0.97735  0.26840  1.0000
  C   C648      1.0  0.01931  0.64280  0.40261  1.0000
  C   C649      1.0  0.02847  0.65358  0.40072  1.0000
  C   C650      1.0  0.02390  0.66441  0.41035  1.0000
  C   C651      1.0  0.01042  0.66393  0.42240  1.0000
  H   H741      1.0  0.18748  0.83075  0.28756  1.0000
  H   H742      1.0  0.02284  0.63474  0.39488  1.0000
  H   H743      1.0  0.03909  0.65357  0.39169  1.0000
  H   H744      1.0  0.19033  0.85496  0.29191  1.0000
  H   H745      1.0  0.17945  0.97626  0.15092  1.0000
  H   H746      1.0  0.16721  0.63253  0.02689  1.0000
  H   H747      1.0  0.99846  0.85537  0.20823  1.0000
  C   C652      1.0  0.05047  0.66438  0.35453  1.0000
  N   N38       1.0  0.12343  0.88245  0.20034  1.0000
  C   C653      1.0  0.11505  0.89581  0.20799  1.0000
  C   C654      1.0  0.12015  0.88683  0.18437  1.0000
  C   C655      1.0  0.11668  0.86865  0.20921  1.0000
  C   C656      1.0  0.14040  0.87864  0.20034  1.0000
  H   H748      1.0  0.99395  0.64035  0.32853  1.0000
  C   C657      1.0  0.15236  0.87702  0.18658  1.0000
  H   H749      1.0  0.14752  0.67879  0.26160  1.0000
  C   C658      1.0  0.16827  0.87295  0.18710  1.0000
  H   H750      1.0  0.10277  0.74709  0.31978  1.0000
  H   H751      1.0  0.10234  0.89920  0.20774  1.0000
  H   H752      1.0  0.11544  0.89311  0.22055  1.0000
  H   H753      1.0  0.12018  0.90623  0.20214  1.0000
  H   H754      1.0  0.12523  0.89704  0.17701  1.0000
  H   H755      1.0  0.10730  0.89019  0.18474  1.0000
  H   H756      1.0  0.15245  0.83391  0.35400  1.0000
  H   H757      1.0  0.12244  0.85836  0.20376  1.0000
  H   H758      1.0  0.11817  0.86507  0.22153  1.0000
  H   H759      1.0  0.11804  0.67651  0.31275  1.0000
  H   H760      1.0  0.10381  0.87105  0.20983  1.0000
  H   H761      1.0  0.14980  0.87911  0.17517  1.0000
  C   C659      1.0  0.10326  0.74276  0.15674  1.0000
  N   N39       1.0  0.18778  0.85235  0.26998  1.0000
  C   C660      1.0  0.12279  0.66698  0.19327  1.0000
  C   C661      1.0  0.16511  0.83002  0.32041  1.0000
  H   H762      1.0  0.17154  0.74546  0.00378  1.0000
  C   C662      1.0  0.15810  0.83592  0.99305  1.0000
  C   C663      1.0  0.99635  0.50661  0.39432  1.0000
  H   H763      1.0  0.02085  0.75782  0.22920  1.0000
  H   H764      1.0  0.00681  0.67219  0.42992  1.0000
  H   H765      1.0  0.12319  0.95588  0.21644  1.0000
  H   H766      1.0  0.11441  0.77542  0.99165  1.0000
  C   C664      1.0  0.01327  0.62650  0.30584  1.0000
  S   S194      1.0  0.00114  0.63396  0.37131  1.0000
  H   H767      1.0  0.18636  0.65800  0.01813  1.0000
  H   H768      1.0  0.14882  0.64868  0.04455  1.0000
  S   S195      1.0  0.12586  0.72776  0.98111  1.0000
  S   S196      1.0  0.17336  0.60005  0.07292  1.0000
  C   C665      1.0  0.17901  0.82987  0.32454  1.0000
  C   C666      1.0  0.01996  0.63759  0.29321  1.0000
  H   H769      1.0  0.01906  0.79416  0.33590  1.0000
  H   H770      1.0  0.11322  0.97729  0.22928  1.0000
  H   H771      1.0  0.00670  0.74563  0.23627  1.0000
  H   H772      1.0  0.03496  0.73315  0.46550  1.0000
  C   C667      1.0  0.14672  0.68384  0.27174  1.0000
  H   H773      1.0  0.18564  0.76156  0.98221  1.0000
  H   H774      1.0  0.99336  0.75102  0.47214  1.0000
  H   H775      1.0  0.12732  0.71127  0.32997  1.0000
  S   S197      1.0  0.18487  0.56634  0.04957  1.0000
  C   C668      1.0  0.10516  0.67402  0.21715  1.0000
  N   N40       1.0  0.13026  0.68768  0.28058  1.0000
  H   H776      1.0  0.16609  0.65926  0.01861  1.0000
  C   C669      1.0  0.17913  0.85882  0.10503  1.0000
  H   H777      1.0  0.05866  0.62441  0.29414  1.0000
  C   C670      1.0  0.15938  0.81629  0.32413  1.0000
  H   H778      1.0  0.17975  0.88246  0.25292  1.0000
  C   C671      1.0  0.18614  0.64446  0.04818  1.0000
  H   H779      1.0  0.16488  0.87033  0.22577  1.0000
  C   C672      1.0  0.17035  0.85656  0.27431  1.0000
  H   H780      1.0  0.16892  0.49869  0.06820  1.0000
  C   C673      1.0  0.16605  0.81871  0.37043  1.0000
  C   C674      1.0  0.00100  0.86093  0.17772  1.0000
  S   S198      1.0  0.15730  0.68547  0.15098  1.0000
  C   C675      1.0  0.01388  0.53489  0.41024  1.0000
  C   C676      1.0  0.16726  0.62035  0.09229  1.0000
  H   H781      1.0  0.00239  0.82532  0.21923  1.0000
  S   S199      1.0  0.18742  0.80311  0.03877  1.0000
  H   H782      1.0  0.11896  0.50544  0.07622  1.0000
  H   H783      1.0  0.02464  0.55458  0.46148  1.0000
  S   S200      1.0  0.16485  0.77586  0.07159  1.0000
  C   C677      1.0  0.18641  0.87042  0.10540  1.0000
  C   C678      1.0  0.05076  0.74203  0.32387  1.0000
  H   H784      1.0  0.16482  0.76938  0.98855  1.0000
  C   C679      1.0  0.04617  0.62477  0.29717  1.0000
  N   N41       1.0  0.03944  0.77737  0.34250  1.0000
  C   C680      1.0  0.03057  0.77047  0.35810  1.0000
  C   C681      1.0  0.05506  0.77794  0.34403  1.0000
  C   C682      1.0  0.03079  0.79376  0.33776  1.0000
  C   C683      1.0  0.04162  0.76766  0.33109  1.0000
  C   C684      1.0  0.03813  0.77410  0.31597  1.0000
  C   C685      1.0  0.04820  0.75134  0.33463  1.0000
  C   C686      1.0  0.12594  0.77039  0.98460  1.0000
  C   C687      1.0  0.16534  0.96814  0.20169  1.0000
  H   H785      1.0  0.04097  0.64541  0.27941  1.0000
  H   H786      1.0  0.03727  0.75910  0.36378  1.0000
  H   H787      1.0  0.02776  0.77811  0.36662  1.0000
  H   H788      1.0  0.01930  0.76853  0.35722  1.0000
  H   H789      1.0  0.06166  0.76627  0.34924  1.0000
  H   H790      1.0  0.05421  0.78614  0.35145  1.0000
  H   H791      1.0  0.06236  0.78213  0.33240  1.0000
  H   H792      1.0  0.01942  0.74606  0.21726  1.0000
  H   H793      1.0  0.02886  0.80063  0.34679  1.0000
  H   H794      1.0  0.03752  0.80019  0.32686  1.0000
  C   C688      1.0  0.18386  0.82540  0.99897  1.0000
  H   H795      1.0  0.05169  0.74571  0.34565  1.0000
  C   C689      1.0  0.18152  0.80225  0.33626  1.0000
  H   H796      1.0  0.18863  0.82901  0.26812  1.0000
  H   H797      1.0  0.18308  0.84059  0.32199  1.0000
  N   N42       1.0  0.00034  0.76650  0.21905  1.0000
  H   H798      1.0  0.13918  0.72379  0.30315  1.0000
  H   H799      1.0  0.17417  0.82633  0.36785  1.0000
  H   H800      1.0  0.15853  0.84093  0.31471  1.0000
  H   H801      1.0  0.15196  0.69430  0.26675  1.0000
  H   H802      1.0  0.03541  0.56614  0.43535  1.0000
  H   H803      1.0  0.16570  0.85130  0.28679  1.0000
  H   H804      1.0  0.15811  0.94703  0.15461  1.0000
  H   H805      1.0  0.12498  0.75879  0.98368  1.0000
  C   C690      1.0  0.00578  0.64238  0.41454  1.0000
  C   C691      1.0  0.04000  0.61384  0.30976  1.0000
  H   H806      1.0  0.02730  0.56314  0.42082  1.0000
  H   H807      1.0  0.18674  0.70083  0.13662  1.0000
  H   H808      1.0  0.00194  0.78127  0.23328  1.0000
  C   C692      1.0  0.17789  0.97430  0.19149  1.0000
  H   H809      1.0  0.04778  0.60498  0.31652  1.0000
  N   N43       1.0  0.01024  0.57447  0.43821  1.0000
  H   H810      1.0  0.18929  0.89292  0.22521  1.0000
  Fe  Fe100     1.0  0.17425  0.82778  0.03912  1.0000
  H   H811      1.0  0.01990  0.60580  0.32398  1.0000
  C   C693      1.0  0.15837  0.64807  0.05032  1.0000
  C   C694      1.0  0.17961  0.76030  0.01396  1.0000
  H   H812      1.0  0.01879  0.58086  0.45510  1.0000
  C   C695      1.0  0.16824  0.96979  0.13011  1.0000
  H   H813      1.0  0.02091  0.48313  0.39493  1.0000
  C   C696      1.0  0.17602  0.63117  0.03385  1.0000
  C   C697      1.0  0.13319  0.96126  0.20896  1.0000
  H   H814      1.0  0.10857  0.70324  0.27648  1.0000
  C   C698      1.0  0.00046  0.53029  0.46711  1.0000
  H   H815      1.0  0.16077  0.78321  0.39212  1.0000
  S   S201      1.0  0.11537  0.67852  0.24121  1.0000
  C   C699      1.0  0.14195  0.96117  0.23162  1.0000
  H   H816      1.0  0.14066  0.71324  0.28083  1.0000
  C   C700      1.0  0.02722  0.68295  0.36312  1.0000
  Fe  Fe101     1.0  0.17953  0.82628  0.07119  1.0000
  H   H817      1.0  0.99849  0.89061  0.17577  1.0000
  S   S202      1.0  0.18334  0.92595  0.11278  1.0000
  H   H818      1.0  0.01123  0.59700  0.44098  1.0000
  H   H819      1.0  0.13203  0.95612  0.23970  1.0000
  H   H820      1.0  0.17597  0.90338  0.16832  1.0000
  C   C701      1.0  0.14543  0.87578  0.21453  1.0000
  C   C702      1.0  0.05267  0.69093  0.35130  1.0000
  C   C703      1.0  0.05015  0.69881  0.36359  1.0000
  C   C704      1.0  0.06642  0.69216  0.33930  1.0000
  C   C705      1.0  0.06058  0.70759  0.36359  1.0000
  C   C706      1.0  0.07676  0.70097  0.33941  1.0000
  C   C707      1.0  0.07383  0.70871  0.35151  1.0000
  H   H821      1.0  0.02066  0.69538  0.36153  1.0000
  H   H822      1.0  0.04034  0.69820  0.37354  1.0000
  H   H823      1.0  0.06939  0.68624  0.32974  1.0000
  H   H824      1.0  0.05844  0.71336  0.37319  1.0000
  H   H825      1.0  0.08703  0.70191  0.32995  1.0000
  H   H826      1.0  0.08188  0.71553  0.35157  1.0000
  C   C708      1.0  0.11440  0.72956  0.16259  1.0000
  H   H827      1.0  0.04277  0.65636  0.35556  1.0000
  C   C709      1.0  0.16041  0.88820  0.29709  1.0000
  H   H828      1.0  0.01938  0.67577  0.36250  1.0000
  C   C710      1.0  0.09926  0.72588  0.18961  1.0000
  N   N44       1.0  0.04220  0.68105  0.35121  1.0000
  H   H829      1.0  0.11889  0.69945  0.19481  1.0000
  Fe  Fe102     1.0  0.99705  0.71910  0.43534  1.0000
  H   H830      1.0  0.13084  0.71340  0.18506  1.0000
  H   H831      1.0  0.04827  0.68165  0.32620  1.0000
  N   N45       1.0  0.10947  0.71794  0.17692  1.0000
  C   C711      1.0  0.16782  0.87762  0.30867  1.0000
  H   H832      1.0  0.99815  0.51914  0.47431  1.0000
  H   H833      1.0  0.17936  0.72431  0.04975  1.0000
  H   H834      1.0  0.09001  0.71600  0.16885  1.0000
  C   C712      1.0  0.13449  0.73911  0.14030  1.0000
  H   H835      1.0  0.10799  0.70200  0.16407  1.0000
  H   H836      1.0  0.09643  0.69976  0.18371  1.0000
  H   H837      1.0  0.14549  0.96799  0.23799  1.0000
  C   C713      1.0  0.04089  0.76469  0.30526  1.0000
  H   H838      1.0  0.17072  0.67038  0.02912  1.0000
  H   H839      1.0  0.05588  0.72961  0.32672  1.0000
  H   H840      1.0  0.17863  0.95612  0.15663  1.0000
  C   C714      1.0  0.18923  0.82003  0.98496  1.0000
  C   C715      1.0  0.99308  0.77654  0.23068  1.0000
  H   H841      1.0  0.11699  0.68758  0.33446  1.0000
  C   C716      1.0  0.17959  0.73418  0.03979  1.0000
  C   C717      1.0  0.17519  0.74658  0.01367  1.0000
  H   H842      1.0  0.16533  0.96933  0.16817  1.0000
  S   S203      1.0  0.03162  0.70052  0.47351  1.0000
  C   C718      1.0  0.17518  0.73376  0.02646  1.0000
  C   C719      1.0  0.02383  0.61456  0.31403  1.0000
  H   H843      1.0  0.12977  0.96820  0.19779  1.0000
  C   C720      1.0  0.18212  0.85327  0.09132  1.0000
  C   C721      1.0  0.04717  0.74870  0.30920  1.0000
  C   C722      1.0  0.00147  0.65280  0.42461  1.0000
  C   C723      1.0  0.03618  0.63655  0.28884  1.0000
  S   S204      1.0  0.99409  0.62911  0.41664  1.0000
  H   H844      1.0  0.18408  0.87453  0.11605  1.0000
  N   N46       1.0  0.13734  0.97114  0.21699  1.0000
  Fe  Fe103     1.0  0.00598  0.75459  0.14712  1.0000
  N   N47       1.0  0.10368  0.85257  0.29870  1.0000
  C   C724      1.0  0.11144  0.86434  0.30012  1.0000
  C   C725      1.0  0.09951  0.84267  0.31454  1.0000
  C   C726      1.0  0.11543  0.84266  0.28845  1.0000
  C   C727      1.0  0.08938  0.85953  0.29220  1.0000
  C   C728      1.0  0.08117  0.84978  0.28932  1.0000
  C   C729      1.0  0.08311  0.87595  0.28867  1.0000
  C   C730      1.0  0.06800  0.85609  0.28267  1.0000
  C   C731      1.0  0.06987  0.88213  0.28208  1.0000
  C   C732      1.0  0.06241  0.87223  0.27897  1.0000
  H   H845      1.0  0.10369  0.87176  0.30836  1.0000
  H   H846      1.0  0.12231  0.85872  0.30475  1.0000
  H   H847      1.0  0.11509  0.87205  0.28851  1.0000
  H   H848      1.0  0.09012  0.84950  0.32239  1.0000
  H   H849      1.0  0.10982  0.83768  0.32012  1.0000
  H   H850      1.0  0.09511  0.83258  0.31421  1.0000
  H   H851      1.0  0.11852  0.84963  0.27631  1.0000
  H   H852      1.0  0.12644  0.83745  0.29288  1.0000
  H   H853      1.0  0.11114  0.83269  0.28766  1.0000
  H   H854      1.0  0.08491  0.83717  0.29212  1.0000
  H   H855      1.0  0.08839  0.88429  0.29058  1.0000
  H   H856      1.0  0.06226  0.84845  0.28006  1.0000
  H   H857      1.0  0.06557  0.89469  0.27905  1.0000
  H   H858      1.0  0.05242  0.87706  0.27346  1.0000
  N   N48       1.0  0.09678  0.70104  0.09722  1.0000
  C   C733      1.0  0.08573  0.69482  0.09247  1.0000
  C   C734      1.0  0.09343  0.71831  0.09187  1.0000
  C   C735      1.0  0.11288  0.69485  0.08873  1.0000
  C   C736      1.0  0.09471  0.69682  0.11451  1.0000
  C   C737      1.0  0.10731  0.68872  0.12217  1.0000
  C   C738      1.0  0.07968  0.70096  0.12426  1.0000
  C   C739      1.0  0.10477  0.68457  0.13855  1.0000
  C   C740      1.0  0.07730  0.69679  0.14062  1.0000
  C   C741      1.0  0.08980  0.68846  0.14774  1.0000
  H   H859      1.0  0.07326  0.70054  0.09645  1.0000
  H   H860      1.0  0.08768  0.69689  0.07947  1.0000
  H   H861      1.0  0.08706  0.68198  0.09727  1.0000
  H   H862      1.0  0.09445  0.72191  0.07896  1.0000
  H   H863      1.0  0.10179  0.72337  0.09476  1.0000
  H   H864      1.0  0.08137  0.72394  0.09730  1.0000
  H   H865      1.0  0.11619  0.68184  0.09213  1.0000
  H   H866      1.0  0.11399  0.69801  0.07577  1.0000
  H   H867      1.0  0.12173  0.69979  0.09097  1.0000
  H   H868      1.0  0.11925  0.68535  0.11584  1.0000
  H   H869      1.0  0.06961  0.70752  0.11932  1.0000
  H   H870      1.0  0.11446  0.67813  0.14421  1.0000
  H   H871      1.0  0.06571  0.70012  0.14783  1.0000
  H   H872      1.0  0.08791  0.68507  0.16042  1.0000
  N   N49       1.0  0.10230  0.76762  0.08828  1.0000
  C   C742      1.0  0.10588  0.76092  0.07427  1.0000
  C   C743      1.0  0.08870  0.78116  0.08706  1.0000
  C   C744      1.0  0.11587  0.77387  0.08803  1.0000
  C   C745      1.0  0.09931  0.75513  0.10247  1.0000
  C   C746      1.0  0.08393  0.75425  0.11155  1.0000
  C   C747      1.0  0.11180  0.74272  0.10700  1.0000
  C   C748      1.0  0.08140  0.74207  0.12461  1.0000
  C   C749      1.0  0.10911  0.73063  0.12014  1.0000
  C   C750      1.0  0.09396  0.73042  0.12900  1.0000
  H   H873      1.0  0.09603  0.75597  0.07409  1.0000
  H   H874      1.0  0.10786  0.76992  0.06319  1.0000
  H   H875      1.0  0.11659  0.75132  0.07394  1.0000
  H   H876      1.0  0.07846  0.77791  0.08536  1.0000
  H   H877      1.0  0.09150  0.79076  0.07677  1.0000
  H   H878      1.0  0.08487  0.78616  0.09773  1.0000
  H   H879      1.0  0.12717  0.76512  0.08687  1.0000
  H   H880      1.0  0.11781  0.78380  0.07781  1.0000
  H   H881      1.0  0.11406  0.77816  0.09886  1.0000
  H   H882      1.0  0.07357  0.76279  0.10883  1.0000
  H   H883      1.0  0.12376  0.74206  0.10037  1.0000
  H   H884      1.0  0.06958  0.74165  0.13141  1.0000
  H   H885      1.0  0.11885  0.72140  0.12352  1.0000
  H   H886      1.0  0.09190  0.72119  0.13929  1.0000
  N   N50       1.0  0.07492  0.76928  0.24310  1.0000
  C   C751      1.0  0.08547  0.75963  0.23203  1.0000
  C   C752      1.0  0.06850  0.75861  0.25768  1.0000
  C   C753      1.0  0.06138  0.77902  0.23620  1.0000
  C   C754      1.0  0.08389  0.77926  0.24578  1.0000
  C   C755      1.0  0.08853  0.79191  0.23373  1.0000
  C   C756      1.0  0.08918  0.77618  0.25988  1.0000
  C   C757      1.0  0.09724  0.80128  0.23595  1.0000
  C   C758      1.0  0.09808  0.78549  0.26191  1.0000
  C   C759      1.0  0.10195  0.79812  0.25005  1.0000
  H   H887      1.0  0.08985  0.76702  0.22049  1.0000
  H   H888      1.0  0.09584  0.75219  0.23674  1.0000
  H   H889      1.0  0.07933  0.75178  0.22972  1.0000
  H   H890      1.0  0.07791  0.74962  0.26274  1.0000
  H   H891      1.0  0.06098  0.75197  0.25549  1.0000
  H   H892      1.0  0.06109  0.76534  0.26668  1.0000
  H   H893      1.0  0.06498  0.78567  0.22408  1.0000
  H   H894      1.0  0.05369  0.77181  0.23529  1.0000
  H   H895      1.0  0.05403  0.78756  0.24344  1.0000
  H   H896      1.0  0.08533  0.79478  0.22250  1.0000
  H   H897      1.0  0.08636  0.76680  0.26968  1.0000
  H   H898      1.0  0.10021  0.81115  0.22673  1.0000
  H   H899      1.0  0.10180  0.78300  0.27288  1.0000
  H   H900      1.0  0.10858  0.80546  0.25182  1.0000
  C   C760      1.0  0.01216  0.53627  0.46908  1.0000
  C   C761      1.0  0.16832  0.83350  0.00295  1.0000
  C   C762      1.0  0.18696  0.65778  0.05289  1.0000
  C   C763      1.0  0.18715  0.81602  0.33272  1.0000
  C   C764      1.0  0.99409  0.74989  0.20463  1.0000
  H   H901      1.0  0.17156  0.72347  0.02613  1.0000
  H   H902      1.0  0.16695  0.86867  0.99083  1.0000
  H   H903      1.0  0.13216  0.77335  0.36373  1.0000
  H   H904      1.0  0.13692  0.79174  0.35288  1.0000
  H   H905      1.0  0.14254  0.96032  0.16446  1.0000
  C   C765      1.0  0.17120  0.96819  0.15595  1.0000
  H   H906      1.0  0.11100  0.78683  0.38300  1.0000
  C   C766      1.0  0.16344  0.83050  0.97909  1.0000
  C   C767      1.0  0.13929  0.78182  0.36291  1.0000
  H   H907      1.0  0.15188  0.77593  0.35983  1.0000
  H   H908      1.0  0.11550  0.80485  0.37148  1.0000
  H   H909      1.0  0.00902  0.51301  0.42523  1.0000
  H   H910      1.0  0.01251  0.86444  0.17431  1.0000
  H   H911      1.0  0.15173  0.95095  0.22957  1.0000
  H   H912      1.0  0.12082  0.69584  0.25972  1.0000
  C   C768      1.0  0.11881  0.79502  0.38119  1.0000
  H   H913      1.0  0.12980  0.76526  0.39178  1.0000
  C   C769      1.0  0.09254  0.73463  0.30977  1.0000
  H   H914      1.0  0.12422  0.66938  0.27397  1.0000
  H   H915      1.0  0.12492  0.87691  0.17828  1.0000
  C   C770      1.0  0.14036  0.92444  0.18304  1.0000
  H   H916      1.0  0.14739  0.66448  0.19187  1.0000
  N   N51       1.0  0.13567  0.78712  0.37775  1.0000
  C   C771      1.0  0.10246  0.74420  0.30917  1.0000
  Fe  Fe104     1.0  0.17459  0.91583  0.13826  1.0000
  C   C772      1.0  0.13798  0.77293  0.39050  1.0000
  C   C773      1.0  0.13322  0.67043  0.21369  1.0000
  C   C774      1.0  0.13562  0.66709  0.19888  1.0000
  H   H917      1.0  0.08500  0.73062  0.32081  1.0000
  H   H918      1.0  0.13574  0.77611  0.40201  1.0000
  H   H919      1.0  0.15002  0.76552  0.38805  1.0000
  C   C775      1.0  0.15824  0.79419  0.38391  1.0000
  H   H920      1.0  0.13707  0.87638  0.22555  1.0000
  H   H921      1.0  0.18376  0.74701  0.07967  1.0000
  C   C776      1.0  0.14389  0.81278  0.36518  1.0000
  H   H922      1.0  0.13519  0.81629  0.35810  1.0000
  S   S205      1.0  0.16192  0.91867  0.21840  1.0000
  S   S206      1.0  0.15008  0.70648  0.11046  1.0000
  C   C777      1.0  0.15780  0.91749  0.20110  1.0000
  C   C778      1.0  0.12096  0.69991  0.27013  1.0000
  H   H923      1.0  0.15890  0.67804  0.09891  1.0000
  H   H924      1.0  0.15599  0.62466  0.08904  1.0000
  Fe  Fe105     1.0  0.14863  0.66333  0.15732  1.0000
  C   C779      1.0  0.16823  0.80439  0.38108  1.0000
  H   H925      1.0  0.12567  0.71072  0.26552  1.0000
  H   H926      1.0  0.15559  0.78465  0.00890  1.0000
  Fe  Fe106     1.0  0.17422  0.64923  0.13151  1.0000
  H   H927      1.0  0.15774  0.63836  0.06096  1.0000
  H   H928      1.0  0.01660  0.78169  0.20706  1.0000
  C   C780      1.0  0.01228  0.75345  0.22571  1.0000
  H   H929      1.0  0.18117  0.90469  0.19304  1.0000
  S   S207      1.0  0.15013  0.91932  0.15319  1.0000
  C   C781      1.0  0.15245  0.91736  0.17220  1.0000
  H   H930      1.0  0.00008  0.57612  0.41884  1.0000
  H   H931      1.0  0.11125  0.67558  0.29082  1.0000
  C   C782      1.0  0.16137  0.87204  0.21485  1.0000
  H   H932      1.0  0.16231  0.63651  0.10744  1.0000
  H   H933      1.0  0.16374  0.79163  0.33442  1.0000
  H   H934      1.0  0.99098  0.65256  0.43382  1.0000
  H   H935      1.0  0.16223  0.90786  0.27751  1.0000
  H   H936      1.0  0.14321  0.67035  0.21802  1.0000
  C   C783      1.0  0.18278  0.90053  0.28739  1.0000
  C   C784      1.0  0.15382  0.82295  0.36262  1.0000
  H   H937      1.0  0.99969  0.78559  0.19882  1.0000
  H   H938      1.0  0.16702  0.79813  0.99590  1.0000
  C   C785      1.0  0.01526  0.55059  0.45970  1.0000
  H   H939      1.0  0.15559  0.65921  0.05435  1.0000
  C   C786      1.0  0.16790  0.89965  0.28645  1.0000
  N   N52       1.0  0.00028  0.49425  0.38522  1.0000
  C   C787      1.0  0.12382  0.67338  0.28465  1.0000
  S   S208      1.0  0.17273  0.64763  0.15705  1.0000
  C   C788      1.0  0.14373  0.50366  0.07252  1.0000
  C   C789      1.0  0.13060  0.88115  0.98352  1.0000
  H   H940      1.0  0.02648  0.53088  0.40870  1.0000
  C   C790      1.0  0.00403  0.52477  0.41957  1.0000
  H   H941      1.0  0.16724  0.95552  0.20566  1.0000
  S   S209      1.0  0.16174  0.84148  0.01970  1.0000
  H   H942      1.0  0.03355  0.78644  0.31193  1.0000
  Fe  Fe107     1.0  0.15909  0.68416  0.12640  1.0000
  H   H943      1.0  0.18511  0.86791  0.20135  1.0000
  C   C791      1.0  0.16976  0.91024  0.19033  1.0000
  C   C792      1.0  0.16691  0.90978  0.17615  1.0000
  C   C793      1.0  0.17439  0.65882  0.02580  1.0000
  H   H944      1.0  0.15016  0.80035  0.04878  1.0000
  C   C794      1.0  0.12297  0.68669  0.30999  1.0000
  C   C795      1.0  0.12969  0.69364  0.29437  1.0000
  C   C796      1.0  0.13567  0.70710  0.29234  1.0000
  C   C797      1.0  0.17678  0.77156  0.98643  1.0000
  C   C798      1.0  0.18817  0.87452  0.24611  1.0000
  N   N53       1.0  0.17403  0.64550  0.03964  1.0000
  H   H945      1.0  0.17129  0.85396  0.11548  1.0000
  C   C799      1.0  0.16781  0.80232  0.33180  1.0000
  S   S210      1.0  0.17431  0.83730  0.09205  1.0000
  H   H946      1.0  0.17720  0.87213  0.17641  1.0000
  H   H947      1.0  0.17631  0.95808  0.13004  1.0000
  N   N54       1.0  0.15953  0.97130  0.14621  1.0000
  H   H948      1.0  0.13060  0.66345  0.29210  1.0000
  H   H949      1.0  0.18775  0.79149  0.34258  1.0000
  C   C800      1.0  0.13489  0.71325  0.30507  1.0000
  H   H950      1.0  0.15428  0.67515  0.27940  1.0000
  S   S211      1.0  0.14144  0.81736  0.31929  1.0000
  Fe  Fe108     1.0  0.17446  0.79766  0.06367  1.0000
  H   H951      1.0  0.17553  0.97875  0.12465  1.0000
  H   H952      1.0  0.02937  0.58233  0.42028  1.0000
  H   H953      1.0  0.99648  0.60340  0.31754  1.0000
  H   H954      1.0  0.17799  0.80107  0.38687  1.0000
  H   H955      1.0  0.16920  0.79081  0.01568  1.0000
  H   H956      1.0  0.14294  0.95861  0.14509  1.0000
  Fe  Fe109     1.0  0.18136  0.66997  0.14833  1.0000
  C   C801      1.0  0.12227  0.69296  0.32266  1.0000
  C   C802      1.0  0.18282  0.87830  0.30944  1.0000
  C   C803      1.0  0.15031  0.95891  0.15288  1.0000
  C   C804      1.0  0.12813  0.70625  0.32018  1.0000
  H   H957      1.0  0.00344  0.84824  0.18337  1.0000
  C   C805      1.0  0.00656  0.55945  0.44813  1.0000
  H   H958      1.0  0.04949  0.74147  0.30078  1.0000
  H   H959      1.0  0.99510  0.62137  0.29015  1.0000
  C   C806      1.0  0.00835  0.77607  0.20460  1.0000
  C   C807      1.0  0.13058  0.49809  0.07351  1.0000
  H   H960      1.0  0.17154  0.72477  0.08684  1.0000
  C   C808      1.0  0.17811  0.60796  0.08624  1.0000
  H   H961      1.0  0.17902  0.66893  0.05012  1.0000
  C   C809      1.0  0.18518  0.62131  0.10729  1.0000
  H   H962      1.0  0.14313  0.95141  0.20618  1.0000
  C   C810      1.0  0.99926  0.58287  0.42763  1.0000
  C   C811      1.0  0.99477  0.55294  0.44637  1.0000
  H   H963      1.0  0.00200  0.59435  0.42078  1.0000
  H   H964      1.0  0.17421  0.62091  0.04368  1.0000
  C   C812      1.0  0.18354  0.72292  0.08784  1.0000
  N   N55       1.0  0.99600  0.62819  0.31066  1.0000
  H   H965      1.0  0.01444  0.49107  0.36239  1.0000
  H   H966      1.0  0.00708  0.87201  0.19903  1.0000
  C   C813      1.0  0.15059  0.97801  0.20659  1.0000
  C   C814      1.0  0.18374  0.76042  0.02786  1.0000
  H   H967      1.0  0.18579  0.69826  0.09723  1.0000
  H   H968      1.0  0.18654  0.77069  0.02924  1.0000
  H   H969      1.0  0.18857  0.90937  0.27913  1.0000
  C   C815      1.0  0.15868  0.49430  0.06907  1.0000
  H   H970      1.0  0.18908  0.96659  0.18790  1.0000
  S   S212      1.0  0.19007  0.62909  0.12061  1.0000
  S   S213      1.0  0.18918  0.89170  0.13755  1.0000
  H   H971      1.0  0.99724  0.67490  0.38908  1.0000
  H   H972      1.0  0.99417  0.61262  0.33355  1.0000
  H   H973      1.0  0.99095  0.81117  0.20711  1.0000
  C   C816      1.0  0.03400  0.72870  0.47798  1.0000
  C   C817      1.0  0.99121  0.55540  0.40509  1.0000
  H   H974      1.0  0.99172  0.65293  0.30989  1.0000
  C   C818      1.0  0.13231  0.48318  0.07092  1.0000
  C   C819      1.0  0.99110  0.61427  0.32211  1.0000
  H   H975      1.0  0.01893  0.52971  0.47787  1.0000
  H   H976      1.0  0.99824  0.72217  0.47829  1.0000
  N   N56       1.0  0.09067  0.83715  0.67187  1.0000
  C   C820      1.0  0.04945  0.56707  0.64747  1.0000
  C   C821      1.0  0.11183  0.73722  0.96966  1.0000
  H   H977      1.0  0.99235  0.70570  0.56390  1.0000
  H   H978      1.0  0.18049  0.89655  0.95585  1.0000
  Fe  Fe110     1.0  0.01276  0.58930  0.63206  1.0000
  S   S214      1.0  0.00744  0.59820  0.65424  1.0000
  S   S215      1.0  0.01963  0.56318  0.63280  1.0000
  Fe  Fe111     1.0  0.00791  0.62211  0.61174  1.0000
  H   H979      1.0  0.10610  0.78766  0.96572  1.0000
  S   S216      1.0  0.00656  0.63824  0.58842  1.0000
  Fe  Fe112     1.0  0.02213  0.61574  0.64002  1.0000
  S   S217      1.0  0.04152  0.62336  0.64541  1.0000
  H   H980      1.0  0.14026  0.75211  0.96118  1.0000
  H   H981      1.0  0.00720  0.67520  0.64943  1.0000
  S   S218      1.0  0.02927  0.60528  0.61870  1.0000
  C   C822      1.0  0.18500  0.49341  0.96530  1.0000
  Fe  Fe113     1.0  0.03391  0.74197  0.57311  1.0000
  S   S219      1.0  0.02198  0.72217  0.58648  1.0000
  S   S220      1.0  0.03641  0.75477  0.59019  1.0000
  Fe  Fe114     1.0  0.03340  0.73606  0.54141  1.0000
  S   S221      1.0  0.02183  0.71583  0.55280  1.0000
  Fe  Fe115     1.0  0.00645  0.73085  0.56926  1.0000
  S   S222      1.0  0.99654  0.85015  0.70950  1.0000
  Fe  Fe116     1.0  0.03848  0.70909  0.56889  1.0000
  S   S223      1.0  0.05079  0.68436  0.57730  1.0000
  S   S224      1.0  0.01690  0.75181  0.55705  1.0000
  S   S225      1.0  0.05162  0.72814  0.55633  1.0000
  C   C823      1.0  0.03253  0.59136  0.68499  1.0000
  H   H982      1.0  0.03269  0.68333  0.53299  1.0000
  Fe  Fe117     1.0  0.10513  0.77995  0.88356  1.0000
  S   S226      1.0  0.11241  0.75923  0.90194  1.0000
  S   S227      1.0  0.12049  0.79738  0.87522  1.0000
  Fe  Fe118     1.0  0.07760  0.76799  0.88202  1.0000
  S   S228      1.0  0.08266  0.74605  0.90035  1.0000
  S   S229      1.0  0.05682  0.77584  0.87068  1.0000
  Fe  Fe119     1.0  0.08681  0.76201  0.91297  1.0000
  S   S230      1.0  0.07654  0.76198  0.93848  1.0000
  Fe  Fe120     1.0  0.10773  0.74541  0.88758  1.0000
  S   S231      1.0  0.12641  0.72472  0.88179  1.0000
  S   S232      1.0  0.07978  0.78408  0.89567  1.0000
  S   S233      1.0  0.10244  0.76598  0.86811  1.0000
  S   S234      1.0  0.12277  0.82416  0.93128  1.0000
  S   S235      1.0  0.10556  0.68176  0.85117  1.0000
  S   S236      1.0  0.16350  0.97723  0.80594  1.0000
  H   H983      1.0  0.11829  0.64772  0.71561  1.0000
  H   H984      1.0  0.14292  0.93373  0.77314  1.0000
  S   S237      1.0  0.06295  0.96011  0.75218  1.0000
  Fe  Fe121     1.0  0.10056  0.92991  0.73845  1.0000
  S   S238      1.0  0.08008  0.92223  0.75639  1.0000
  S   S239      1.0  0.12392  0.91385  0.73283  1.0000
  Fe  Fe122     1.0  0.06574  0.94041  0.74041  1.0000
  S   S240      1.0  0.04656  0.93754  0.73084  1.0000
  Fe  Fe123     1.0  0.07914  0.94246  0.76654  1.0000
  S   S241      1.0  0.07901  0.94125  0.79161  1.0000
  S   S242      1.0  0.08650  0.94660  0.72171  1.0000
  S   S243      1.0  0.10095  0.94828  0.74992  1.0000
  S   S244      1.0  0.14450  0.89758  0.66600  1.0000
  H   H985      1.0  0.01167  0.66872  0.50413  1.0000
  C   C824      1.0  0.00956  0.76064  0.89494  1.0000
  H   H986      1.0  0.18012  0.75372  0.89365  1.0000
  Fe  Fe124     1.0  0.01679  0.86431  0.73376  1.0000
  C   C825      1.0  0.13421  0.88405  0.96720  1.0000
  S   S245      1.0  0.03048  0.87041  0.74778  1.0000
  H   H987      1.0  0.15677  0.79403  0.95649  1.0000
  Fe  Fe125     1.0  0.01787  0.86044  0.70161  1.0000
  S   S246      1.0  0.03321  0.86087  0.67747  1.0000
  H   H988      1.0  0.07544  0.72400  0.49517  1.0000
  S   S247      1.0  0.02937  0.84498  0.72097  1.0000
  Fe  Fe126     1.0  0.02449  0.75286  0.80453  1.0000
  S   S248      1.0  0.00822  0.74398  0.79635  1.0000
  S   S249      1.0  0.03954  0.76965  0.78971  1.0000
  Fe  Fe127     1.0  0.01781  0.73347  0.83736  1.0000
  H   H989      1.0  0.00381  0.74830  0.52797  1.0000
  S   S250      1.0  0.02633  0.72611  0.85997  1.0000
  Fe  Fe128     1.0  0.01863  0.72059  0.80961  1.0000
  S   S251      1.0  0.02617  0.69884  0.79998  1.0000
  H   H990      1.0  0.12656  0.96103  0.74795  1.0000
  S   S252      1.0  0.03634  0.72918  0.81597  1.0000
  S   S253      1.0  0.00700  0.75801  0.82629  1.0000
  Fe  Fe129     1.0  0.09735  0.77502  0.62326  1.0000
  S   S254      1.0  0.08723  0.76194  0.64705  1.0000
  S   S255      1.0  0.09756  0.76730  0.60147  1.0000
  Fe  Fe130     1.0  0.10965  0.79558  0.63699  1.0000
  S   S256      1.0  0.10046  0.78388  0.66174  1.0000
  S   S257      1.0  0.12049  0.81667  0.63194  1.0000
  Fe  Fe131     1.0  0.10952  0.76154  0.65320  1.0000
  S   S258      1.0  0.12271  0.73992  0.66699  1.0000
  Fe  Fe132     1.0  0.07905  0.78549  0.65327  1.0000
  S   S259      1.0  0.05573  0.79077  0.66960  1.0000
  S   S260      1.0  0.12060  0.77295  0.62896  1.0000
  S   S261      1.0  0.08729  0.79885  0.62898  1.0000
  Fe  Fe133     1.0  0.05331  0.68603  0.71977  1.0000
  S   S262      1.0  0.07900  0.68167  0.71881  1.0000
  S   S263      1.0  0.03737  0.70782  0.72670  1.0000
  Fe  Fe134     1.0  0.05550  0.65554  0.71107  1.0000
  S   S264      1.0  0.08148  0.64800  0.71009  1.0000
  S   S265      1.0  0.03914  0.64209  0.70831  1.0000
  Fe  Fe135     1.0  0.07661  0.65736  0.73187  1.0000
  S   S266      1.0  0.08872  0.64411  0.75205  1.0000
  Fe  Fe136     1.0  0.08190  0.67286  0.69728  1.0000
  S   S267      1.0  0.10159  0.67699  0.67640  1.0000
  S   S268      1.0  0.05049  0.66230  0.73426  1.0000
  S   S269      1.0  0.05633  0.67986  0.69672  1.0000
  C   C826      1.0  0.11640  0.72287  0.66879  1.0000
  C   C827      1.0  0.10048  0.72237  0.67399  1.0000
  C   C828      1.0  0.09580  0.70820  0.67672  1.0000
  C   C829      1.0  0.10701  0.69473  0.67361  1.0000
  C   C830      1.0  0.12283  0.69541  0.66786  1.0000
  C   C831      1.0  0.12755  0.70935  0.66583  1.0000
  H   H991      1.0  0.09192  0.73284  0.67625  1.0000
  H   H992      1.0  0.08354  0.70772  0.68103  1.0000
  H   H993      1.0  0.13150  0.68505  0.66532  1.0000
  H   H994      1.0  0.13986  0.70972  0.66185  1.0000
  C   C832      1.0  0.03000  0.70217  0.77945  1.0000
  C   C833      1.0  0.02218  0.71573  0.77055  1.0000
  C   C834      1.0  0.02474  0.71766  0.75426  1.0000
  C   C835      1.0  0.03525  0.70610  0.74682  1.0000
  C   C836      1.0  0.04359  0.69291  0.75562  1.0000
  C   C837      1.0  0.04075  0.69081  0.77192  1.0000
  H   H995      1.0  0.01370  0.72446  0.77618  1.0000
  H   H996      1.0  0.01832  0.72792  0.74749  1.0000
  H   H997      1.0  0.05206  0.68415  0.74995  1.0000
  H   H998      1.0  0.04681  0.68026  0.77866  1.0000
  C   C838      1.0  0.03866  0.84163  0.67452  1.0000
  C   C839      1.0  0.03340  0.82952  0.68641  1.0000
  C   C840      1.0  0.03848  0.81402  0.68462  1.0000
  C   C841      1.0  0.04913  0.81043  0.67106  1.0000
  C   C842      1.0  0.05441  0.82247  0.65907  1.0000
  C   C843      1.0  0.04902  0.83811  0.66073  1.0000
  H   H999      1.0  0.02549  0.83198  0.69710  1.0000
  H   H1000     1.0  0.03431  0.80479  0.69392  1.0000
  H   H1001     1.0  0.06244  0.81978  0.64844  1.0000
  H   H1002     1.0  0.05299  0.84743  0.65142  1.0000
  C   C844      1.0  0.01629  0.79951  0.74975  1.0000
  C   C845      1.0  0.02456  0.80606  0.75622  1.0000
  C   C846      1.0  0.03216  0.79675  0.76824  1.0000
  C   C847      1.0  0.03127  0.78100  0.77385  1.0000
  C   C848      1.0  0.02350  0.77440  0.76691  1.0000
  C   C849      1.0  0.01609  0.78361  0.75482  1.0000
  H   H1003     1.0  0.02474  0.81839  0.75230  1.0000
  H   H1004     1.0  0.03827  0.80187  0.77351  1.0000
  H   H1005     1.0  0.02354  0.76209  0.77055  1.0000
  S   S270      1.0  0.19044  0.82339  0.88112  1.0000
  H   H1006     1.0  0.03146  0.71251  0.52253  1.0000
  C   C850      1.0  0.14058  0.80419  0.65249  1.0000
  C   C851      1.0  0.13384  0.81749  0.64248  1.0000
  H   H1007     1.0  0.06499  0.68035  0.49843  1.0000
  H   H1008     1.0  0.13747  0.79312  0.65407  1.0000
  C   C852      1.0  0.04198  0.91891  0.73577  1.0000
  C   C853      1.0  0.04725  0.90721  0.74799  1.0000
  C   C854      1.0  0.04347  0.89246  0.75165  1.0000
  C   C855      1.0  0.03451  0.88926  0.74306  1.0000
  C   C856      1.0  0.02931  0.90094  0.73078  1.0000
  C   C857      1.0  0.03299  0.91574  0.72719  1.0000
  H   H1009     1.0  0.05398  0.90957  0.75483  1.0000
  H   H1010     1.0  0.04743  0.88350  0.76123  1.0000
  H   H1011     1.0  0.02243  0.89862  0.72407  1.0000
  H   H1012     1.0  0.02888  0.92472  0.71771  1.0000
  C   C858      1.0  0.12986  0.91035  0.71385  1.0000
  C   C859      1.0  0.14291  0.89838  0.71060  1.0000
  H   H1013     1.0  0.05107  0.54371  0.64550  1.0000
  C   C860      1.0  0.13919  0.90301  0.68415  1.0000
  C   C861      1.0  0.12631  0.91527  0.68726  1.0000
  C   C862      1.0  0.12168  0.91897  0.70210  1.0000
  C   C863      1.0  0.18422  0.63140  0.85360  1.0000
  H   H1014     1.0  0.11991  0.92182  0.67821  1.0000
  H   H1015     1.0  0.11180  0.92844  0.70440  1.0000
  C   C864      1.0  0.09215  0.95227  0.79149  1.0000
  C   C865      1.0  0.09509  0.96475  0.77890  1.0000
  H   H1016     1.0  0.07292  0.65098  0.82120  1.0000
  C   C866      1.0  0.11755  0.96580  0.78770  1.0000
  C   C867      1.0  0.11384  0.95422  0.80106  1.0000
  C   C868      1.0  0.10101  0.94756  0.80303  1.0000
  H   H1017     1.0  0.03712  0.74984  0.48203  1.0000
  H   H1018     1.0  0.18631  0.89193  0.77968  1.0000
  H   H1019     1.0  0.12116  0.95000  0.80958  1.0000
  H   H1020     1.0  0.09841  0.93827  0.81309  1.0000
  C   C869      1.0  0.11447  0.66692  0.77359  1.0000
  C   C870      1.0  0.09766  0.65331  0.76096  1.0000
  C   C871      1.0  0.09670  0.66947  0.75673  1.0000
  C   C872      1.0  0.10509  0.67621  0.76299  1.0000
  H   H1021     1.0  0.08970  0.67676  0.74843  1.0000
  H   H1022     1.0  0.10451  0.68869  0.75937  1.0000
  H   H1023     1.0  0.06784  0.65586  0.51579  1.0000
  H   H1024     1.0  0.13352  0.89523  0.86969  1.0000
  C   C873      1.0  0.03082  0.70777  0.50091  1.0000
  C   C874      1.0  0.09016  0.75243  0.95043  1.0000
  C   C875      1.0  0.08686  0.75450  0.96581  1.0000
  C   C876      1.0  0.10428  0.74271  0.94472  1.0000
  C   C877      1.0  0.16597  0.63098  0.89557  1.0000
  H   H1025     1.0  0.10667  0.74064  0.93308  1.0000
  C   C878      1.0  0.04846  0.76173  0.86815  1.0000
  C   C879      1.0  0.03743  0.76661  0.85870  1.0000
  C   C880      1.0  0.03076  0.75569  0.85604  1.0000
  C   C881      1.0  0.03485  0.73984  0.86305  1.0000
  C   C882      1.0  0.04570  0.73495  0.87277  1.0000
  C   C883      1.0  0.05264  0.74585  0.87519  1.0000
  H   H1026     1.0  0.03415  0.77887  0.85325  1.0000
  H   H1027     1.0  0.02227  0.75963  0.84875  1.0000
  H   H1028     1.0  0.04880  0.72270  0.87834  1.0000
  H   H1029     1.0  0.06111  0.74199  0.88253  1.0000
  C   C884      1.0  0.12016  0.71356  0.87277  1.0000
  C   C885      1.0  0.13122  0.70521  0.86224  1.0000
  C   C886      1.0  0.12669  0.69561  0.85544  1.0000
  C   C887      1.0  0.11108  0.69418  0.85931  1.0000
  C   C888      1.0  0.09986  0.70286  0.86953  1.0000
  C   C889      1.0  0.10438  0.71266  0.87618  1.0000
  H   H1030     1.0  0.14326  0.70634  0.85921  1.0000
  H   H1031     1.0  0.13529  0.68929  0.84722  1.0000
  H   H1032     1.0  0.08774  0.70186  0.87246  1.0000
  H   H1033     1.0  0.09577  0.71910  0.88430  1.0000
  C   C890      1.0  0.12155  0.80391  0.89121  1.0000
  C   C891      1.0  0.13368  0.81118  0.88985  1.0000
  C   C892      1.0  0.13447  0.81672  0.90245  1.0000
  C   C893      1.0  0.12280  0.81555  0.91625  1.0000
  C   C894      1.0  0.11076  0.80811  0.91769  1.0000
  C   C895      1.0  0.11026  0.80209  0.90525  1.0000
  H   H1034     1.0  0.14249  0.81252  0.87908  1.0000
  H   H1035     1.0  0.03609  0.66655  0.54872  1.0000
  H   H1036     1.0  0.10171  0.80712  0.92832  1.0000
  H   H1037     1.0  0.10091  0.79639  0.90642  1.0000
  C   C896      1.0  0.16903  0.75664  0.90164  1.0000
  H   H1038     1.0  0.16052  0.73037  0.84246  1.0000
  C   C897      1.0  0.05351  0.75869  0.59263  1.0000
  C   C898      1.0  0.05261  0.76405  0.60600  1.0000
  C   C899      1.0  0.06595  0.76698  0.60872  1.0000
  C   C900      1.0  0.08031  0.76470  0.59799  1.0000
  C   C901      1.0  0.08121  0.75946  0.58453  1.0000
  C   C902      1.0  0.06788  0.75640  0.58187  1.0000
  H   H1039     1.0  0.04152  0.76595  0.61432  1.0000
  H   H1040     1.0  0.06509  0.77106  0.61908  1.0000
  H   H1041     1.0  0.09228  0.75769  0.57616  1.0000
  H   H1042     1.0  0.06869  0.75234  0.57151  1.0000
  C   C903      1.0  0.04005  0.62990  0.66240  1.0000
  C   C904      1.0  0.02650  0.63042  0.67435  1.0000
  C   C905      1.0  0.02630  0.63446  0.68826  1.0000
  C   C906      1.0  0.03943  0.63848  0.69014  1.0000
  C   C907      1.0  0.05272  0.63865  0.67788  1.0000
  C   C908      1.0  0.05306  0.63425  0.66411  1.0000
  H   H1043     1.0  0.01631  0.62735  0.67305  1.0000
  H   H1044     1.0  0.01595  0.63439  0.69769  1.0000
  H   H1045     1.0  0.06290  0.64168  0.67924  1.0000
  H   H1046     1.0  0.06357  0.63394  0.65488  1.0000
  C   C909      1.0  0.01878  0.65102  0.58554  1.0000
  C   C910      1.0  0.03408  0.64517  0.58795  1.0000
  C   C911      1.0  0.04391  0.65546  0.58551  1.0000
  C   C912      1.0  0.03825  0.67160  0.58112  1.0000
  C   C913      1.0  0.02272  0.67745  0.57941  1.0000
  C   C914      1.0  0.01308  0.66716  0.58128  1.0000
  H   H1047     1.0  0.03844  0.63267  0.59139  1.0000
  H   H1048     1.0  0.05587  0.65089  0.58701  1.0000
  H   H1049     1.0  0.01805  0.68989  0.57671  1.0000
  S   S271      1.0  0.99343  0.53553  0.59068  1.0000
  S   S272      1.0  0.16104  0.95722  0.84267  1.0000
  H   H1050     1.0  0.08759  0.97098  0.83506  1.0000
  C   C915      1.0  0.00188  0.54290  0.60166  1.0000
  Fe  Fe137     1.0  0.18404  0.85733  0.69061  1.0000
  C   C916      1.0  0.00288  0.56531  0.61085  1.0000
  C   C917      1.0  0.01296  0.55561  0.62049  1.0000
  C   C918      1.0  0.01762  0.53952  0.62056  1.0000
  C   C919      1.0  0.01216  0.53318  0.61111  1.0000
  H   H1051     1.0  0.11870  0.90471  0.92504  1.0000
  H   H1052     1.0  0.18673  0.50266  0.94058  1.0000
  H   H1053     1.0  0.02546  0.53195  0.62794  1.0000
  H   H1054     1.0  0.01573  0.52077  0.61130  1.0000
  H   H1055     1.0  0.14455  0.79801  0.84699  1.0000
  N   N57       1.0  0.06011  0.75138  0.70492  1.0000
  C   C920      1.0  0.04528  0.76168  0.70101  1.0000
  C   C921      1.0  0.07347  0.75854  0.69518  1.0000
  C   C922      1.0  0.06213  0.73634  0.70042  1.0000
  C   C923      1.0  0.05938  0.74963  0.72177  1.0000
  C   C924      1.0  0.05828  0.76288  0.72767  1.0000
  C   C925      1.0  0.05898  0.73516  0.73286  1.0000
  C   C926      1.0  0.05695  0.76170  0.74361  1.0000
  C   C927      1.0  0.05737  0.73417  0.74884  1.0000
  C   C928      1.0  0.05629  0.74742  0.75421  1.0000
  H   H1056     1.0  0.04363  0.77379  0.70252  1.0000
  H   H1057     1.0  0.04500  0.76288  0.68855  1.0000
  H   H1058     1.0  0.03491  0.75700  0.70854  1.0000
  H   H1059     1.0  0.07200  0.77074  0.69629  1.0000
  H   H1060     1.0  0.07464  0.75946  0.68247  1.0000
  H   H1061     1.0  0.08479  0.75154  0.69830  1.0000
  H   H1062     1.0  0.07292  0.72784  0.70334  1.0000
  H   H1063     1.0  0.05184  0.73092  0.70630  1.0000
  H   H1064     1.0  0.06308  0.73802  0.68762  1.0000
  H   H1065     1.0  0.05808  0.77436  0.72003  1.0000
  H   H1066     1.0  0.05955  0.72447  0.72957  1.0000
  H   H1067     1.0  0.05593  0.77204  0.74785  1.0000
  H   H1068     1.0  0.05661  0.72309  0.75713  1.0000
  H   H1069     1.0  0.05458  0.74673  0.76664  1.0000
  C   C929      1.0  0.17365  0.68737  0.84215  1.0000
  C   C930      1.0  0.17600  0.69357  0.85363  1.0000
  S   S273      1.0  0.00652  0.88054  0.71374  1.0000
  N   N58       1.0  0.18841  0.61828  0.90917  1.0000
  C   C931      1.0  0.12848  0.79660  0.97175  1.0000
  C   C932      1.0  0.03205  0.71337  0.48473  1.0000
  H   H1070     1.0  0.03270  0.97062  0.71710  1.0000
  H   H1071     1.0  0.15771  0.79910  0.82813  1.0000
  C   C933      1.0  0.00847  0.67733  0.77011  1.0000
  H   H1072     1.0  0.15832  0.81014  0.84154  1.0000
  H   H1073     1.0  0.12302  0.96778  0.71311  1.0000
  H   H1074     1.0  0.06915  0.85372  0.67895  1.0000
  H   H1075     1.0  0.01969  0.72137  0.90807  1.0000
  S   S274      1.0  0.00100  0.72241  0.83218  1.0000
  H   H1076     1.0  0.12725  0.94838  0.72471  1.0000
  Fe  Fe138     1.0  0.00367  0.49319  0.56130  1.0000
  H   H1077     1.0  0.03267  0.72922  0.92368  1.0000
  S   S275      1.0  0.15036  0.84599  0.94019  1.0000
  H   H1078     1.0  0.18694  0.78937  0.82655  1.0000
  H   H1079     1.0  0.17373  0.77865  0.90150  1.0000
  H   H1080     1.0  0.17230  0.91167  0.73191  1.0000
  H   H1081     1.0  0.07588  0.76192  0.97032  1.0000
  C   C934      1.0  0.07243  0.71312  0.50237  1.0000
  H   H1082     1.0  0.13123  0.86985  0.67371  1.0000
  N   N59       1.0  0.08016  0.73195  0.82871  1.0000
  C   C935      1.0  0.07346  0.71849  0.83881  1.0000
  C   C936      1.0  0.09303  0.73325  0.83510  1.0000
  C   C937      1.0  0.06773  0.74644  0.82976  1.0000
  C   C938      1.0  0.08625  0.72936  0.81254  1.0000
  C   C939      1.0  0.07894  0.73827  0.79989  1.0000
  C   C940      1.0  0.09962  0.71729  0.80912  1.0000
  C   C941      1.0  0.08505  0.73554  0.78475  1.0000
  C   C942      1.0  0.10565  0.71473  0.79390  1.0000
  C   C943      1.0  0.09838  0.72383  0.78175  1.0000
  H   H1083     1.0  0.08230  0.70724  0.83903  1.0000
  H   H1084     1.0  0.06901  0.71978  0.85118  1.0000
  H   H1085     1.0  0.06345  0.71730  0.83474  1.0000
  H   H1086     1.0  0.08860  0.73613  0.84692  1.0000
  H   H1087     1.0  0.09912  0.74256  0.82725  1.0000
  H   H1088     1.0  0.10200  0.72216  0.83677  1.0000
  H   H1089     1.0  0.07180  0.75696  0.82182  1.0000
  H   H1090     1.0  0.05678  0.74570  0.82700  1.0000
  H   H1091     1.0  0.06423  0.74868  0.84177  1.0000
  H   H1092     1.0  0.06850  0.74748  0.80135  1.0000
  H   H1093     1.0  0.10543  0.70961  0.81823  1.0000
  H   H1094     1.0  0.07942  0.74268  0.77527  1.0000
  H   H1095     1.0  0.11596  0.70553  0.79150  1.0000
  H   H1096     1.0  0.10310  0.72174  0.77000  1.0000
  N   N60       1.0  0.04842  0.58100  0.68357  1.0000
  C   C944      1.0  0.17544  0.81029  0.62139  1.0000
  H   H1097     1.0  0.18780  0.50350  0.96719  1.0000
  C   C945      1.0  0.05001  0.57041  0.67318  1.0000
  H   H1098     1.0  0.02399  0.68765  0.60700  1.0000
  C   C946      1.0  0.05197  0.55389  0.67854  1.0000
  H   H1099     1.0  0.03056  0.59894  0.67351  1.0000
  C   C947      1.0  0.05250  0.54439  0.66857  1.0000
  H   H1100     1.0  0.12031  0.97856  0.73416  1.0000
  H   H1101     1.0  0.18170  0.94360  0.75325  1.0000
  H   H1102     1.0  0.03059  0.59934  0.69301  1.0000
  N   N61       1.0  0.12993  0.78085  0.96903  1.0000
  C   C948      1.0  0.03522  0.73813  0.48737  1.0000
  H   H1103     1.0  0.07244  0.58341  0.67536  1.0000
  H   H1104     1.0  0.05288  0.54801  0.69040  1.0000
  H   H1105     1.0  0.14845  0.78693  0.91918  1.0000
  C   C949      1.0  0.01875  0.73372  0.90712  1.0000
  C   C950      1.0  0.18764  0.49927  0.90624  1.0000
  N   N62       1.0  0.10277  0.86979  0.89506  1.0000
  C   C951      1.0  0.11192  0.87242  0.87864  1.0000
  C   C952      1.0  0.10633  0.85268  0.90171  1.0000
  C   C953      1.0  0.08577  0.87463  0.89503  1.0000
  C   C954      1.0  0.10669  0.87915  0.90385  1.0000
  C   C955      1.0  0.10401  0.89572  0.89889  1.0000
  C   C956      1.0  0.11348  0.87228  0.91721  1.0000
  C   C957      1.0  0.10814  0.90480  0.90658  1.0000
  C   C958      1.0  0.11759  0.88149  0.92479  1.0000
  C   C959      1.0  0.11501  0.89769  0.91945  1.0000
  H   H1106     1.0  0.12477  0.86937  0.87829  1.0000
  H   H1107     1.0  0.10973  0.86512  0.87179  1.0000
  H   H1108     1.0  0.10898  0.88479  0.87223  1.0000
  H   H1109     1.0  0.10335  0.84585  0.89490  1.0000
  H   H1110     1.0  0.09960  0.84964  0.91399  1.0000
  H   H1111     1.0  0.11907  0.84820  0.90156  1.0000
  H   H1112     1.0  0.08236  0.88701  0.88881  1.0000
  H   H1113     1.0  0.08228  0.86737  0.88907  1.0000
  H   H1114     1.0  0.07856  0.87340  0.90723  1.0000
  H   H1115     1.0  0.09910  0.90180  0.88871  1.0000
  H   H1116     1.0  0.11598  0.85980  0.92192  1.0000
  H   H1117     1.0  0.10652  0.91737  0.90219  1.0000
  H   H1118     1.0  0.02089  0.70779  0.61945  1.0000
  H   H1119     1.0  0.01705  0.66644  0.77228  1.0000
  C   C960      1.0  0.05632  0.88445  0.69145  1.0000
  H   H1120     1.0  0.04729  0.86983  0.71321  1.0000
  H   H1121     1.0  0.04779  0.88350  0.68560  1.0000
  H   H1122     1.0  0.15430  0.78353  0.87090  1.0000
  H   H1123     1.0  0.15929  0.91802  0.89669  1.0000
  C   C961      1.0  0.12646  0.84696  0.67827  1.0000
  C   C962      1.0  0.14971  0.75177  0.85055  1.0000
  H   H1124     1.0  0.04853  0.66880  0.61319  1.0000
  Fe  Fe139     1.0  0.17421  0.95332  0.81860  1.0000
  C   C963      1.0  0.15048  0.89389  0.76338  1.0000
  N   N63       1.0  0.03328  0.76009  0.92375  1.0000
  C   C964      1.0  0.04309  0.74719  0.93330  1.0000
  C   C965      1.0  0.04363  0.77051  0.91311  1.0000
  C   C966      1.0  0.02111  0.76904  0.93458  1.0000
  C   C967      1.0  0.02560  0.75458  0.91452  1.0000
  C   C968      1.0  0.02626  0.73845  0.91597  1.0000
  C   C969      1.0  0.01693  0.76552  0.90378  1.0000
  H   H1125     1.0  0.00347  0.76918  0.88641  1.0000
  C   C970      1.0  0.18255  0.88802  0.94839  1.0000
  H   H1126     1.0  0.99911  0.67683  0.79433  1.0000
  H   H1127     1.0  0.05265  0.74011  0.92579  1.0000
  C   C971      1.0  0.14986  0.88141  0.95902  1.0000
  H   H1128     1.0  0.03598  0.73936  0.94233  1.0000
  H   H1129     1.0  0.05178  0.76477  0.90373  1.0000
  H   H1130     1.0  0.05083  0.77363  0.91944  1.0000
  H   H1131     1.0  0.03707  0.78177  0.90712  1.0000
  H   H1132     1.0  0.01295  0.76168  0.94266  1.0000
  H   H1133     1.0  0.02648  0.77323  0.94186  1.0000
  H   H1134     1.0  0.01394  0.77957  0.92818  1.0000
  C   C972      1.0  0.18426  0.49299  0.95035  1.0000
  H   H1135     1.0  0.01601  0.77796  0.90191  1.0000
  C   C973      1.0  0.01044  0.74478  0.89663  1.0000
  H   H1136     1.0  0.12096  0.78980  0.94798  1.0000
  S   S276      1.0  0.18604  0.81578  0.95754  1.0000
  N   N64       1.0  0.16186  0.73181  0.90162  1.0000
  H   H1137     1.0  0.07975  0.65944  0.53619  1.0000
  C   C974      1.0  0.00548  0.48708  0.52380  1.0000
  H   H1138     1.0  0.12214  0.93764  0.77473  1.0000
  C   C975      1.0  0.16707  0.82276  0.61201  1.0000
  C   C976      1.0  0.17798  0.72262  0.90273  1.0000
  H   H1139     1.0  0.16639  0.87739  0.74997  1.0000
  H   H1140     1.0  0.04121  0.56586  0.70590  1.0000
  H   H1141     1.0  0.11646  0.80125  0.97821  1.0000
  H   H1142     1.0  0.12923  0.76986  0.92910  1.0000
  H   H1143     1.0  0.02435  0.66102  0.65382  1.0000
  C   C977      1.0  0.00806  0.68537  0.75474  1.0000
  H   H1144     1.0  0.00509  0.74101  0.88943  1.0000
  H   H1145     1.0  0.14880  0.74334  0.88365  1.0000
  S   S277      1.0  0.16141  0.85626  0.68607  1.0000
  C   C978      1.0  0.99741  0.69958  0.75184  1.0000
  C   C979      1.0  0.06742  0.66293  0.54262  1.0000
  H   H1146     1.0  0.05371  0.53185  0.67289  1.0000
  H   H1147     1.0  0.06358  0.65217  0.55027  1.0000
  H   H1148     1.0  0.06752  0.67001  0.55076  1.0000
  C   C980      1.0  0.04234  0.69076  0.84661  1.0000
  H   H1149     1.0  0.17765  0.89907  0.86838  1.0000
  H   H1150     1.0  0.14014  0.95409  0.70620  1.0000
  C   C981      1.0  0.14797  0.92218  0.87748  1.0000
  H   H1151     1.0  0.18911  0.87589  0.76085  1.0000
  H   H1152     1.0  0.18548  0.80007  0.84086  1.0000
  C   C982      1.0  0.16972  0.92326  0.73432  1.0000
  C   C983      1.0  0.00522  0.48357  0.49821  1.0000
  N   N65       1.0  0.16855  0.78541  0.84728  1.0000
  C   C984      1.0  0.17941  0.63213  0.89987  1.0000
  H   H1153     1.0  0.05183  0.64998  0.53090  1.0000
  H   H1154     1.0  0.17089  0.62120  0.93030  1.0000
  C   C985      1.0  0.16630  0.78485  0.86420  1.0000
  C   C986      1.0  0.04885  0.57668  0.65730  1.0000
  H   H1155     1.0  0.04776  0.66587  0.51487  1.0000
  C   C987      1.0  0.13342  0.92943  0.77119  1.0000
  H   H1156     1.0  0.18040  0.71115  0.89938  1.0000
  H   H1157     1.0  0.12596  0.72755  0.94987  1.0000
  H   H1158     1.0  0.10736  0.81582  0.66790  1.0000
  H   H1159     1.0  0.07632  0.88412  0.73890  1.0000
  C   C988      1.0  0.04094  0.67666  0.54078  1.0000
  H   H1160     1.0  0.06197  0.69592  0.54059  1.0000
  N   N66       1.0  0.05696  0.67155  0.53159  1.0000
  C   C989      1.0  0.05610  0.66035  0.52284  1.0000
  C   C990      1.0  0.18897  0.70022  0.85077  1.0000
  C   C991      1.0  0.05113  0.55099  0.65311  1.0000
  H   H1161     1.0  0.99641  0.80196  0.78788  1.0000
  C   C992      1.0  0.17652  0.74574  0.83637  1.0000
  H   H1162     1.0  0.05934  0.59899  0.68435  1.0000
  H   H1163     1.0  0.09992  0.84050  0.64697  1.0000
  H   H1164     1.0  0.08188  0.69697  0.80657  1.0000
  S   S278      1.0  0.12966  0.96972  0.82776  1.0000
  H   H1165     1.0  0.16503  0.84672  0.59958  1.0000
  C   C993      1.0  0.18327  0.88892  0.86271  1.0000
  C   C994      1.0  0.13089  0.67778  0.72046  1.0000
  C   C995      1.0  0.03199  0.97861  0.72472  1.0000
  C   C996      1.0  0.13783  0.64913  0.73107  1.0000
  C   C997      1.0  0.14519  0.89098  0.88856  1.0000
  H   H1166     1.0  0.06712  0.83406  0.68315  1.0000
  H   H1167     1.0  0.06222  0.56468  0.69948  1.0000
  C   C998      1.0  0.10781  0.97146  0.77694  1.0000
  H   H1168     1.0  0.17840  0.67086  0.88212  1.0000
  C   C999      1.0  0.14912  0.75900  0.95742  1.0000
  C   C1000     1.0  0.16062  0.73604  0.88500  1.0000
  H   H1169     1.0  0.06327  0.97762  0.72049  1.0000
  H   H1170     1.0  0.13611  0.97695  0.74285  1.0000
  C   C1001     1.0  0.15815  0.78240  0.95482  1.0000
  H   H1171     1.0  0.11940  0.91111  0.76491  1.0000
  H   H1172     1.0  0.10802  0.91592  0.78270  1.0000
  C   C1002     1.0  0.01740  0.68148  0.61819  1.0000
  S   S279      1.0  0.18712  0.87921  0.67238  1.0000
  C   C1003     1.0  0.17566  0.76093  0.94356  1.0000
  C   C1004     1.0  0.14048  0.76605  0.92164  1.0000
  C   C1005     1.0  0.16503  0.88424  0.75852  1.0000
  C   C1006     1.0  0.14409  0.75150  0.91764  1.0000
  C   C1007     1.0  0.17497  0.94118  0.74637  1.0000
  C   C1008     1.0  0.08842  0.84140  0.65553  1.0000
  C   C1009     1.0  0.99682  0.68405  0.48889  1.0000
  H   H1173     1.0  0.12483  0.88835  0.96085  1.0000
  Fe  Fe140     1.0  0.08509  0.96458  0.73481  1.0000
  C   C1010     1.0  0.15027  0.61298  0.86672  1.0000
  H   H1174     1.0  0.03683  0.97098  0.73495  1.0000
  H   H1175     1.0  0.10633  0.88364  0.66551  1.0000
  C   C1011     1.0  0.15679  0.79871  0.84069  1.0000
  C   C1012     1.0  0.99819  0.68345  0.78264  1.0000
  S   S280      1.0  0.16159  0.58317  0.90631  1.0000
  C   C1013     1.0  0.04079  0.66313  0.62379  1.0000
  H   H1176     1.0  0.04464  0.69059  0.86954  1.0000
  H   H1177     1.0  0.99929  0.57769  0.61059  1.0000
  H   H1178     1.0  0.14960  0.64926  0.73242  1.0000
  Fe  Fe141     1.0  0.17354  0.82880  0.93791  1.0000
  H   H1179     1.0  0.04898  0.75172  0.93983  1.0000
  H   H1180     1.0  0.13262  0.90033  0.80389  1.0000
  C   C1014     1.0  0.17784  0.88341  0.76456  1.0000
  C   C1015     1.0  0.07636  0.72006  0.60958  1.0000
  C   C1016     1.0  0.15119  0.77575  0.91591  1.0000
  N   N67       1.0  0.02724  0.67488  0.63009  1.0000
  H   H1181     1.0  0.03102  0.72641  0.62610  1.0000
  C   C1017     1.0  0.16163  0.65823  0.88203  1.0000
  S   S281      1.0  0.00481  0.81121  0.73650  1.0000
  C   C1018     1.0  0.03294  0.68680  0.63397  1.0000
  C   C1019     1.0  0.04296  0.68222  0.64475  1.0000
  C   C1020     1.0  0.02864  0.70311  0.62752  1.0000
  C   C1021     1.0  0.04844  0.69325  0.64866  1.0000
  C   C1022     1.0  0.18426  0.68785  0.82769  1.0000
  C   C1023     1.0  0.04415  0.70912  0.64195  1.0000
  H   H1182     1.0  0.99208  0.81450  0.77001  1.0000
  C   C1024     1.0  0.18434  0.78872  0.83940  1.0000
  H   H1183     1.0  0.00645  0.68979  0.62239  1.0000
  Fe  Fe142     1.0  0.99874  0.51055  0.58763  1.0000
  N   N68       1.0  0.18951  0.89409  0.84565  1.0000
  H   H1184     1.0  0.17747  0.78204  0.97658  1.0000
  C   C1025     1.0  0.08552  0.97971  0.82456  1.0000
  C   C1026     1.0  0.17621  0.90444  0.83870  1.0000
  C   C1027     1.0  0.18117  0.86227  0.94744  1.0000
  H   H1185     1.0  0.04651  0.67007  0.65038  1.0000
  H   H1186     1.0  0.01367  0.67215  0.61525  1.0000
  H   H1187     1.0  0.05599  0.68945  0.65701  1.0000
  C   C1028     1.0  0.17829  0.92633  0.74324  1.0000
  H   H1188     1.0  0.04844  0.71766  0.64493  1.0000
  C   C1029     1.0  0.12538  0.69120  0.70939  1.0000
  C   C1030     1.0  0.12406  0.70635  0.71104  1.0000
  C   C1031     1.0  0.13332  0.69570  0.73507  1.0000
  C   C1032     1.0  0.12800  0.70860  0.72388  1.0000
  H   H1189     1.0  0.12218  0.69007  0.69926  1.0000
  H   H1190     1.0  0.12008  0.71640  0.70223  1.0000
  H   H1191     1.0  0.13622  0.69742  0.74519  1.0000
  H   H1192     1.0  0.12698  0.72035  0.72513  1.0000
  H   H1193     1.0  0.13865  0.72678  0.90865  1.0000
  H   H1194     1.0  0.08769  0.96906  0.77047  1.0000
  S   S282      1.0  0.12440  0.65155  0.82432  1.0000
  H   H1195     1.0  0.15065  0.71822  0.92319  1.0000
  H   H1196     1.0  0.15654  0.82156  0.60943  1.0000
  S   S283      1.0  0.12584  0.67587  0.77997  1.0000
  H   H1197     1.0  0.13525  0.74462  0.92252  1.0000
  C   C1033     1.0  0.17906  0.82266  0.97496  1.0000
  C   C1034     1.0  0.05612  0.87663  0.70697  1.0000
  H   H1198     1.0  0.18010  0.91045  0.82633  1.0000
  C   C1035     1.0  0.16646  0.77053  0.84532  1.0000
  S   S284      1.0  0.17805  0.86335  0.64839  1.0000
  H   H1199     1.0  0.04946  0.58105  0.70700  1.0000
  C   C1036     1.0  0.00725  0.49258  0.50751  1.0000
  C   C1037     1.0  0.06935  0.71066  0.51863  1.0000
  H   H1200     1.0  0.14197  0.77325  0.85816  1.0000
  S   S285      1.0  0.15974  0.88583  0.91286  1.0000
  C   C1038     1.0  0.06462  0.69705  0.52803  1.0000
  C   C1039     1.0  0.17869  0.76008  0.83725  1.0000
  H   H1201     1.0  0.09090  0.65436  0.82282  1.0000
  H   H1202     1.0  0.04707  0.58913  0.65240  1.0000
  S   S286      1.0  0.02010  0.49713  0.57361  1.0000
  H   H1203     1.0  0.08143  0.85350  0.65242  1.0000
  C   C1040     1.0  0.14833  0.90288  0.77465  1.0000
  H   H1204     1.0  0.02925  0.69596  0.50617  1.0000
  Fe  Fe143     1.0  0.14857  0.98022  0.82962  1.0000
  Fe  Fe144     1.0  0.17662  0.83122  0.90322  1.0000
  H   H1205     1.0  0.04076  0.68441  0.54836  1.0000
  H   H1206     1.0  0.01040  0.50377  0.50205  1.0000
  C   C1041     1.0  0.11494  0.65085  0.77834  1.0000
  C   C1042     1.0  0.10657  0.64408  0.77202  1.0000
  H   H1207     1.0  0.10820  0.66232  0.72674  1.0000
  N   N69       1.0  0.13308  0.91318  0.78003  1.0000
  H   H1208     1.0  0.17516  0.89346  0.93951  1.0000
  H   H1209     1.0  0.08937  0.91353  0.70337  1.0000
  S   S287      1.0  0.13500  0.97229  0.78356  1.0000
  C   C1043     1.0  0.12294  0.86323  0.67381  1.0000
  H   H1210     1.0  0.16597  0.74097  0.94676  1.0000
  C   C1044     1.0  0.03188  0.71722  0.51027  1.0000
  C   C1045     1.0  0.06280  0.68546  0.52135  1.0000
  C   C1046     1.0  0.06631  0.68823  0.50469  1.0000
  C   C1047     1.0  0.06681  0.87796  0.71477  1.0000
  C   C1048     1.0  0.06726  0.89367  0.68360  1.0000
  H   H1211     1.0  0.06560  0.87185  0.72691  1.0000
  H   H1212     1.0  0.06723  0.89991  0.67157  1.0000
  Fe  Fe145     1.0  0.13591  0.66588  0.80194  1.0000
  C   C1049     1.0  0.11765  0.65986  0.71642  1.0000
  C   C1050     1.0  0.13486  0.68050  0.73340  1.0000
  H   H1213     1.0  0.12925  0.65007  0.74239  1.0000
  H   H1214     1.0  0.11381  0.66767  0.70576  1.0000
  H   H1215     1.0  0.05890  0.72311  0.59642  1.0000
  C   C1051     1.0  0.09832  0.86247  0.66893  1.0000
  C   C1052     1.0  0.15166  0.80512  0.66019  1.0000
  H   H1216     1.0  0.09605  0.68069  0.81449  1.0000
  N   N70       1.0  0.13275  0.66187  0.71802  1.0000
  C   C1053     1.0  0.13799  0.83178  0.64055  1.0000
  H   H1217     1.0  0.13281  0.84213  0.63285  1.0000
  H   H1218     1.0  0.13865  0.63734  0.72917  1.0000
  H   H1219     1.0  0.13897  0.67112  0.74260  1.0000
  C   C1054     1.0  0.13927  0.90016  0.87548  1.0000
  H   H1220     1.0  0.11748  0.77077  0.95853  1.0000
  Fe  Fe146     1.0  0.12640  0.66987  0.83542  1.0000
  C   C1055     1.0  0.07801  0.89512  0.69128  1.0000
  S   S288      1.0  0.03705  0.74406  0.51489  1.0000
  S   S289      1.0  0.13656  0.68485  0.81302  1.0000
  C   C1056     1.0  0.07812  0.88730  0.70713  1.0000
  H   H1221     1.0  0.10732  0.63157  0.77542  1.0000
  H   H1222     1.0  0.08613  0.90258  0.68479  1.0000
  H   H1223     1.0  0.14887  0.93431  0.87334  1.0000
  C   C1057     1.0  0.14466  0.65978  0.70342  1.0000
  H   H1224     1.0  0.14096  0.66809  0.69288  1.0000
  H   H1225     1.0  0.13740  0.91929  0.79972  1.0000
  C   C1058     1.0  0.14577  0.77416  0.96051  1.0000
  H   H1226     1.0  0.18614  0.73771  0.83058  1.0000
  C   C1059     1.0  0.11512  0.73520  0.95428  1.0000
  C   C1060     1.0  0.14908  0.83271  0.64825  1.0000
  H   H1227     1.0  0.12209  0.64357  0.78653  1.0000
  H   H1228     1.0  0.17129  0.79948  0.62611  1.0000
  C   C1061     1.0  0.99997  0.67567  0.50340  1.0000
  C   C1062     1.0  0.03433  0.73237  0.50355  1.0000
  C   C1063     1.0  0.09615  0.81986  0.67600  1.0000
  H   H1229     1.0  0.16751  0.49249  0.90396  1.0000
  H   H1230     1.0  0.10831  0.89120  0.69435  1.0000
  H   H1231     1.0  0.15235  0.84372  0.64648  1.0000
  C   C1064     1.0  0.15055  0.60571  0.88248  1.0000
  S   S290      1.0  0.00196  0.63378  0.63188  1.0000
  H   H1232     1.0  0.14673  0.64779  0.70138  1.0000
  C   C1065     1.0  0.14754  0.89473  0.69582  1.0000
  H   H1233     1.0  0.09774  0.81572  0.68828  1.0000
  H   H1234     1.0  0.14403  0.82207  0.90134  1.0000
  C   C1066     1.0  0.13023  0.91262  0.79708  1.0000
  C   C1067     1.0  0.11612  0.83831  0.67782  1.0000
  C   C1068     1.0  0.17624  0.89245  0.77521  1.0000
  H   H1235     1.0  0.07432  0.91069  0.72077  1.0000
  H   H1236     1.0  0.08806  0.65516  0.80406  1.0000
  H   H1237     1.0  0.15607  0.66174  0.70390  1.0000
  C   C1069     1.0  0.99736  0.55897  0.60152  1.0000
  H   H1238     1.0  0.12317  0.87600  0.93466  1.0000
  H   H1239     1.0  0.05816  0.97421  0.70424  1.0000
  C   C1070     1.0  0.99198  0.74695  0.53522  1.0000
  N   N71       1.0  0.08943  0.88930  0.71506  1.0000
  C   C1071     1.0  0.08676  0.90607  0.71531  1.0000
  C   C1072     1.0  0.08190  0.65820  0.81561  1.0000
  H   H1240     1.0  0.07141  0.67607  0.79086  1.0000
  H   H1241     1.0  0.09330  0.68275  0.79531  1.0000
  C   C1073     1.0  0.17978  0.48868  0.90451  1.0000
  H   H1242     1.0  0.16766  0.69338  0.86473  1.0000
  C   C1074     1.0  0.07565  0.97815  0.81605  1.0000
  H   H1243     1.0  0.08119  0.73735  0.62793  1.0000
  S   S291      1.0  0.16042  0.65304  0.80451  1.0000
  H   H1244     1.0  0.04811  0.57216  0.63549  1.0000
  C   C1075     1.0  0.10172  0.84585  0.67302  1.0000
  H   H1245     1.0  0.14938  0.89170  0.71957  1.0000
  C   C1076     1.0  0.18516  0.83868  0.61025  1.0000
  C   C1077     1.0  0.10574  0.88407  0.70646  1.0000
  H   H1246     1.0  0.10804  0.87164  0.70558  1.0000
  C   C1078     1.0  0.16148  0.59174  0.88637  1.0000
  N   N72       1.0  0.07455  0.67515  0.81387  1.0000
  C   C1079     1.0  0.06460  0.67925  0.80221  1.0000
  C   C1080     1.0  0.08700  0.68425  0.80732  1.0000
  H   H1247     1.0  0.05957  0.69207  0.79936  1.0000
  C   C1081     1.0  0.15788  0.93503  0.72837  1.0000
  H   H1248     1.0  0.02322  0.58445  0.68951  1.0000
  C   C1082     1.0  0.15721  0.64386  0.88681  1.0000
  H   H1249     1.0  0.05477  0.67299  0.80646  1.0000
  C   C1083     1.0  0.16058  0.60601  0.85475  1.0000
  C   C1084     1.0  0.06828  0.69877  0.60519  1.0000
  C   C1085     1.0  0.08809  0.88027  0.73154  1.0000
  H   H1250     1.0  0.09021  0.86747  0.73226  1.0000
  H   H1251     1.0  0.11459  0.88501  0.71235  1.0000
  H   H1252     1.0  0.09432  0.90793  0.72210  1.0000
  H   H1253     1.0  0.13757  0.84091  0.68157  1.0000
  C   C1086     1.0  0.16545  0.77103  0.90597  1.0000
  C   C1087     1.0  0.16183  0.90229  0.77997  1.0000
  H   H1254     1.0  0.15178  0.93175  0.72153  1.0000
  S   S292      1.0  0.16039  0.61462  0.83485  1.0000
  C   C1088     1.0  0.17285  0.77580  0.94648  1.0000
  C   C1089     1.0  0.08783  0.72646  0.63446  1.0000
  H   H1255     1.0  0.11529  0.72945  0.61474  1.0000
  H   H1256     1.0  0.07929  0.72074  0.64411  1.0000
  H   H1257     1.0  0.11545  0.70818  0.63773  1.0000
  C   C1090     1.0  0.06585  0.67867  0.82932  1.0000
  H   H1258     1.0  0.04288  0.69009  0.82348  1.0000
  C   C1091     1.0  0.16209  0.74157  0.84304  1.0000
  C   C1092     1.0  0.11815  0.78231  0.95992  1.0000
  H   H1259     1.0  0.16954  0.74266  0.87729  1.0000
  H   H1260     1.0  0.15541  0.83228  0.97163  1.0000
  S   S293      1.0  0.99566  0.85361  0.74489  1.0000
  H   H1261     1.0  0.07252  0.67625  0.86539  1.0000
  H   H1262     1.0  0.18829  0.85422  0.97574  1.0000
  C   C1093     1.0  0.10767  0.72430  0.61076  1.0000
  H   H1263     1.0  0.10072  0.73431  0.60359  1.0000
  H   H1264     1.0  0.09521  0.73042  0.63991  1.0000
  C   C1094     1.0  0.11948  0.90881  0.77752  1.0000
  H   H1265     1.0  0.09684  0.88193  0.73712  1.0000
  N   N73       1.0  0.09756  0.71561  0.62416  1.0000
  C   C1095     1.0  0.10804  0.70317  0.63335  1.0000
  H   H1266     1.0  0.11533  0.71660  0.60276  1.0000
  H   H1267     1.0  0.10117  0.69636  0.64384  1.0000
  C   C1096     1.0  0.04985  0.68668  0.83220  1.0000
  H   H1268     1.0  0.08219  0.83351  0.65341  1.0000
  S   S294      1.0  0.13225  0.92690  0.85399  1.0000
  Fe  Fe147     1.0  0.14519  0.96562  0.80492  1.0000
  H   H1269     1.0  0.11629  0.69497  0.62615  1.0000
  H   H1270     1.0  0.09586  0.68434  0.62695  1.0000
  C   C1097     1.0  0.07369  0.67485  0.84182  1.0000
  H   H1271     1.0  0.08592  0.66892  0.84048  1.0000
  H   H1272     1.0  0.14113  0.89419  0.75803  1.0000
  H   H1273     1.0  0.15757  0.88538  0.69360  1.0000
  H   H1274     1.0  0.13539  0.93027  0.75838  1.0000
  C   C1098     1.0  0.08731  0.70953  0.61820  1.0000
  C   C1099     1.0  0.08807  0.69327  0.62037  1.0000
  H   H1275     1.0  0.14693  0.64269  0.88373  1.0000
  H   H1276     1.0  0.07945  0.67562  0.61559  1.0000
  H   H1277     1.0  0.07499  0.73254  0.60767  1.0000
  Fe  Fe148     1.0  0.00718  0.83617  0.72981  1.0000
  H   H1278     1.0  0.16106  0.96435  0.74328  1.0000
  C   C1100     1.0  0.07865  0.68805  0.61391  1.0000
  H   H1279     1.0  0.17983  0.72032  0.91482  1.0000
  C   C1101     1.0  0.15422  0.95034  0.73134  1.0000
  H   H1280     1.0  0.03017  0.69709  0.84848  1.0000
  Fe  Fe149     1.0  0.14897  0.64024  0.82802  1.0000
  H   H1281     1.0  0.11787  0.91801  0.80195  1.0000
  H   H1282     1.0  0.16358  0.68233  0.84447  1.0000
  S   S295      1.0  0.99196  0.60548  0.62319  1.0000
  C   C1102     1.0  0.06709  0.71474  0.60310  1.0000
  C   C1103     1.0  0.17492  0.65969  0.88585  1.0000
  C   C1104     1.0  0.06610  0.67903  0.85617  1.0000
  H   H1283     1.0  0.14217  0.61088  0.89170  1.0000
  Fe  Fe150     1.0  0.16138  0.85983  0.91709  1.0000
  H   H1284     1.0  0.06108  0.69473  0.60009  1.0000
  N   N74       1.0  0.14195  0.96322  0.72507  1.0000
  S   S296      1.0  0.14973  0.65726  0.84134  1.0000
  C   C1105     1.0  0.17140  0.59196  0.85862  1.0000
  H   H1285     1.0  0.14179  0.62373  0.86386  1.0000
  H   H1286     1.0  0.14360  0.87921  0.89295  1.0000
  C   C1106     1.0  0.10887  0.87098  0.66919  1.0000
  S   S297      1.0  0.17039  0.81978  0.66757  1.0000
  Fe  Fe151     1.0  0.14481  0.83303  0.92544  1.0000
  Fe  Fe152     1.0  0.15986  0.67068  0.81776  1.0000
  C   C1107     1.0  0.05046  0.68706  0.85853  1.0000
  C   C1108     1.0  0.06032  0.59079  0.67684  1.0000
  C   C1109     1.0  0.15601  0.81935  0.65805  1.0000
  C   C1110     1.0  0.14055  0.91577  0.86996  1.0000
  Fe  Fe153     1.0  0.14333  0.94669  0.83856  1.0000
  C   C1111     1.0  0.15843  0.74641  0.90733  1.0000
  H   H1287     1.0  0.11938  0.89626  0.78283  1.0000
  C   C1112     1.0  0.05044  0.57268  0.69967  1.0000
  S   S298      1.0  0.16702  0.81486  0.92489  1.0000
  H   H1288     1.0  0.15698  0.79473  0.66775  1.0000
  C   C1113     1.0  0.99139  0.74473  0.48429  1.0000
  S   S299      1.0  0.15710  0.94152  0.81539  1.0000
  C   C1114     1.0  0.16383  0.75251  0.94912  1.0000
  H   H1289     1.0  0.08754  0.81372  0.67500  1.0000
  C   C1115     1.0  0.07532  0.84136  0.68263  1.0000
  C   C1116     1.0  0.15082  0.72137  0.91043  1.0000
  H   H1290     1.0  0.05903  0.59831  0.66516  1.0000
  H   H1291     1.0  0.07674  0.83966  0.69480  1.0000
  H   H1292     1.0  0.16143  0.90948  0.78779  1.0000
  S   S300      1.0  0.15365  0.84835  0.90254  1.0000
  Fe  Fe154     1.0  0.16524  0.87725  0.66688  1.0000
  C   C1117     1.0  0.15377  0.91298  0.89075  1.0000
  H   H1293     1.0  0.08758  0.86893  0.66517  1.0000
  C   C1118     1.0  0.15241  0.89731  0.89629  1.0000
  H   H1294     1.0  0.11995  0.82572  0.68083  1.0000
  H   H1295     1.0  0.16216  0.62004  0.89901  1.0000
  C   C1119     1.0  0.17202  0.58496  0.87437  1.0000
  H   H1296     1.0  0.13059  0.80533  0.96050  1.0000
  H   H1297     1.0  0.15808  0.97080  0.70376  1.0000
  S   S301      1.0  0.18171  0.67998  0.81315  1.0000
  H   H1298     1.0  0.15207  0.88395  0.94637  1.0000
  Fe  Fe155     1.0  0.17600  0.84235  0.66828  1.0000
  H   H1299     1.0  0.16806  0.79572  0.86619  1.0000
  C   C1120     1.0  0.16243  0.87564  0.96698  1.0000
  H   H1300     1.0  0.01348  0.65745  0.64213  1.0000
  H   H1301     1.0  0.00112  0.67174  0.57977  1.0000
  C   C1121     1.0  0.17186  0.83694  0.60654  1.0000
  C   C1122     1.0  0.13273  0.95811  0.71695  1.0000
  C   C1123     1.0  0.99219  0.72023  0.50324  1.0000
  H   H1302     1.0  0.15580  0.98074  0.71900  1.0000
  Fe  Fe156     1.0  0.18160  0.56339  0.91342  1.0000
  H   H1303     1.0  0.04804  0.65639  0.63250  1.0000
  H   H1304     1.0  0.17484  0.77487  0.86955  1.0000
  H   H1305     1.0  0.01628  0.68079  0.74503  1.0000
  H   H1306     1.0  0.07012  0.96819  0.81985  1.0000
  H   H1307     1.0  0.19018  0.76254  0.83173  1.0000
  H   H1308     1.0  0.18146  0.51115  0.90696  1.0000
  S   S302      1.0  0.00921  0.49833  0.53477  1.0000
  C   C1124     1.0  0.09769  0.74690  0.97543  1.0000
  H   H1309     1.0  0.13847  0.74848  0.85568  1.0000
  H   H1310     1.0  0.15474  0.66824  0.87533  1.0000
  S   S303      1.0  0.18397  0.85798  0.71516  1.0000
  H   H1311     1.0  0.15405  0.71027  0.90622  1.0000
  H   H1312     1.0  0.18208  0.78237  0.94203  1.0000
  H   H1313     1.0  0.00996  0.77846  0.74961  1.0000
  S   S304      1.0  0.18061  0.53956  0.92948  1.0000
  C   C1125     1.0  0.16313  0.95302  0.74055  1.0000
  C   C1126     1.0  0.15185  0.76595  0.85185  1.0000
  H   H1314     1.0  0.03690  0.65420  0.62036  1.0000
  C   C1127     1.0  0.03428  0.71403  0.63141  1.0000
  H   H1315     1.0  0.16985  0.91402  0.84507  1.0000
  H   H1316     1.0  0.16748  0.89776  0.83910  1.0000
  H   H1317     1.0  0.16229  0.72548  0.88029  1.0000
  C   C1128     1.0  0.01766  0.66681  0.64446  1.0000
  H   H1318     1.0  0.99500  0.70758  0.50581  1.0000
  H   H1319     1.0  0.99749  0.70593  0.73982  1.0000
  H   H1320     1.0  0.16933  0.60639  0.92155  1.0000
  H   H1321     1.0  0.07007  0.71965  0.52395  1.0000
  N   N75       1.0  0.17892  0.87289  0.95803  1.0000
  S   S305      1.0  0.18520  0.84372  0.91606  1.0000
  H   H1322     1.0  0.99304  0.69482  0.80887  1.0000
  S   S306      1.0  0.99426  0.48947  0.60669  1.0000
  H   H1323     1.0  0.99359  0.71414  0.79730  1.0000
  H   H1324     1.0  0.17450  0.86764  0.93802  1.0000
  H   H1325     1.0  0.17730  0.85128  0.95402  1.0000
  H   H1326     1.0  0.18759  0.91719  0.74767  1.0000
  H   H1327     1.0  0.17414  0.88206  0.86498  1.0000
  C   C1129     1.0  0.07100  0.70191  0.49542  1.0000
  Fe  Fe157     1.0  0.99168  0.74672  0.81923  1.0000
  H   H1328     1.0  0.99282  0.73441  0.54107  1.0000
  C   C1130     1.0  0.17779  0.61188  0.92380  1.0000
  H   H1329     1.0  0.18639  0.60119  0.89776  1.0000
  H   H1330     1.0  0.11025  0.98085  0.76693  1.0000
  H   H1331     1.0  0.18805  0.85005  0.60578  1.0000
  H   H1332     1.0  0.18727  0.72852  0.89461  1.0000
  H   H1333     1.0  0.17930  0.58642  0.84941  1.0000
  C   C1131     1.0  0.13080  0.97020  0.73801  1.0000
  H   H1334     1.0  0.18034  0.57409  0.87722  1.0000
  H   H1335     1.0  0.00686  0.48778  0.48564  1.0000
  C   C1132     1.0  0.14943  0.97557  0.71359  1.0000
  H   H1336     1.0  0.18695  0.75600  0.93679  1.0000
  H   H1337     1.0  0.18258  0.62207  0.86444  1.0000
  H   H1338     1.0  0.18439  0.60252  0.93188  1.0000
  C   C1133     1.0  0.99410  0.72846  0.48771  1.0000
  C   C1134     1.0  0.18871  0.81190  0.62521  1.0000
  H   H1339     1.0  0.18380  0.93947  0.79145  1.0000
  H   H1340     1.0  0.17531  0.63193  0.84709  1.0000
  C   C1135     1.0  0.18377  0.64688  0.89457  1.0000
  H   H1341     1.0  0.07292  0.70413  0.48275  1.0000
  H   H1342     1.0  0.18132  0.64283  0.85705  1.0000
  H   H1343     1.0  0.19022  0.92172  0.77334  1.0000
  C   C1136     1.0  0.19053  0.86566  0.96815  1.0000
  H   H1344     1.0  0.00616  0.68356  0.47847  1.0000
  H   H1345     1.0  0.19029  0.87343  0.97578  1.0000
  H   H1346     1.0  0.35538  0.03989  0.41331  1.0000
  H   H1347     1.0  0.32294  0.00963  0.33107  1.0000
  C   C1137     1.0  0.27048  0.39675  0.00036  1.0000
  H   H1348     1.0  0.34570  0.41450  0.98768  1.0000
  C   C1138     1.0  0.21093  0.28322  0.11864  1.0000
  S   S307      1.0  0.28626  0.00101  0.41723  1.0000
  H   H1349     1.0  0.20115  0.34378  0.04297  1.0000
  H   H1350     1.0  0.25064  0.22403  0.14737  1.0000
  S   S308      1.0  0.38660  0.02699  0.24779  1.0000
  H   H1351     1.0  0.29513  0.39174  0.01436  1.0000
  C   C1139     1.0  0.30677  0.03148  0.21539  1.0000
  H   H1352     1.0  0.22258  0.03024  0.43214  1.0000
  C   C1140     1.0  0.28037  0.04751  0.21204  1.0000
  N   N76       1.0  0.23118  0.10002  0.14492  1.0000
  C   C1141     1.0  0.23061  0.21615  0.06394  1.0000
  C   C1142     1.0  0.32187  0.35989  0.99473  1.0000
  H   H1353     1.0  0.21376  0.00122  0.12666  1.0000
  H   H1354     1.0  0.25255  0.08255  0.14729  1.0000
  Fe  Fe158     1.0  0.35648  0.36855  0.04190  1.0000
  S   S309      1.0  0.35007  0.34933  0.03528  1.0000
  C   C1143     1.0  0.27713  0.37160  0.01917  1.0000
  Fe  Fe159     1.0  0.32213  0.38521  0.05016  1.0000
  S   S310      1.0  0.31305  0.36734  0.04468  1.0000
  S   S311      1.0  0.30522  0.40725  0.05528  1.0000
  Fe  Fe160     1.0  0.33083  0.34969  0.05705  1.0000
  S   S312      1.0  0.32558  0.32819  0.07563  1.0000
  Fe  Fe161     1.0  0.33279  0.36865  0.02364  1.0000
  S   S313      1.0  0.32721  0.37446  0.99996  1.0000
  S   S314      1.0  0.33834  0.36765  0.06454  1.0000
  S   S315      1.0  0.34085  0.38770  0.02821  1.0000
  H   H1355     1.0  0.35594  0.47170  0.98740  1.0000
  Fe  Fe162     1.0  0.29921  0.04925  0.42176  1.0000
  S   S316      1.0  0.27664  0.04447  0.42062  1.0000
  S   S317      1.0  0.29960  0.05514  0.44424  1.0000
  Fe  Fe163     1.0  0.31494  0.04442  0.38874  1.0000
  S   S318      1.0  0.29380  0.03902  0.38500  1.0000
  S   S319      1.0  0.33806  0.04382  0.37104  1.0000
  Fe  Fe164     1.0  0.28010  0.05916  0.39614  1.0000
  S   S320      1.0  0.25958  0.07707  0.38769  1.0000
  Fe  Fe165     1.0  0.29196  0.02482  0.40956  1.0000
  S   S321      1.0  0.30144  0.06584  0.39813  1.0000
  S   S322      1.0  0.31436  0.02830  0.41255  1.0000
  Fe  Fe166     1.0  0.35585  0.03292  0.28567  1.0000
  S   S323      1.0  0.35330  0.01941  0.26966  1.0000
  S   S324      1.0  0.33473  0.03531  0.30551  1.0000
  C   C1144     1.0  0.30346  0.05744  0.19864  1.0000
  Fe  Fe167     1.0  0.21041  0.01673  0.15513  1.0000
  H   H1356     1.0  0.29623  0.06963  0.19682  1.0000
  C   C1145     1.0  0.38173  0.39328  0.04892  1.0000
  Fe  Fe168     1.0  0.20854  0.04224  0.17203  1.0000
  H   H1357     1.0  0.21094  0.04641  0.40320  1.0000
  S   S325      1.0  0.21317  0.04809  0.19261  1.0000
  H   H1358     1.0  0.31151  0.99520  0.34157  1.0000
  C   C1146     1.0  0.34580  0.99806  0.34757  1.0000
  Fe  Fe169     1.0  0.21040  0.05040  0.13720  1.0000
  S   S326      1.0  0.22112  0.06693  0.11602  1.0000
  H   H1359     1.0  0.35246  0.28403  0.09384  1.0000
  S   S327      1.0  0.22622  0.03295  0.15225  1.0000
  Fe  Fe170     1.0  0.26208  0.13236  0.17980  1.0000
  S   S328      1.0  0.24730  0.11478  0.18424  1.0000
  S   S329      1.0  0.25498  0.15263  0.15996  1.0000
  Fe  Fe171     1.0  0.27922  0.11231  0.20571  1.0000
  S   S330      1.0  0.26563  0.09357  0.21186  1.0000
  S   S331      1.0  0.29587  0.10879  0.22158  1.0000
  Fe  Fe172     1.0  0.26927  0.09659  0.18601  1.0000
  S   S332      1.0  0.27387  0.07591  0.17523  1.0000
  Fe  Fe173     1.0  0.24467  0.11325  0.20971  1.0000
  S   S333      1.0  0.22162  0.10925  0.22560  1.0000
  S   S334      1.0  0.28468  0.11391  0.17959  1.0000
  S   S335      1.0  0.25769  0.13218  0.20554  1.0000
  S   S336      1.0  0.38093  0.02073  0.28631  1.0000
  S   S337      1.0  0.20541  0.08121  0.31134  1.0000
  C   C1147     1.0  0.38808  0.28376  0.09923  1.0000
  H   H1360     1.0  0.25529  0.98538  0.38875  1.0000
  S   S338      1.0  0.22099  0.06164  0.34767  1.0000
  H   H1361     1.0  0.26671  0.40972  0.99889  1.0000
  H   H1362     1.0  0.25170  0.40558  0.02581  1.0000
  Fe  Fe174     1.0  0.27690  0.26381  0.08462  1.0000
  S   S339      1.0  0.27227  0.25841  0.11092  1.0000
  S   S340      1.0  0.29041  0.28093  0.06644  1.0000
  Fe  Fe175     1.0  0.25378  0.24459  0.08480  1.0000
  C   C1148     1.0  0.20944  0.13281  0.00621  1.0000
  C   C1149     1.0  0.20875  0.24252  0.13998  1.0000
  H   H1363     1.0  0.38137  0.07055  0.21538  1.0000
  Fe  Fe176     1.0  0.27258  0.23380  0.10990  1.0000
  S   S341      1.0  0.28434  0.21257  0.12592  1.0000
  S   S342      1.0  0.25145  0.26997  0.08370  1.0000
  S   S343      1.0  0.27973  0.23871  0.08352  1.0000
  C   C1150     1.0  0.22567  0.19252  0.08306  1.0000
  C   C1151     1.0  0.33918  0.41437  0.97901  1.0000
  C   C1152     1.0  0.23568  0.22091  0.07474  1.0000
  C   C1153     1.0  0.23540  0.21160  0.08987  1.0000
  C   C1154     1.0  0.23063  0.19730  0.09394  1.0000
  H   H1364     1.0  0.23913  0.21525  0.09832  1.0000
  H   H1365     1.0  0.23089  0.18987  0.10547  1.0000
  C   C1155     1.0  0.26312  0.16938  0.15106  1.0000
  C   C1156     1.0  0.27613  0.17138  0.15502  1.0000
  C   C1157     1.0  0.28250  0.18468  0.14723  1.0000
  C   C1158     1.0  0.27587  0.19611  0.13550  1.0000
  C   C1159     1.0  0.26285  0.19410  0.13154  1.0000
  C   C1160     1.0  0.25654  0.18078  0.13927  1.0000
  H   H1366     1.0  0.28136  0.16265  0.16401  1.0000
  H   H1367     1.0  0.29262  0.18611  0.15031  1.0000
  H   H1368     1.0  0.25771  0.20271  0.12245  1.0000
  H   H1369     1.0  0.24663  0.17918  0.13595  1.0000
  C   C1161     1.0  0.21788  0.11371  0.24403  1.0000
  C   C1162     1.0  0.20768  0.10625  0.25661  1.0000
  H   H1370     1.0  0.33230  0.40514  0.98471  1.0000
  C   C1163     1.0  0.21156  0.12028  0.27383  1.0000
  C   C1164     1.0  0.22170  0.12783  0.26124  1.0000
  C   C1165     1.0  0.22497  0.12446  0.24635  1.0000
  C   C1166     1.0  0.32625  0.98480  0.28711  1.0000
  C   C1167     1.0  0.21908  0.24898  0.16407  1.0000
  H   H1371     1.0  0.22717  0.13616  0.26303  1.0000
  H   H1372     1.0  0.23286  0.13025  0.23668  1.0000
  H   H1373     1.0  0.37019  0.13069  0.18674  1.0000
  C   C1168     1.0  0.21581  0.30335  0.06854  1.0000
  H   H1374     1.0  0.30844  0.99282  0.21723  1.0000
  C   C1169     1.0  0.21349  0.09673  0.09871  1.0000
  H   H1375     1.0  0.19394  0.24828  0.12342  1.0000
  H   H1376     1.0  0.20745  0.12024  0.08514  1.0000
  H   H1377     1.0  0.22601  0.09592  0.09473  1.0000
  C   C1170     1.0  0.23059  0.05480  0.18842  1.0000
  C   C1171     1.0  0.23197  0.06440  0.19740  1.0000
  C   C1172     1.0  0.24520  0.07099  0.19336  1.0000
  C   C1173     1.0  0.25742  0.06745  0.18072  1.0000
  C   C1174     1.0  0.25638  0.05726  0.17220  1.0000
  C   C1175     1.0  0.24288  0.05118  0.17585  1.0000
  H   H1378     1.0  0.22267  0.06703  0.20731  1.0000
  H   H1379     1.0  0.24591  0.07877  0.20010  1.0000
  H   H1380     1.0  0.26587  0.05435  0.16250  1.0000
  H   H1381     1.0  0.24207  0.04357  0.16903  1.0000
  H   H1382     1.0  0.27680  0.36909  0.99589  1.0000
  H   H1383     1.0  0.20441  0.10298  0.05512  1.0000
  C   C1176     1.0  0.33264  0.07655  0.41497  1.0000
  H   H1384     1.0  0.28873  0.33970  0.04741  1.0000
  C   C1177     1.0  0.33569  0.06507  0.22681  1.0000
  C   C1178     1.0  0.32770  0.07189  0.23963  1.0000
  C   C1179     1.0  0.31538  0.08520  0.23795  1.0000
  C   C1180     1.0  0.31066  0.09149  0.22360  1.0000
  C   C1181     1.0  0.31855  0.08455  0.21084  1.0000
  C   C1182     1.0  0.33117  0.07153  0.21240  1.0000
  H   H1385     1.0  0.33107  0.06699  0.25080  1.0000
  H   H1386     1.0  0.30947  0.09061  0.24783  1.0000
  H   H1387     1.0  0.31526  0.08954  0.19963  1.0000
  C   C1183     1.0  0.24988  0.07355  0.37508  1.0000
  C   C1184     1.0  0.23588  0.08397  0.37200  1.0000
  C   C1185     1.0  0.22714  0.08079  0.36311  1.0000
  C   C1186     1.0  0.23232  0.06708  0.35736  1.0000
  C   C1187     1.0  0.24659  0.05695  0.35997  1.0000
  C   C1188     1.0  0.25540  0.06023  0.36867  1.0000
  H   H1388     1.0  0.23158  0.09435  0.37684  1.0000
  H   H1389     1.0  0.21616  0.08867  0.36117  1.0000
  H   H1390     1.0  0.25073  0.04636  0.35546  1.0000
  H   H1391     1.0  0.26630  0.05228  0.37068  1.0000
  C   C1189     1.0  0.33731  0.04276  0.35222  1.0000
  C   C1190     1.0  0.35123  0.03955  0.34098  1.0000
  C   C1191     1.0  0.35067  0.03787  0.32623  1.0000
  C   C1192     1.0  0.33617  0.03916  0.32285  1.0000
  C   C1193     1.0  0.32233  0.04270  0.33395  1.0000
  C   C1194     1.0  0.32290  0.04471  0.34846  1.0000
  H   H1392     1.0  0.36245  0.03819  0.34374  1.0000
  H   H1393     1.0  0.36142  0.03519  0.31767  1.0000
  H   H1394     1.0  0.31108  0.04393  0.33131  1.0000
  H   H1395     1.0  0.31213  0.04797  0.35662  1.0000
  C   C1195     1.0  0.31561  0.31527  0.07299  1.0000
  C   C1196     1.0  0.31378  0.31548  0.05817  1.0000
  C   C1197     1.0  0.30623  0.30470  0.05641  1.0000
  C   C1198     1.0  0.30026  0.29377  0.06941  1.0000
  C   C1199     1.0  0.30202  0.29360  0.08426  1.0000
  C   C1200     1.0  0.30975  0.30426  0.08600  1.0000
  H   H1396     1.0  0.31842  0.32375  0.04803  1.0000
  H   H1397     1.0  0.30511  0.30473  0.04487  1.0000
  H   H1398     1.0  0.29762  0.28513  0.09434  1.0000
  H   H1399     1.0  0.31123  0.30396  0.09749  1.0000
  C   C1201     1.0  0.28585  0.40496  0.05928  1.0000
  C   C1202     1.0  0.28215  0.39041  0.06692  1.0000
  C   C1203     1.0  0.26673  0.38854  0.06969  1.0000
  C   C1204     1.0  0.25501  0.40114  0.06465  1.0000
  C   C1205     1.0  0.25870  0.41568  0.05699  1.0000
  C   C1206     1.0  0.27408  0.41762  0.05444  1.0000
  H   H1400     1.0  0.29112  0.38069  0.07099  1.0000
  H   H1401     1.0  0.26390  0.37731  0.07574  1.0000
  H   H1402     1.0  0.24965  0.42552  0.05334  1.0000
  H   H1403     1.0  0.27689  0.42891  0.04861  1.0000
  H   H1404     1.0  0.34759  0.09295  0.23236  1.0000
  H   H1405     1.0  0.28671  0.06611  0.22576  1.0000
  C   C1207     1.0  0.34488  0.04647  0.46126  1.0000
  C   C1208     1.0  0.33073  0.05461  0.46896  1.0000
  C   C1209     1.0  0.31684  0.05692  0.46382  1.0000
  C   C1210     1.0  0.31703  0.05107  0.45100  1.0000
  C   C1211     1.0  0.33108  0.04247  0.44366  1.0000
  C   C1212     1.0  0.34498  0.04026  0.44871  1.0000
  C   C1213     1.0  0.21726  0.32172  0.04362  1.0000
  C   C1214     1.0  0.32542  0.33256  0.99441  1.0000
  H   H1406     1.0  0.33119  0.03764  0.43404  1.0000
  H   H1407     1.0  0.35590  0.03384  0.44281  1.0000
  S   S344      1.0  0.20120  0.17236  0.02122  1.0000
  H   H1408     1.0  0.22249  0.32455  0.03120  1.0000
  C   C1215     1.0  0.20354  0.48181  0.05836  1.0000
  H   H1409     1.0  0.33846  0.04855  0.40485  1.0000
  C   C1216     1.0  0.32036  0.00113  0.34238  1.0000
  H   H1410     1.0  0.34870  0.00717  0.33693  1.0000
  C   C1217     1.0  0.34839  0.98876  0.31807  1.0000
  C   C1218     1.0  0.28428  0.34701  0.01008  1.0000
  H   H1411     1.0  0.23337  0.09221  0.12386  1.0000
  C   C1219     1.0  0.36312  0.28790  0.09254  1.0000
  H   H1412     1.0  0.37160  0.00280  0.47189  1.0000
  H   H1413     1.0  0.36907  0.39502  0.05167  1.0000
  H   H1414     1.0  0.27881  0.36797  0.04348  1.0000
  H   H1415     1.0  0.27287  0.05957  0.21069  1.0000
  H   H1416     1.0  0.31539  0.05830  0.19865  1.0000
  H   H1417     1.0  0.37472  0.10107  0.24602  1.0000
  H   H1418     1.0  0.20241  0.09775  0.25491  1.0000
  C   C1220     1.0  0.24705  0.31102  0.07971  1.0000
  H   H1419     1.0  0.23488  0.21003  0.17104  1.0000
  H   H1420     1.0  0.29229  0.32599  0.02622  1.0000
  C   C1221     1.0  0.31218  0.00306  0.21744  1.0000
  S   S345      1.0  0.35121  0.04838  0.22831  1.0000
  C   C1222     1.0  0.37445  0.08924  0.24502  1.0000
  C   C1223     1.0  0.35141  0.04713  0.40249  1.0000
  H   H1421     1.0  0.30598  0.05608  0.22769  1.0000
  C   C1224     1.0  0.22552  0.20204  0.06810  1.0000
  H   H1422     1.0  0.31314  0.08778  0.43075  1.0000
  C   C1225     1.0  0.20196  0.10607  0.04314  1.0000
  C   C1226     1.0  0.26397  0.32793  0.07748  1.0000
  H   H1423     1.0  0.25761  0.30278  0.07457  1.0000
  C   C1227     1.0  0.22176  0.35856  0.09486  1.0000
  H   H1424     1.0  0.33268  0.34058  0.01100  1.0000
  H   H1425     1.0  0.35858  0.33298  0.98679  1.0000
  H   H1426     1.0  0.21491  0.16250  0.12277  1.0000
  H   H1427     1.0  0.33752  0.06648  0.20236  1.0000
  N   N77       1.0  0.35597  0.06245  0.39781  1.0000
  C   C1228     1.0  0.25775  0.30960  0.10165  1.0000
  C   C1229     1.0  0.19467  0.27944  0.10349  1.0000
  H   H1428     1.0  0.36565  0.99532  0.25237  1.0000
  C   C1230     1.0  0.21799  0.48020  0.98899  1.0000
  H   H1429     1.0  0.21789  0.12354  0.04872  1.0000
  H   H1430     1.0  0.38775  0.11115  0.20184  1.0000
  H   H1431     1.0  0.33482  0.98983  0.22175  1.0000
  H   H1432     1.0  0.23871  0.30372  0.08750  1.0000
  C   C1231     1.0  0.19314  0.13303  0.98908  1.0000
  N   N78       1.0  0.33468  0.98957  0.34609  1.0000
  H   H1433     1.0  0.33150  0.99321  0.27750  1.0000
  H   H1434     1.0  0.33733  0.07234  0.38490  1.0000
  H   H1435     1.0  0.22424  0.25072  0.17306  1.0000
  C   C1232     1.0  0.23542  0.34824  0.08913  1.0000
  C   C1233     1.0  0.20642  0.41196  0.99288  1.0000
  C   C1234     1.0  0.28784  0.33855  0.02442  1.0000
  C   C1235     1.0  0.28568  0.99630  0.37445  1.0000
  C   C1236     1.0  0.20660  0.13594  0.99118  1.0000
  H   H1436     1.0  0.23088  0.07752  0.14140  1.0000
  C   C1237     1.0  0.35823  0.07223  0.42061  1.0000
  C   C1238     1.0  0.33510  0.08538  0.43674  1.0000
  C   C1239     1.0  0.38886  0.40370  0.05203  1.0000
  H   H1437     1.0  0.21483  0.47569  0.00154  1.0000
  H   H1438     1.0  0.36621  0.07004  0.23275  1.0000
  H   H1439     1.0  0.19678  0.10356  0.28117  1.0000
  C   C1240     1.0  0.37841  0.36279  0.99629  1.0000
  C   C1241     1.0  0.34312  0.11241  0.21368  1.0000
  C   C1242     1.0  0.30212  0.01788  0.21515  1.0000
  H   H1440     1.0  0.20645  0.17661  0.98798  1.0000
  C   C1243     1.0  0.21051  0.33670  0.11082  1.0000
  H   H1441     1.0  0.25491  0.09932  0.13161  1.0000
  H   H1442     1.0  0.32667  0.03907  0.21781  1.0000
  C   C1244     1.0  0.20913  0.27595  0.10779  1.0000
  H   H1443     1.0  0.28334  0.00388  0.36348  1.0000
  C   C1245     1.0  0.36560  0.45290  0.00480  1.0000
  H   H1444     1.0  0.21474  0.21904  0.17820  1.0000
  H   H1445     1.0  0.37774  0.43383  0.01974  1.0000
  H   H1446     1.0  0.19341  0.27393  0.09494  1.0000
  C   C1246     1.0  0.28454  0.00278  0.38710  1.0000
  H   H1447     1.0  0.24728  0.38817  0.02408  1.0000
  S   S346      1.0  0.22071  0.17415  0.08802  1.0000
  H   H1448     1.0  0.26058  0.31619  0.10877  1.0000
  H   H1449     1.0  0.24988  0.23651  0.15982  1.0000
  C   C1247     1.0  0.32691  0.34401  0.00126  1.0000
  N   N79       1.0  0.25124  0.32040  0.08829  1.0000
  H   H1450     1.0  0.35617  0.30891  0.07640  1.0000
  C   C1248     1.0  0.22072  0.41581  0.98439  1.0000
  C   C1249     1.0  0.28033  0.36252  0.03385  1.0000
  H   H1451     1.0  0.37756  0.07057  0.39048  1.0000
  H   H1452     1.0  0.24457  0.35360  0.08088  1.0000
  C   C1250     1.0  0.31493  0.99068  0.44439  1.0000
  H   H1453     1.0  0.22430  0.31389  0.10930  1.0000
  H   H1454     1.0  0.26022  0.33559  0.06670  1.0000
  H   H1455     1.0  0.20088  0.33225  0.11939  1.0000
  S   S347      1.0  0.20600  0.15280  0.06381  1.0000
  C   C1251     1.0  0.25606  0.39271  0.02701  1.0000
  H   H1456     1.0  0.33001  0.32029  0.99889  1.0000
  C   C1252     1.0  0.28288  0.39554  0.02087  1.0000
  H   H1457     1.0  0.20040  0.35322  0.07633  1.0000
  Fe  Fe177     1.0  0.19536  0.10667  0.31045  1.0000
  C   C1253     1.0  0.34177  0.98341  0.44764  1.0000
  S   S348      1.0  0.23598  0.39827  0.06766  1.0000
  N   N80       1.0  0.28163  0.18463  0.08135  1.0000
  C   C1254     1.0  0.27929  0.19851  0.08792  1.0000
  C   C1255     1.0  0.29868  0.17914  0.07529  1.0000
  C   C1256     1.0  0.27393  0.18979  0.06777  1.0000
  C   C1257     1.0  0.27545  0.17206  0.09380  1.0000
  C   C1258     1.0  0.28197  0.16557  0.10732  1.0000
  C   C1259     1.0  0.26293  0.16595  0.09303  1.0000
  C   C1260     1.0  0.27646  0.15360  0.11917  1.0000
  C   C1261     1.0  0.25737  0.15413  0.10507  1.0000
  C   C1262     1.0  0.26412  0.14797  0.11811  1.0000
  H   H1458     1.0  0.28583  0.19612  0.09733  1.0000
  H   H1459     1.0  0.28328  0.20839  0.07872  1.0000
  H   H1460     1.0  0.26669  0.20270  0.09307  1.0000
  H   H1461     1.0  0.30562  0.17669  0.08436  1.0000
  H   H1462     1.0  0.30356  0.18809  0.06540  1.0000
  H   H1463     1.0  0.30102  0.16820  0.07101  1.0000
  H   H1464     1.0  0.26114  0.19466  0.07134  1.0000
  H   H1465     1.0  0.27871  0.19934  0.05866  1.0000
  H   H1466     1.0  0.27554  0.18001  0.06198  1.0000
  H   H1467     1.0  0.29119  0.16991  0.10900  1.0000
  H   H1468     1.0  0.25701  0.17023  0.08338  1.0000
  H   H1469     1.0  0.28143  0.14900  0.12953  1.0000
  H   H1470     1.0  0.24761  0.14990  0.10431  1.0000
  H   H1471     1.0  0.25965  0.13900  0.12758  1.0000
  H   H1472     1.0  0.27424  0.04022  0.22268  1.0000
  C   C1263     1.0  0.33205  0.01445  0.22009  1.0000
  H   H1473     1.0  0.30015  0.01030  0.45410  1.0000
  H   H1474     1.0  0.21011  0.10016  0.16302  1.0000
  Fe  Fe178     1.0  0.37887  0.00877  0.26866  1.0000
  H   H1475     1.0  0.22088  0.37114  0.09095  1.0000
  S   S349      1.0  0.24682  0.23824  0.11095  1.0000
  C   C1264     1.0  0.23701  0.33171  0.09413  1.0000
  C   C1265     1.0  0.31795  0.98916  0.30116  1.0000
  H   H1476     1.0  0.22024  0.25934  0.15419  1.0000
  H   H1477     1.0  0.31672  0.00095  0.30247  1.0000
  H   H1478     1.0  0.34368  0.01316  0.22199  1.0000
  H   H1479     1.0  0.33568  0.98593  0.41038  1.0000
  C   C1266     1.0  0.32581  0.08389  0.42760  1.0000
  S   S350      1.0  0.24304  0.23807  0.06863  1.0000
  C   C1267     1.0  0.22966  0.12787  0.14548  1.0000
  Fe  Fe179     1.0  0.22127  0.41591  0.05173  1.0000
  H   H1480     1.0  0.23083  0.22330  0.05221  1.0000
  H   H1481     1.0  0.22193  0.19834  0.05957  1.0000
  H   H1482     1.0  0.35656  0.04031  0.39314  1.0000
  H   H1483     1.0  0.25613  0.38766  0.03960  1.0000
  C   C1268     1.0  0.22258  0.30706  0.05263  1.0000
  C   C1269     1.0  0.24841  0.09546  0.14380  1.0000
  N   N81       1.0  0.27177  0.38884  0.01676  1.0000
  Fe  Fe180     1.0  0.36107  0.03889  0.25029  1.0000
  H   H1484     1.0  0.23547  0.12388  0.15520  1.0000
  C   C1270     1.0  0.37143  0.35612  0.98860  1.0000
  Fe  Fe181     1.0  0.24704  0.26309  0.10978  1.0000
  H   H1485     1.0  0.28088  0.01526  0.38593  1.0000
  H   H1486     1.0  0.26798  0.33491  0.08332  1.0000
  C   C1271     1.0  0.36609  0.46260  0.98991  1.0000
  H   H1487     1.0  0.21883  0.26753  0.10277  1.0000
  H   H1488     1.0  0.24152  0.31869  0.06995  1.0000
  C   C1272     1.0  0.31427  0.36427  0.98227  1.0000
  H   H1489     1.0  0.36010  0.35345  0.99460  1.0000
  H   H1490     1.0  0.38027  0.46984  0.01974  1.0000
  H   H1491     1.0  0.38257  0.33390  0.04543  1.0000
  C   C1273     1.0  0.21893  0.12352  0.12583  1.0000
  H   H1492     1.0  0.37265  0.26762  0.10864  1.0000
  C   C1274     1.0  0.19779  0.32921  0.06665  1.0000
  C   C1275     1.0  0.37542  0.11103  0.20564  1.0000
  C   C1276     1.0  0.22404  0.32628  0.10504  1.0000
  H   H1493     1.0  0.36924  0.32110  0.05313  1.0000
  S   S351      1.0  0.36183  0.05328  0.26633  1.0000
  H   H1494     1.0  0.22682  0.10138  0.16923  1.0000
  H   H1495     1.0  0.20480  0.09643  0.21080  1.0000
  H   H1496     1.0  0.26870  0.30119  0.09757  1.0000
  S   S352      1.0  0.19740  0.43046  0.05998  1.0000
  N   N82       1.0  0.22717  0.23404  0.15896  1.0000
  C   C1277     1.0  0.19723  0.40747  0.98553  1.0000
  H   H1497     1.0  0.34797  0.00119  0.31533  1.0000
  S   S353      1.0  0.20784  0.12416  0.29253  1.0000
  C   C1278     1.0  0.32214  0.02930  0.21774  1.0000
  C   C1279     1.0  0.22680  0.22124  0.17328  1.0000
  H   H1498     1.0  0.24955  0.30225  0.10963  1.0000
  C   C1280     1.0  0.35001  0.07173  0.38357  1.0000
  C   C1281     1.0  0.34910  0.07069  0.41091  1.0000
  S   S354      1.0  0.21707  0.99029  0.15911  1.0000
  C   C1282     1.0  0.22544  0.14403  0.13985  1.0000
  H   H1499     1.0  0.33056  0.11295  0.21673  1.0000
  H   H1500     1.0  0.32969  0.09055  0.44688  1.0000
  Fe  Fe182     1.0  0.20118  0.07882  0.33726  1.0000
  H   H1501     1.0  0.28995  0.04676  0.23800  1.0000
  H   H1502     1.0  0.28060  0.04345  0.20147  1.0000
  N   N83       1.0  0.23299  0.03127  0.40757  1.0000
  C   C1283     1.0  0.24823  0.03342  0.40865  1.0000
  C   C1284     1.0  0.22281  0.04709  0.40378  1.0000
  C   C1285     1.0  0.22537  0.02310  0.42317  1.0000
  C   C1286     1.0  0.23572  0.02175  0.39586  1.0000
  H   H1503     1.0  0.19290  0.36146  0.05875  1.0000
  C   C1287     1.0  0.22938  0.02739  0.38217  1.0000
  C   C1288     1.0  0.20935  0.35281  0.10571  1.0000
  H   H1504     1.0  0.20261  0.22218  0.11677  1.0000
  C   C1289     1.0  0.21802  0.14995  0.12726  1.0000
  H   H1505     1.0  0.25478  0.03870  0.39700  1.0000
  H   H1506     1.0  0.24662  0.04131  0.41665  1.0000
  H   H1507     1.0  0.25602  0.02221  0.41313  1.0000
  H   H1508     1.0  0.21069  0.98719  0.10820  1.0000
  H   H1509     1.0  0.23188  0.29848  0.04726  1.0000
  C   C1290     1.0  0.36543  0.12238  0.19680  1.0000
  H   H1510     1.0  0.22112  0.05404  0.41268  1.0000
  N   N84       1.0  0.29642  0.04733  0.21324  1.0000
  C   C1291     1.0  0.34932  0.12305  0.20081  1.0000
  H   H1511     1.0  0.24452  0.24487  0.14124  1.0000
  H   H1512     1.0  0.22214  0.03898  0.37947  1.0000
  S   S355      1.0  0.19272  0.10465  0.33614  1.0000
  H   H1513     1.0  0.20918  0.14446  0.11033  1.0000
  S   S356      1.0  0.19471  0.43940  0.02308  1.0000
  C   C1292     1.0  0.35298  0.10101  0.22257  1.0000
  H   H1514     1.0  0.22812  0.05409  0.39243  1.0000
  H   H1515     1.0  0.35834  0.08005  0.44090  1.0000
  H   H1516     1.0  0.27979  0.40858  0.01821  1.0000
  H   H1517     1.0  0.21452  0.14131  0.98112  1.0000
  C   C1293     1.0  0.22726  0.09031  0.13645  1.0000
  H   H1518     1.0  0.31468  0.00815  0.35153  1.0000
  S   S357      1.0  0.36283  0.04469  0.46620  1.0000
  S   S358      1.0  0.19409  0.02466  0.17628  1.0000
  H   H1519     1.0  0.37817  0.05413  0.38294  1.0000
  H   H1520     1.0  0.34756  0.99725  0.46015  1.0000
  C   C1294     1.0  0.21481  0.13973  0.12026  1.0000
  H   H1521     1.0  0.35500  0.45442  0.01389  1.0000
  C   C1295     1.0  0.28581  0.34628  0.03631  1.0000
  H   H1522     1.0  0.21439  0.09267  0.13722  1.0000
  H   H1523     1.0  0.28291  0.39203  0.03357  1.0000
  C   C1296     1.0  0.21252  0.98918  0.13070  1.0000
  H   H1524     1.0  0.34160  0.13182  0.19392  1.0000
  H   H1525     1.0  0.23301  0.01179  0.42766  1.0000
  Fe  Fe183     1.0  0.20418  0.44862  0.03827  1.0000
  C   C1297     1.0  0.36536  0.30219  0.08254  1.0000
  H   H1526     1.0  0.36036  0.98708  0.29435  1.0000
  C   C1298     1.0  0.36945  0.09996  0.21886  1.0000
  H   H1527     1.0  0.35182  0.08390  0.38051  1.0000
  H   H1528     1.0  0.26139  0.39325  0.99679  1.0000
  H   H1529     1.0  0.37884  0.05105  0.40290  1.0000
  C   C1299     1.0  0.20781  0.08402  0.10929  1.0000
  H   H1530     1.0  0.28600  0.34093  0.00081  1.0000
  H   H1531     1.0  0.30443  0.05288  0.18816  1.0000
  C   C1300     1.0  0.20459  0.10945  0.27151  1.0000
  C   C1301     1.0  0.31883  0.33707  0.98117  1.0000
  H   H1532     1.0  0.32479  0.07502  0.40880  1.0000
  H   H1533     1.0  0.37072  0.06756  0.41897  1.0000
  C   C1302     1.0  0.28731  0.99306  0.40140  1.0000
  C   C1303     1.0  0.37869  0.44114  0.00803  1.0000
  H   H1534     1.0  0.22670  0.11943  0.02969  1.0000
  C   C1304     1.0  0.22373  0.46993  0.97876  1.0000
  H   H1535     1.0  0.20563  0.46936  0.06334  1.0000
  H   H1536     1.0  0.20473  0.25427  0.14200  1.0000
  C   C1305     1.0  0.32346  0.00496  0.45814  1.0000
  S   S359      1.0  0.38952  0.98292  0.27065  1.0000
  H   H1537     1.0  0.22559  0.08323  0.16643  1.0000
  H   H1538     1.0  0.23337  0.20689  0.14853  1.0000
  H   H1539     1.0  0.35591  0.06635  0.37322  1.0000
  H   H1540     1.0  0.22812  0.15199  0.14520  1.0000
  H   H1541     1.0  0.20243  0.41236  0.00515  1.0000
  H   H1542     1.0  0.34082  0.00442  0.35733  1.0000
  H   H1543     1.0  0.35703  0.98990  0.34969  1.0000
  S   S360      1.0  0.22896  0.27891  0.12408  1.0000
  H   H1544     1.0  0.19902  0.31058  0.08790  1.0000
  C   C1306     1.0  0.37340  0.05948  0.39340  1.0000
  C   C1307     1.0  0.21834  0.21303  0.13261  1.0000
  H   H1545     1.0  0.19381  0.24626  0.09101  1.0000
  N   N85       1.0  0.20144  0.12289  0.03580  1.0000
  H   H1546     1.0  0.27452  0.31908  0.07347  1.0000
  H   H1547     1.0  0.26525  0.10322  0.24404  1.0000
  H   H1548     1.0  0.37808  0.32282  0.97933  1.0000
  S   S361      1.0  0.21312  0.40444  0.03751  1.0000
  H   H1549     1.0  0.21983  0.29184  0.07547  1.0000
  C   C1308     1.0  0.19826  0.29399  0.12518  1.0000
  C   C1309     1.0  0.20371  0.31425  0.07555  1.0000
  S   S362      1.0  0.23194  0.42196  0.99348  1.0000
  C   C1310     1.0  0.20503  0.33265  0.05048  1.0000
  H   H1550     1.0  0.19915  0.08272  0.19365  1.0000
  H   H1551     1.0  0.20637  0.24934  0.16918  1.0000
  C   C1311     1.0  0.22307  0.09608  0.16161  1.0000
  C   C1312     1.0  0.22653  0.11709  0.13867  1.0000
  H   H1552     1.0  0.38214  0.08044  0.25251  1.0000
  C   C1313     1.0  0.20300  0.11050  0.09326  1.0000
  C   C1314     1.0  0.31173  0.00261  0.45248  1.0000
  H   H1553     1.0  0.32472  0.98620  0.37102  1.0000
  C   C1315     1.0  0.29470  0.05432  0.22674  1.0000
  S   S363      1.0  0.38267  0.36697  0.03848  1.0000
  H   H1554     1.0  0.28194  0.39421  0.99198  1.0000
  H   H1555     1.0  0.19744  0.05056  0.24482  1.0000
  H   H1556     1.0  0.32099  0.01438  0.46420  1.0000
  H   H1557     1.0  0.21422  0.02058  0.42266  1.0000
  H   H1558     1.0  0.35632  0.33433  0.07471  1.0000
  S   S364      1.0  0.19372  0.06071  0.15692  1.0000
  Fe  Fe184     1.0  0.21880  0.42453  0.01787  1.0000
  H   H1559     1.0  0.21604  0.11632  0.11985  1.0000
  S   S365      1.0  0.22882  0.43495  0.03144  1.0000
  N   N86       1.0  0.25335  0.08922  0.30741  1.0000
  C   C1316     1.0  0.25171  0.07270  0.31325  1.0000
  C   C1317     1.0  0.26562  0.09108  0.31427  1.0000
  C   C1318     1.0  0.23839  0.09961  0.31340  1.0000
  C   C1319     1.0  0.25691  0.09310  0.29003  1.0000
  C   C1320     1.0  0.27021  0.09924  0.28082  1.0000
  C   C1321     1.0  0.24681  0.09085  0.28179  1.0000
  C   C1322     1.0  0.27311  0.10279  0.26442  1.0000
  C   C1323     1.0  0.24998  0.09421  0.26542  1.0000
  C   C1324     1.0  0.26303  0.10027  0.25675  1.0000
  H   H1560     1.0  0.24113  0.07076  0.31084  1.0000
  H   H1561     1.0  0.26217  0.06460  0.30787  1.0000
  H   H1562     1.0  0.25035  0.06894  0.32618  1.0000
  H   H1563     1.0  0.26685  0.10346  0.31118  1.0000
  H   H1564     1.0  0.27721  0.08344  0.31037  1.0000
  H   H1565     1.0  0.26267  0.08777  0.32735  1.0000
  H   H1566     1.0  0.22839  0.09830  0.30949  1.0000
  H   H1567     1.0  0.23520  0.09705  0.32646  1.0000
  H   H1568     1.0  0.23900  0.11218  0.30907  1.0000
  H   H1569     1.0  0.27850  0.10151  0.28596  1.0000
  H   H1570     1.0  0.23621  0.08671  0.28795  1.0000
  H   H1571     1.0  0.28316  0.10767  0.25751  1.0000
  H   H1572     1.0  0.24202  0.09247  0.25940  1.0000
  C   C1325     1.0  0.35125  0.07950  0.43330  1.0000
  C   C1326     1.0  0.22462  0.21613  0.14354  1.0000
  C   C1327     1.0  0.32708  0.00134  0.21996  1.0000
  H   H1573     1.0  0.25218  0.10049  0.15164  1.0000
  H   H1574     1.0  0.19408  0.01820  0.21579  1.0000
  C   C1328     1.0  0.27902  0.36330  0.00739  1.0000
  H   H1575     1.0  0.29080  0.01835  0.21318  1.0000
  C   C1329     1.0  0.33841  0.99534  0.45579  1.0000
  S   S366      1.0  0.19622  0.03323  0.13815  1.0000
  N   N87       1.0  0.38100  0.32305  0.06999  1.0000
  Fe  Fe185     1.0  0.20299  0.17228  0.07583  1.0000
  C   C1330     1.0  0.21626  0.12637  0.03647  1.0000
  C   C1331     1.0  0.19162  0.08512  0.11440  1.0000
  H   H1576     1.0  0.23066  0.22400  0.18262  1.0000
  H   H1577     1.0  0.21630  0.13907  0.03185  1.0000
  H   H1578     1.0  0.38616  0.06239  0.23434  1.0000
  H   H1579     1.0  0.25053  0.00125  0.40791  1.0000
  H   H1580     1.0  0.21975  0.13602  0.00696  1.0000
  C   C1332     1.0  0.21997  0.23095  0.14766  1.0000
  S   S367      1.0  0.19688  0.47511  0.03326  1.0000
  H   H1581     1.0  0.21127  0.09849  0.03594  1.0000
  C   C1333     1.0  0.37829  0.07202  0.22769  1.0000
  H   H1582     1.0  0.36938  0.34742  0.06823  1.0000
  C   C1334     1.0  0.37446  0.27869  0.10087  1.0000
  C   C1335     1.0  0.19888  0.12635  0.01967  1.0000
  C   C1336     1.0  0.38068  0.32274  0.05386  1.0000
  H   H1583     1.0  0.37267  0.36487  0.00792  1.0000
  H   H1584     1.0  0.36715  0.33568  0.08783  1.0000
  C   C1337     1.0  0.37906  0.30778  0.08059  1.0000
  C   C1338     1.0  0.20249  0.23927  0.12911  1.0000
  H   H1585     1.0  0.36235  0.08742  0.25040  1.0000
  H   H1586     1.0  0.22219  0.20164  0.12959  1.0000
  H   H1587     1.0  0.24443  0.99605  0.36493  1.0000
  H   H1588     1.0  0.19883  0.36086  0.11022  1.0000
  H   H1589     1.0  0.30543  0.98937  0.44020  1.0000
  Fe  Fe186     1.0  0.38692  0.03990  0.26539  1.0000
  C   C1339     1.0  0.24375  0.23486  0.15156  1.0000
  N   N88       1.0  0.37960  0.08765  0.22845  1.0000
  H   H1590     1.0  0.30598  0.06359  0.46954  1.0000
  H   H1591     1.0  0.19960  0.29961  0.13362  1.0000
  C   C1340     1.0  0.19415  0.09195  0.21429  1.0000
  C   C1341     1.0  0.24183  0.00310  0.37356  1.0000
  H   H1592     1.0  0.38158  0.41340  0.05718  1.0000
  C   C1342     1.0  0.36791  0.33562  0.07542  1.0000
  C   C1343     1.0  0.20731  0.22458  0.12538  1.0000
  C   C1344     1.0  0.19491  0.17407  0.99299  1.0000
  H   H1593     1.0  0.19819  0.22566  0.07647  1.0000
  Fe  Fe187     1.0  0.19250  0.17126  0.04721  1.0000
  H   H1594     1.0  0.22477  0.45755  0.98391  1.0000
  C   C1345     1.0  0.39043  0.29809  0.08926  1.0000
  H   H1595     1.0  0.19221  0.04270  0.22364  1.0000
  H   H1596     1.0  0.22790  0.02297  0.36062  1.0000
  C   C1346     1.0  0.24508  0.00629  0.39794  1.0000
  C   C1347     1.0  0.24794  0.99710  0.38701  1.0000
  C   C1348     1.0  0.23256  0.01820  0.37117  1.0000
  C   C1349     1.0  0.19097  0.08431  0.20460  1.0000
  H   H1597     1.0  0.39000  0.31305  0.04957  1.0000
  S   S368      1.0  0.19149  0.19109  0.05807  1.0000
  H   H1598     1.0  0.19065  0.10282  0.04459  1.0000
  H   H1599     1.0  0.33526  0.15043  0.77272  1.0000
  H   H1600     1.0  0.35463  0.38656  0.97374  1.0000
  Fe  Fe188     1.0  0.30581  0.05780  0.66472  1.0000
  S   S369      1.0  0.28424  0.04880  0.66833  1.0000
  S   S370      1.0  0.30836  0.06552  0.68507  1.0000
  Fe  Fe189     1.0  0.31577  0.05672  0.63020  1.0000
  S   S371      1.0  0.29446  0.04855  0.63071  1.0000
  S   S372      1.0  0.33647  0.05894  0.60973  1.0000
  Fe  Fe190     1.0  0.28118  0.06593  0.64581  1.0000
  S   S373      1.0  0.25782  0.08255  0.64392  1.0000
  Fe  Fe191     1.0  0.29943  0.03217  0.65321  1.0000
  S   S374      1.0  0.29959  0.00629  0.66076  1.0000
  S   S375      1.0  0.30205  0.07587  0.64297  1.0000
  S   S376      1.0  0.32146  0.03943  0.65199  1.0000
  Fe  Fe192     1.0  0.36423  0.04684  0.74782  1.0000
  H   H1601     1.0  0.23105  0.31429  0.79616  1.0000
  S   S377      1.0  0.35792  0.02347  0.75894  1.0000
  Fe  Fe193     1.0  0.35510  0.08266  0.74228  1.0000
  H   H1602     1.0  0.20841  0.11625  0.65981  1.0000
  S   S378      1.0  0.33628  0.10484  0.74369  1.0000
  Fe  Fe194     1.0  0.37348  0.06677  0.71556  1.0000
  C   C1350     1.0  0.37688  0.99431  0.48101  1.0000
  S   S379      1.0  0.31977  0.32333  0.97054  1.0000
  C   C1351     1.0  0.21392  0.20784  0.86271  1.0000
  S   S380      1.0  0.35028  0.06519  0.73206  1.0000
  S   S381      1.0  0.36664  0.06398  0.76018  1.0000
  Fe  Fe195     1.0  0.31001  0.36772  0.92553  1.0000
  S   S382      1.0  0.29960  0.34651  0.93444  1.0000
  S   S383      1.0  0.29352  0.39063  0.92844  1.0000
  Fe  Fe196     1.0  0.34334  0.34873  0.91650  1.0000
  S   S384      1.0  0.33548  0.32590  0.92463  1.0000
  S   S385      1.0  0.36920  0.34861  0.90754  1.0000
  Fe  Fe197     1.0  0.31535  0.33890  0.91279  1.0000
  S   S386      1.0  0.30613  0.33327  0.89473  1.0000
  Fe  Fe198     1.0  0.32053  0.33584  0.94533  1.0000
  C   C1352     1.0  0.33155  0.40007  0.95651  1.0000
  S   S387      1.0  0.32442  0.36107  0.90310  1.0000
  S   S388      1.0  0.32980  0.35771  0.93792  1.0000
  Fe  Fe199     1.0  0.21742  0.40732  0.90287  1.0000
  S   S389      1.0  0.20620  0.11811  0.72940  1.0000
  S   S390      1.0  0.24220  0.39958  0.89012  1.0000
  S   S391      1.0  0.20932  0.42450  0.91857  1.0000
  C   C1353     1.0  0.38517  0.09494  0.53377  1.0000
  S   S392      1.0  0.22381  0.18398  0.92002  1.0000
  Fe  Fe200     1.0  0.27918  0.26421  0.88428  1.0000
  S   S393      1.0  0.28879  0.26276  0.85901  1.0000
  S   S394      1.0  0.29339  0.26682  0.89993  1.0000
  Fe  Fe201     1.0  0.24745  0.25921  0.88423  1.0000
  S   S395      1.0  0.25415  0.25804  0.85894  1.0000
  S   S396      1.0  0.22328  0.25631  0.89775  1.0000
  Fe  Fe202     1.0  0.27674  0.24270  0.86461  1.0000
  S   S397      1.0  0.28795  0.22026  0.85573  1.0000
  Fe  Fe203     1.0  0.26535  0.27800  0.85568  1.0000
  S   S398      1.0  0.26319  0.29827  0.83519  1.0000
  S   S399      1.0  0.26938  0.24263  0.89032  1.0000
  S   S400      1.0  0.25644  0.28088  0.88049  1.0000
  C   C1354     1.0  0.35397  0.01853  0.62778  1.0000
  H   H1603     1.0  0.19098  0.19629  0.83824  1.0000
  C   C1355     1.0  0.21941  0.29662  0.83434  1.0000
  C   C1356     1.0  0.31685  0.11382  0.68625  1.0000
  H   H1604     1.0  0.29028  0.26136  0.82422  1.0000
  C   C1357     1.0  0.20908  0.09060  0.68780  1.0000
  Fe  Fe204     1.0  0.28340  0.14743  0.80526  1.0000
  S   S401      1.0  0.26668  0.13575  0.80123  1.0000
  S   S402      1.0  0.30828  0.13352  0.80419  1.0000
  Fe  Fe205     1.0  0.25796  0.17606  0.81230  1.0000
  S   S403      1.0  0.23918  0.16671  0.80846  1.0000
  S   S404      1.0  0.24890  0.19887  0.82057  1.0000
  Fe  Fe206     1.0  0.25048  0.14397  0.82221  1.0000
  S   S405      1.0  0.23599  0.12925  0.84149  1.0000
  Fe  Fe207     1.0  0.25702  0.15948  0.78774  1.0000
  S   S406      1.0  0.25295  0.16134  0.76386  1.0000
  S   S407      1.0  0.26793  0.15368  0.82766  1.0000
  S   S408      1.0  0.27508  0.17084  0.79015  1.0000
  Fe  Fe208     1.0  0.21231  0.13175  0.70480  1.0000
  S   S409      1.0  0.19959  0.15494  0.71088  1.0000
  S   S410      1.0  0.23780  0.12599  0.69266  1.0000
  H   H1605     1.0  0.32780  0.09344  0.57808  1.0000
  C   C1358     1.0  0.34681  0.99528  0.64700  1.0000
  H   H1606     1.0  0.30726  0.99897  0.57502  1.0000
  C   C1359     1.0  0.23562  0.15722  0.76242  1.0000
  C   C1360     1.0  0.23440  0.15565  0.74792  1.0000
  C   C1361     1.0  0.22072  0.15246  0.74631  1.0000
  C   C1362     1.0  0.20805  0.15115  0.75914  1.0000
  C   C1363     1.0  0.20930  0.15260  0.77369  1.0000
  C   C1364     1.0  0.22313  0.15545  0.77538  1.0000
  H   H1607     1.0  0.24399  0.15709  0.73784  1.0000
  H   H1608     1.0  0.21985  0.15141  0.73505  1.0000
  H   H1609     1.0  0.19956  0.15150  0.78368  1.0000
  H   H1610     1.0  0.22400  0.15655  0.78662  1.0000
  C   C1365     1.0  0.28990  0.12670  0.69530  1.0000
  C   C1366     1.0  0.21627  0.33657  0.87429  1.0000
  H   H1611     1.0  0.20255  0.26241  0.86879  1.0000
  H   H1612     1.0  0.22376  0.47528  0.90605  1.0000
  H   H1613     1.0  0.33041  0.31553  0.86040  1.0000
  C   C1367     1.0  0.34066  0.41150  0.95293  1.0000
  C   C1368     1.0  0.30120  0.11907  0.68393  1.0000
  C   C1369     1.0  0.33132  0.42228  0.92836  1.0000
  C   C1370     1.0  0.20968  0.32118  0.90115  1.0000
  C   C1371     1.0  0.20074  0.11653  0.82273  1.0000
  C   C1372     1.0  0.21289  0.12319  0.81231  1.0000
  C   C1373     1.0  0.22378  0.12712  0.81803  1.0000
  C   C1374     1.0  0.22273  0.12404  0.83418  1.0000
  C   C1375     1.0  0.21065  0.11729  0.84461  1.0000
  C   C1376     1.0  0.19954  0.11373  0.83889  1.0000
  H   H1614     1.0  0.21383  0.12538  0.79980  1.0000
  H   H1615     1.0  0.23302  0.13244  0.80992  1.0000
  H   H1616     1.0  0.20973  0.11505  0.85711  1.0000
  H   H1617     1.0  0.19660  0.08272  0.80290  1.0000
  C   C1377     1.0  0.27695  0.21377  0.84655  1.0000
  C   C1378     1.0  0.26105  0.22057  0.84712  1.0000
  C   C1379     1.0  0.25262  0.21573  0.83924  1.0000
  C   C1380     1.0  0.25991  0.20390  0.83086  1.0000
  C   C1381     1.0  0.27568  0.19664  0.83068  1.0000
  C   C1382     1.0  0.28418  0.20158  0.83852  1.0000
  H   H1618     1.0  0.25518  0.22945  0.85377  1.0000
  H   H1619     1.0  0.24040  0.22117  0.83966  1.0000
  H   H1620     1.0  0.28141  0.18748  0.82423  1.0000
  H   H1621     1.0  0.29648  0.19620  0.83810  1.0000
  C   C1383     1.0  0.24485  0.30820  0.81368  1.0000
  C   C1384     1.0  0.24574  0.30093  0.82920  1.0000
  C   C1385     1.0  0.23293  0.29536  0.83962  1.0000
  H   H1622     1.0  0.25471  0.31261  0.80564  1.0000
  H   H1623     1.0  0.23349  0.28992  0.85170  1.0000
  C   C1386     1.0  0.30311  0.99016  0.70273  1.0000
  S   S411      1.0  0.19218  0.12853  0.69711  1.0000
  H   H1624     1.0  0.33833  0.98650  0.68699  1.0000
  H   H1625     1.0  0.20965  0.29198  0.84229  1.0000
  C   C1387     1.0  0.22380  0.20406  0.91461  1.0000
  C   C1388     1.0  0.23647  0.20920  0.90350  1.0000
  C   C1389     1.0  0.23614  0.22523  0.89807  1.0000
  C   C1390     1.0  0.22354  0.23621  0.90437  1.0000
  C   C1391     1.0  0.21111  0.23106  0.91592  1.0000
  C   C1392     1.0  0.21114  0.21502  0.92087  1.0000
  H   H1626     1.0  0.24651  0.20084  0.89897  1.0000
  H   H1627     1.0  0.24565  0.22906  0.88897  1.0000
  H   H1628     1.0  0.35187  0.00954  0.54996  1.0000
  C   C1393     1.0  0.33358  0.05327  0.56221  1.0000
  C   C1394     1.0  0.30226  0.31482  0.89676  1.0000
  C   C1395     1.0  0.29447  0.31299  0.88625  1.0000
  C   C1396     1.0  0.29152  0.29836  0.88723  1.0000
  C   C1397     1.0  0.29649  0.28544  0.89865  1.0000
  C   C1398     1.0  0.30424  0.28728  0.90919  1.0000
  C   C1399     1.0  0.30707  0.30196  0.90830  1.0000
  H   H1629     1.0  0.29075  0.32290  0.87728  1.0000
  H   H1630     1.0  0.28554  0.29703  0.87907  1.0000
  H   H1631     1.0  0.30810  0.27730  0.91804  1.0000
  H   H1632     1.0  0.31314  0.30325  0.91640  1.0000
  H   H1633     1.0  0.21177  0.16159  0.86332  1.0000
  C   C1400     1.0  0.21141  0.47903  0.90587  1.0000
  H   H1634     1.0  0.21938  0.31110  0.88114  1.0000
  C   C1401     1.0  0.33588  0.98550  0.55700  1.0000
  C   C1402     1.0  0.31822  0.00206  0.57526  1.0000
  H   H1635     1.0  0.20877  0.05635  0.86276  1.0000
  C   C1403     1.0  0.21557  0.32199  0.88508  1.0000
  H   H1636     1.0  0.33923  0.01892  0.56488  1.0000
  H   H1637     1.0  0.25941  0.28693  0.91784  1.0000
  H   H1638     1.0  0.32772  0.00116  0.67348  1.0000
  C   C1404     1.0  0.27926  0.39395  0.91757  1.0000
  C   C1405     1.0  0.28364  0.39054  0.90268  1.0000
  C   C1406     1.0  0.27223  0.39284  0.89410  1.0000
  C   C1407     1.0  0.25634  0.39806  0.90059  1.0000
  C   C1408     1.0  0.25192  0.40129  0.91557  1.0000
  C   C1409     1.0  0.26340  0.39948  0.92396  1.0000
  H   H1639     1.0  0.29587  0.38635  0.89766  1.0000
  H   H1640     1.0  0.27573  0.39038  0.88250  1.0000
  H   H1641     1.0  0.23969  0.40504  0.92078  1.0000
  H   H1642     1.0  0.25996  0.40194  0.93556  1.0000
  C   C1410     1.0  0.32883  0.11234  0.76080  1.0000
  C   C1411     1.0  0.31749  0.12640  0.76027  1.0000
  C   C1412     1.0  0.31073  0.13259  0.77372  1.0000
  C   C1413     1.0  0.31575  0.12506  0.78767  1.0000
  C   C1414     1.0  0.32732  0.11111  0.78817  1.0000
  C   C1415     1.0  0.33370  0.10462  0.77481  1.0000
  H   H1643     1.0  0.31398  0.13261  0.74938  1.0000
  H   H1644     1.0  0.30200  0.14348  0.77319  1.0000
  H   H1645     1.0  0.33127  0.10530  0.79894  1.0000
  H   H1646     1.0  0.34232  0.09369  0.77538  1.0000
  H   H1647     1.0  0.35854  0.09275  0.52824  1.0000
  C   C1416     1.0  0.33958  0.99411  0.67498  1.0000
  H   H1648     1.0  0.19959  0.33721  0.85410  1.0000
  H   H1649     1.0  0.20777  0.15646  0.83324  1.0000
  C   C1417     1.0  0.35652  0.35691  0.96220  1.0000
  C   C1418     1.0  0.24168  0.11343  0.67985  1.0000
  C   C1419     1.0  0.25025  0.09806  0.68364  1.0000
  C   C1420     1.0  0.25524  0.08854  0.67265  1.0000
  C   C1421     1.0  0.25141  0.09424  0.65792  1.0000
  C   C1422     1.0  0.24234  0.10943  0.65435  1.0000
  C   C1423     1.0  0.23759  0.11907  0.66524  1.0000
  H   H1650     1.0  0.25338  0.09362  0.69494  1.0000
  H   H1651     1.0  0.26207  0.07679  0.67558  1.0000
  H   H1652     1.0  0.23938  0.11390  0.64295  1.0000
  H   H1653     1.0  0.23110  0.13100  0.66220  1.0000
  C   C1424     1.0  0.32721  0.06717  0.68479  1.0000
  C   C1425     1.0  0.34060  0.06025  0.67496  1.0000
  C   C1426     1.0  0.35560  0.06062  0.67619  1.0000
  C   C1427     1.0  0.35713  0.06811  0.68707  1.0000
  C   C1428     1.0  0.34367  0.07589  0.69603  1.0000
  C   C1429     1.0  0.32878  0.07509  0.69520  1.0000
  H   H1654     1.0  0.33946  0.05417  0.66681  1.0000
  H   H1655     1.0  0.36600  0.05472  0.66908  1.0000
  H   H1656     1.0  0.34475  0.08254  0.70367  1.0000
  H   H1657     1.0  0.31848  0.08066  0.70266  1.0000
  H   H1658     1.0  0.35926  0.02861  0.62463  1.0000
  H   H1659     1.0  0.30615  0.23620  0.81778  1.0000
  H   H1660     1.0  0.38569  0.11408  0.73013  1.0000
  C   C1430     1.0  0.35912  0.01343  0.74456  1.0000
  C   C1431     1.0  0.36211  0.02075  0.72867  1.0000
  C   C1432     1.0  0.36274  0.01279  0.71727  1.0000
  H   H1661     1.0  0.30669  0.35637  0.96598  1.0000
  H   H1662     1.0  0.24761  0.47859  0.93274  1.0000
  H   H1663     1.0  0.36368  0.03266  0.72510  1.0000
  H   H1664     1.0  0.36475  0.01867  0.70501  1.0000
  H   H1665     1.0  0.34073  0.09503  0.59792  1.0000
  C   C1433     1.0  0.29845  0.99932  0.61893  1.0000
  C   C1434     1.0  0.29872  0.00639  0.63069  1.0000
  C   C1435     1.0  0.29921  0.99756  0.64587  1.0000
  H   H1666     1.0  0.33121  0.39127  0.96728  1.0000
  C   C1436     1.0  0.34580  0.14191  0.77518  1.0000
  H   H1667     1.0  0.29773  0.00636  0.60733  1.0000
  H   H1668     1.0  0.29850  0.01868  0.62795  1.0000
  C   C1437     1.0  0.20883  0.22064  0.85135  1.0000
  H   H1669     1.0  0.22796  0.48032  0.93065  1.0000
  H   H1670     1.0  0.29802  0.98942  0.69354  1.0000
  C   C1438     1.0  0.34888  0.05216  0.58071  1.0000
  C   C1439     1.0  0.33508  0.05614  0.59180  1.0000
  C   C1440     1.0  0.32052  0.05827  0.58821  1.0000
  C   C1441     1.0  0.31979  0.05694  0.57341  1.0000
  H   H1671     1.0  0.36017  0.05045  0.58347  1.0000
  H   H1672     1.0  0.30982  0.06141  0.59665  1.0000
  H   H1673     1.0  0.30848  0.05899  0.57056  1.0000
  C   C1442     1.0  0.36298  0.37623  0.91691  1.0000
  H   H1674     1.0  0.34859  0.36061  0.97281  1.0000
  H   H1675     1.0  0.24279  0.46339  0.92721  1.0000
  H   H1676     1.0  0.35080  0.37687  0.91745  1.0000
  H   H1677     1.0  0.36217  0.32517  0.97005  1.0000
  N   N89       1.0  0.26204  0.16902  0.87893  1.0000
  C   C1443     1.0  0.25269  0.18493  0.87384  1.0000
  C   C1444     1.0  0.26493  0.16765  0.89458  1.0000
  C   C1445     1.0  0.27750  0.16747  0.86772  1.0000
  C   C1446     1.0  0.25320  0.15723  0.87984  1.0000
  C   C1447     1.0  0.23823  0.15719  0.89010  1.0000
  C   C1448     1.0  0.25892  0.14571  0.87059  1.0000
  C   C1449     1.0  0.22953  0.14637  0.89105  1.0000
  C   C1450     1.0  0.25007  0.13498  0.87157  1.0000
  C   C1451     1.0  0.23541  0.13532  0.88175  1.0000
  H   H1678     1.0  0.25000  0.18630  0.86226  1.0000
  H   H1679     1.0  0.24139  0.18756  0.88230  1.0000
  C   C1452     1.0  0.35133  0.32990  0.88467  1.0000
  H   H1680     1.0  0.27144  0.15566  0.89911  1.0000
  H   H1681     1.0  0.25388  0.17012  0.90346  1.0000
  H   H1682     1.0  0.27186  0.17616  0.89425  1.0000
  H   H1683     1.0  0.28540  0.15593  0.87108  1.0000
  H   H1684     1.0  0.27616  0.16899  0.85555  1.0000
  H   H1685     1.0  0.28373  0.17661  0.86728  1.0000
  H   H1686     1.0  0.23311  0.16554  0.89754  1.0000
  H   H1687     1.0  0.27014  0.14476  0.86242  1.0000
  H   H1688     1.0  0.21816  0.14655  0.89908  1.0000
  H   H1689     1.0  0.25455  0.12642  0.86425  1.0000
  H   H1690     1.0  0.22857  0.12702  0.88239  1.0000
  H   H1691     1.0  0.24536  0.44530  0.96789  1.0000
  N   N90       1.0  0.34994  0.41152  0.96401  1.0000
  S   S412      1.0  0.35528  0.02927  0.51215  1.0000
  H   H1692     1.0  0.21206  0.31809  0.85750  1.0000
  C   C1453     1.0  0.29887  0.98329  0.62222  1.0000
  N   N91       1.0  0.20003  0.08877  0.67737  1.0000
  C   C1454     1.0  0.34635  0.01636  0.61747  1.0000
  C   C1455     1.0  0.30937  0.12334  0.71022  1.0000
  C   C1456     1.0  0.32274  0.39972  0.94625  1.0000
  C   C1457     1.0  0.38148  0.09785  0.75964  1.0000
  H   H1693     1.0  0.35915  0.32216  0.89251  1.0000
  H   H1694     1.0  0.24631  0.33150  0.85925  1.0000
  H   H1695     1.0  0.31256  0.12481  0.72029  1.0000
  H   H1696     1.0  0.24829  0.24511  0.79089  1.0000
  H   H1697     1.0  0.34676  0.00228  0.67477  1.0000
  C   C1458     1.0  0.32263  0.41081  0.93221  1.0000
  C   C1459     1.0  0.19436  0.23566  0.87161  1.0000
  H   H1698     1.0  0.22696  0.35305  0.83487  1.0000
  H   H1699     1.0  0.32241  0.99174  0.73506  1.0000
  H   H1700     1.0  0.23702  0.41786  0.96198  1.0000
  N   N92       1.0  0.33013  0.00142  0.56032  1.0000
  H   H1701     1.0  0.19671  0.44115  0.95256  1.0000
  C   C1460     1.0  0.38283  0.38774  0.92004  1.0000
  C   C1461     1.0  0.33219  0.29203  0.87279  1.0000
  C   C1462     1.0  0.37300  0.08826  0.56881  1.0000
  S   S413      1.0  0.33224  0.05237  0.54352  1.0000
  N   N93       1.0  0.24701  0.25763  0.80836  1.0000
  C   C1463     1.0  0.23630  0.26008  0.82351  1.0000
  C   C1464     1.0  0.24582  0.27281  0.79682  1.0000
  H   H1702     1.0  0.20149  0.23946  0.92108  1.0000
  C   C1465     1.0  0.26340  0.25170  0.81044  1.0000
  C   C1466     1.0  0.27026  0.26031  0.81656  1.0000
  C   C1467     1.0  0.27302  0.23750  0.80644  1.0000
  C   C1468     1.0  0.35945  0.42370  0.95816  1.0000
  C   C1469     1.0  0.28836  0.23220  0.80882  1.0000
  S   S414      1.0  0.19834  0.41815  0.88929  1.0000
  H   H1703     1.0  0.23908  0.26883  0.82807  1.0000
  H   H1704     1.0  0.22383  0.26456  0.82240  1.0000
  H   H1705     1.0  0.23714  0.24907  0.83266  1.0000
  H   H1706     1.0  0.25346  0.27145  0.78516  1.0000
  H   H1707     1.0  0.24950  0.28164  0.80048  1.0000
  H   H1708     1.0  0.23352  0.27801  0.79529  1.0000
  C   C1470     1.0  0.36978  0.12299  0.76659  1.0000
  C   C1471     1.0  0.35429  0.00813  0.64232  1.0000
  H   H1709     1.0  0.35803  0.39761  0.92466  1.0000
  H   H1710     1.0  0.34583  0.02463  0.60638  1.0000
  H   H1711     1.0  0.26888  0.23002  0.80186  1.0000
  H   H1712     1.0  0.22886  0.25163  0.80146  1.0000
  H   H1713     1.0  0.29532  0.22110  0.80617  1.0000
  C   C1472     1.0  0.31666  0.99201  0.72604  1.0000
  H   H1714     1.0  0.35305  0.13802  0.75219  1.0000
  C   C1473     1.0  0.34026  0.42268  0.93848  1.0000
  H   H1715     1.0  0.20577  0.09384  0.77479  1.0000
  H   H1716     1.0  0.35877  0.04729  0.55768  1.0000
  H   H1717     1.0  0.19958  0.33419  0.91938  1.0000
  C   C1474     1.0  0.21200  0.33056  0.85172  1.0000
  H   H1718     1.0  0.22044  0.41040  0.94884  1.0000
  C   C1475     1.0  0.20501  0.34928  0.89672  1.0000
  H   H1719     1.0  0.19193  0.24906  0.89629  1.0000
  H   H1720     1.0  0.28869  0.09584  0.68404  1.0000
  H   H1721     1.0  0.21246  0.21988  0.83911  1.0000
  H   H1722     1.0  0.30999  0.37651  0.97746  1.0000
  C   C1476     1.0  0.36740  0.33112  0.97590  1.0000
  C   C1477     1.0  0.20210  0.40715  0.96959  1.0000
  C   C1478     1.0  0.24127  0.24690  0.80266  1.0000
  C   C1479     1.0  0.33109  0.01503  0.49374  1.0000
  S   S415      1.0  0.20309  0.30275  0.81134  1.0000
  S   S416      1.0  0.37772  0.08536  0.72476  1.0000
  C   C1480     1.0  0.30526  0.00459  0.70332  1.0000
  C   C1481     1.0  0.21889  0.30314  0.81857  1.0000
  H   H1723     1.0  0.20491  0.08282  0.65491  1.0000
  H   H1724     1.0  0.32282  0.99397  0.58545  1.0000
  H   H1725     1.0  0.32629  0.10784  0.67833  1.0000
  H   H1726     1.0  0.24173  0.23523  0.81089  1.0000
  C   C1482     1.0  0.34042  0.09238  0.57528  1.0000
  H   H1727     1.0  0.38070  0.05830  0.55335  1.0000
  C   C1483     1.0  0.36711  0.38806  0.92094  1.0000
  H   H1728     1.0  0.27774  0.13097  0.69437  1.0000
  H   H1729     1.0  0.20691  0.43728  0.83742  1.0000
  H   H1730     1.0  0.35890  0.36768  0.95334  1.0000
  H   H1731     1.0  0.38558  0.08662  0.56692  1.0000
  C   C1484     1.0  0.34770  0.09328  0.58650  1.0000
  H   H1732     1.0  0.33500  0.26886  0.88738  1.0000
  Fe  Fe209     1.0  0.35416  0.04754  0.52483  1.0000
  H   H1733     1.0  0.20991  0.45674  0.90323  1.0000
  H   H1734     1.0  0.37695  0.01166  0.49252  1.0000
  H   H1735     1.0  0.31483  0.09665  0.66578  1.0000
  C   C1485     1.0  0.37971  0.99934  0.49292  1.0000
  H   H1736     1.0  0.25720  0.45888  0.95582  1.0000
  H   H1737     1.0  0.36955  0.09184  0.59212  1.0000
  H   H1738     1.0  0.21059  0.36188  0.87337  1.0000
  H   H1739     1.0  0.21893  0.07181  0.66680  1.0000
  H   H1740     1.0  0.36648  0.42326  0.96660  1.0000
  H   H1741     1.0  0.29133  0.02230  0.50420  1.0000
  H   H1742     1.0  0.32314  0.29041  0.86808  1.0000
  N   N94       1.0  0.29650  0.11677  0.67052  1.0000
  C   C1486     1.0  0.23845  0.32759  0.85439  1.0000
  H   H1743     1.0  0.33996  0.14306  0.79945  1.0000
  H   H1744     1.0  0.33327  0.98396  0.63849  1.0000
  H   H1745     1.0  0.21573  0.33108  0.83887  1.0000
  C   C1487     1.0  0.32287  0.01214  0.54744  1.0000
  S   S417      1.0  0.36152  0.06481  0.50250  1.0000
  H   H1746     1.0  0.37658  0.13301  0.73423  1.0000
  H   H1747     1.0  0.33059  0.42575  0.97715  1.0000
  C   C1488     1.0  0.22584  0.41511  0.96853  1.0000
  H   H1748     1.0  0.33114  0.33899  0.86573  1.0000
  C   C1489     1.0  0.23150  0.30913  0.80832  1.0000
  H   H1749     1.0  0.19642  0.22204  0.89531  1.0000
  C   C1490     1.0  0.28438  0.10725  0.67644  1.0000
  C   C1491     1.0  0.36046  0.99743  0.72167  1.0000
  C   C1492     1.0  0.38632  0.98854  0.50491  1.0000
  C   C1493     1.0  0.37218  0.11917  0.78211  1.0000
  N   N95       1.0  0.25624  0.34879  0.90943  1.0000
  C   C1494     1.0  0.26242  0.35486  0.89255  1.0000
  C   C1495     1.0  0.23974  0.35730  0.91389  1.0000
  C   C1496     1.0  0.26555  0.35258  0.91842  1.0000
  C   C1497     1.0  0.25694  0.33181  0.91224  1.0000
  C   C1498     1.0  0.24851  0.32634  0.90459  1.0000
  C   C1499     1.0  0.26605  0.32028  0.92228  1.0000
  C   C1500     1.0  0.24935  0.31034  0.90669  1.0000
  C   C1501     1.0  0.26661  0.30434  0.92443  1.0000
  C   C1502     1.0  0.25840  0.29936  0.91657  1.0000
  H   H1750     1.0  0.25533  0.35371  0.88495  1.0000
  H   H1751     1.0  0.26242  0.36754  0.89004  1.0000
  H   H1752     1.0  0.27474  0.34855  0.88871  1.0000
  H   H1753     1.0  0.23223  0.35668  0.90642  1.0000
  H   H1754     1.0  0.23896  0.37001  0.91264  1.0000
  H   H1755     1.0  0.23442  0.35255  0.92631  1.0000
  H   H1756     1.0  0.27826  0.34733  0.91492  1.0000
  H   H1757     1.0  0.26463  0.36542  0.91625  1.0000
  H   H1758     1.0  0.26147  0.34854  0.93128  1.0000
  H   H1759     1.0  0.24140  0.33439  0.89675  1.0000
  H   H1760     1.0  0.27321  0.32319  0.92829  1.0000
  H   H1761     1.0  0.24317  0.30634  0.90047  1.0000
  H   H1762     1.0  0.27394  0.29570  0.93181  1.0000
  N   N96       1.0  0.35309  0.32409  0.87044  1.0000
  H   H1763     1.0  0.19380  0.17422  0.82857  1.0000
  N   N97       1.0  0.34678  0.98480  0.66271  1.0000
  H   H1764     1.0  0.19539  0.24394  0.84648  1.0000
  C   C1503     1.0  0.34802  0.30903  0.87486  1.0000
  C   C1504     1.0  0.35485  0.29620  0.88570  1.0000
  C   C1505     1.0  0.33653  0.30648  0.86847  1.0000
  C   C1506     1.0  0.35022  0.28188  0.89011  1.0000
  C   C1507     1.0  0.36090  0.39609  0.96713  1.0000
  C   C1508     1.0  0.33889  0.27982  0.88369  1.0000
  C   C1509     1.0  0.36984  0.32173  0.86219  1.0000
  H   H1765     1.0  0.19847  0.08532  0.75463  1.0000
  H   H1766     1.0  0.35422  0.34164  0.88181  1.0000
  H   H1767     1.0  0.33134  0.01291  0.53593  1.0000
  H   H1768     1.0  0.36800  0.42206  0.94698  1.0000
  N   N98       1.0  0.38102  0.11487  0.75457  1.0000
  S   S418      1.0  0.38681  0.40317  0.92543  1.0000
  H   H1769     1.0  0.36536  0.11795  0.73937  1.0000
  H   H1770     1.0  0.33138  0.43072  0.91727  1.0000
  H   H1771     1.0  0.34658  0.99291  0.49429  1.0000
  H   H1772     1.0  0.31454  0.01403  0.57774  1.0000
  C   C1510     1.0  0.33936  0.99328  0.63604  1.0000
  N   N99       1.0  0.27603  0.11363  0.75967  1.0000
  C   C1511     1.0  0.27946  0.12943  0.75333  1.0000
  C   C1512     1.0  0.26093  0.11478  0.77148  1.0000
  C   C1513     1.0  0.28858  0.10374  0.76799  1.0000
  C   C1514     1.0  0.27493  0.10754  0.74660  1.0000
  C   C1515     1.0  0.28674  0.09543  0.74050  1.0000
  C   C1516     1.0  0.26209  0.11425  0.73905  1.0000
  C   C1517     1.0  0.28533  0.09003  0.72806  1.0000
  C   C1518     1.0  0.26078  0.10873  0.72668  1.0000
  C   C1519     1.0  0.27233  0.09656  0.72128  1.0000
  H   H1773     1.0  0.27023  0.13770  0.74739  1.0000
  H   H1774     1.0  0.28013  0.13468  0.76278  1.0000
  H   H1775     1.0  0.29080  0.12907  0.74463  1.0000
  H   H1776     1.0  0.25136  0.12422  0.76715  1.0000
  H   H1777     1.0  0.26187  0.11779  0.78218  1.0000
  H   H1778     1.0  0.25694  0.10355  0.77521  1.0000
  H   H1779     1.0  0.30050  0.10349  0.76027  1.0000
  H   H1780     1.0  0.28879  0.10839  0.77805  1.0000
  H   H1781     1.0  0.28691  0.09153  0.77274  1.0000
  H   H1782     1.0  0.29722  0.08996  0.74506  1.0000
  H   H1783     1.0  0.25296  0.12393  0.74258  1.0000
  H   H1784     1.0  0.29443  0.08075  0.72362  1.0000
  H   H1785     1.0  0.25077  0.11398  0.72121  1.0000
  H   H1786     1.0  0.27125  0.09227  0.71174  1.0000
  C   C1520     1.0  0.34389  0.33666  0.86003  1.0000
  C   C1521     1.0  0.19336  0.07896  0.79412  1.0000
  C   C1522     1.0  0.20293  0.15511  0.86360  1.0000
  H   H1787     1.0  0.22140  0.19724  0.85930  1.0000
  C   C1523     1.0  0.20356  0.46846  0.90429  1.0000
  C   C1524     1.0  0.30336  0.01563  0.50227  1.0000
  C   C1525     1.0  0.21647  0.41090  0.96108  1.0000
  H   H1788     1.0  0.21032  0.36066  0.84847  1.0000
  C   C1526     1.0  0.20936  0.20870  0.87843  1.0000
  C   C1527     1.0  0.20133  0.16758  0.83708  1.0000
  C   C1528     1.0  0.21123  0.08352  0.66349  1.0000
  C   C1529     1.0  0.30967  0.10863  0.65969  1.0000
  C   C1530     1.0  0.36685  0.08153  0.53171  1.0000
  C   C1531     1.0  0.38109  0.34224  0.95050  1.0000
  H   H1789     1.0  0.34994  0.99906  0.57008  1.0000
  C   C1532     1.0  0.22238  0.35314  0.84756  1.0000
  H   H1790     1.0  0.31850  0.02432  0.54941  1.0000
  S   S419      1.0  0.37830  0.03771  0.52975  1.0000
  N   N100      1.0  0.37123  0.34596  0.96558  1.0000
  H   H1791     1.0  0.33904  0.33094  0.89154  1.0000
  H   H1792     1.0  0.31587  0.41039  0.92424  1.0000
  H   H1793     1.0  0.21327  0.19876  0.88734  1.0000
  C   C1533     1.0  0.37883  0.35314  0.97342  1.0000
  H   H1794     1.0  0.36013  0.07211  0.53710  1.0000
  H   H1795     1.0  0.29661  0.99370  0.50973  1.0000
  H   H1796     1.0  0.38215  0.11035  0.78541  1.0000
  H   H1797     1.0  0.35429  0.99176  0.53654  1.0000
  C   C1534     1.0  0.36395  0.09132  0.58325  1.0000
  H   H1798     1.0  0.36017  0.01042  0.65001  1.0000
  H   H1799     1.0  0.37730  0.10669  0.53123  1.0000
  C   C1535     1.0  0.31258  0.35288  0.97563  1.0000
  N   N101      1.0  0.31404  0.02145  0.71554  1.0000
  C   C1536     1.0  0.29921  0.03347  0.71479  1.0000
  C   C1537     1.0  0.31884  0.02139  0.72991  1.0000
  C   C1538     1.0  0.32636  0.02621  0.70181  1.0000
  C   C1539     1.0  0.31183  0.00603  0.71519  1.0000
  S   S420      1.0  0.39003  0.03599  0.49256  1.0000
  H   H1800     1.0  0.21049  0.17404  0.83599  1.0000
  S   S421      1.0  0.35935  0.98854  0.70729  1.0000
  Fe  Fe210     1.0  0.38593  0.05372  0.50670  1.0000
  C   C1540     1.0  0.35619  0.13460  0.76346  1.0000
  H   H1801     1.0  0.28931  0.02970  0.72416  1.0000
  H   H1802     1.0  0.30030  0.04491  0.71610  1.0000
  H   H1803     1.0  0.29584  0.03614  0.70333  1.0000
  H   H1804     1.0  0.31023  0.01749  0.74071  1.0000
  H   H1805     1.0  0.31999  0.03321  0.73008  1.0000
  H   H1806     1.0  0.33057  0.01370  0.73064  1.0000
  H   H1807     1.0  0.33732  0.01695  0.70124  1.0000
  H   H1808     1.0  0.32264  0.02866  0.69055  1.0000
  H   H1809     1.0  0.32950  0.03700  0.70232  1.0000
  C   C1541     1.0  0.33912  0.00375  0.62155  1.0000
  H   H1810     1.0  0.30195  0.01457  0.69421  1.0000
  C   C1542     1.0  0.32215  0.99027  0.50288  1.0000
  C   C1543     1.0  0.28552  0.25479  0.81908  1.0000
  H   H1811     1.0  0.35471  0.99228  0.76127  1.0000
  C   C1544     1.0  0.30652  0.99927  0.50539  1.0000
  H   H1812     1.0  0.27873  0.13830  0.66807  1.0000
  H   H1813     1.0  0.36346  0.12311  0.80563  1.0000
  H   H1814     1.0  0.37173  0.31703  0.85158  1.0000
  C   C1545     1.0  0.34935  0.08923  0.56084  1.0000
  C   C1546     1.0  0.32076  0.11588  0.69928  1.0000
  H   H1815     1.0  0.36905  0.39604  0.97431  1.0000
  C   C1547     1.0  0.35707  0.99798  0.74898  1.0000
  H   H1816     1.0  0.33271  0.11157  0.70097  1.0000
  H   H1817     1.0  0.26384  0.27133  0.81968  1.0000
  S   S422      1.0  0.20509  0.38917  0.91984  1.0000
  H   H1818     1.0  0.20156  0.21116  0.92980  1.0000
  C   C1548     1.0  0.34812  0.05052  0.56605  1.0000
  H   H1819     1.0  0.20054  0.35989  0.90126  1.0000
  H   H1820     1.0  0.22998  0.35880  0.85091  1.0000
  H   H1821     1.0  0.21745  0.07953  0.69157  1.0000
  N   N102      1.0  0.23389  0.46437  0.95170  1.0000
  C   C1549     1.0  0.22163  0.45584  0.95327  1.0000
  C   C1550     1.0  0.23827  0.47203  0.93488  1.0000
  C   C1551     1.0  0.24802  0.45285  0.95600  1.0000
  C   C1552     1.0  0.22791  0.47551  0.96227  1.0000
  Fe  Fe211     1.0  0.38009  0.02097  0.51504  1.0000
  Fe  Fe212     1.0  0.38903  0.06538  0.74185  1.0000
  C   C1553     1.0  0.28977  0.13216  0.66125  1.0000
  N   N103      1.0  0.22217  0.33709  0.85729  1.0000
  H   H1822     1.0  0.19977  0.06481  0.68965  1.0000
  H   H1823     1.0  0.21088  0.46416  0.95012  1.0000
  H   H1824     1.0  0.22565  0.44733  0.94547  1.0000
  H   H1825     1.0  0.21823  0.44904  0.96543  1.0000
  H   H1826     1.0  0.34705  0.43162  0.93451  1.0000
  C   C1554     1.0  0.19965  0.22232  0.88290  1.0000
  H   H1827     1.0  0.34982  0.35133  0.95763  1.0000
  C   C1555     1.0  0.29398  0.12885  0.70817  1.0000
  H   H1828     1.0  0.25323  0.44471  0.94783  1.0000
  H   H1829     1.0  0.37761  0.31334  0.86979  1.0000
  H   H1830     1.0  0.37501  0.33692  0.94486  1.0000
  C   C1556     1.0  0.36160  0.12643  0.79377  1.0000
  H   H1831     1.0  0.23912  0.31491  0.85963  1.0000
  Fe  Fe213     1.0  0.36497  0.04537  0.49023  1.0000
  H   H1832     1.0  0.29822  0.14001  0.65721  1.0000
  H   H1833     1.0  0.36825  0.39287  0.95598  1.0000
  C   C1557     1.0  0.36601  0.08691  0.55722  1.0000
  C   C1558     1.0  0.34842  0.13775  0.79031  1.0000
  H   H1834     1.0  0.36957  0.09555  0.76176  1.0000
  C   C1559     1.0  0.37458  0.36392  0.91177  1.0000
  H   H1835     1.0  0.28663  0.13087  0.65073  1.0000
  H   H1836     1.0  0.24357  0.32838  0.84163  1.0000
  H   H1837     1.0  0.28511  0.13475  0.71663  1.0000
  S   S423      1.0  0.37569  0.06703  0.69021  1.0000
  H   H1838     1.0  0.27339  0.11327  0.68338  1.0000
  H   H1839     1.0  0.37464  0.07865  0.52061  1.0000
  H   H1840     1.0  0.21940  0.09147  0.65721  1.0000
  H   H1841     1.0  0.31911  0.11533  0.65441  1.0000
  H   H1842     1.0  0.28101  0.10464  0.66670  1.0000
  C   C1560     1.0  0.19444  0.08042  0.76698  1.0000
  C   C1561     1.0  0.19919  0.23437  0.85567  1.0000
  Fe  Fe214     1.0  0.19950  0.17935  0.92698  1.0000
  H   H1843     1.0  0.34290  0.08815  0.55298  1.0000
  H   H1844     1.0  0.30572  0.10701  0.64980  1.0000
  H   H1845     1.0  0.31596  0.39081  0.94909  1.0000
  C   C1562     1.0  0.33437  0.99868  0.49683  1.0000
  H   H1846     1.0  0.25905  0.19416  0.87273  1.0000
  C   C1563     1.0  0.34338  0.00741  0.56136  1.0000
  C   C1564     1.0  0.29451  0.24070  0.81532  1.0000
  H   H1847     1.0  0.33295  0.00226  0.61362  1.0000
  H   H1848     1.0  0.34537  0.33363  0.84859  1.0000
  C   C1565     1.0  0.19857  0.08521  0.77828  1.0000
  C   C1566     1.0  0.31563  0.02348  0.49655  1.0000
  N   N104      1.0  0.37597  0.08281  0.54239  1.0000
  H   H1849     1.0  0.37402  0.33288  0.85844  1.0000
  H   H1850     1.0  0.20937  0.14393  0.86001  1.0000
  H   H1851     1.0  0.19687  0.15178  0.87598  1.0000
  H   H1852     1.0  0.19722  0.45615  0.85479  1.0000
  C   C1567     1.0  0.38705  0.06753  0.54591  1.0000
  C   C1568     1.0  0.20439  0.33480  0.90695  1.0000
  H   H1853     1.0  0.35194  0.43571  0.95623  1.0000
  H   H1854     1.0  0.20906  0.30991  0.90912  1.0000
  H   H1855     1.0  0.20112  0.09416  0.69856  1.0000
  H   H1856     1.0  0.21617  0.09960  0.68200  1.0000
  H   H1857     1.0  0.31277  0.00818  0.54633  1.0000
  H   H1858     1.0  0.31313  0.03615  0.49419  1.0000
  H   H1859     1.0  0.35530  0.27237  0.89870  1.0000
  H   H1860     1.0  0.38370  0.35298  0.94184  1.0000
  C   C1569     1.0  0.35781  0.98997  0.73755  1.0000
  H   H1861     1.0  0.38904  0.01143  0.76558  1.0000
  H   H1862     1.0  0.36373  0.29718  0.89097  1.0000
  C   C1570     1.0  0.37692  0.12029  0.73892  1.0000
  C   C1571     1.0  0.19560  0.43752  0.84550  1.0000
  S   S424      1.0  0.38725  0.04704  0.73072  1.0000
  H   H1863     1.0  0.34063  0.02120  0.48899  1.0000
  C   C1572     1.0  0.21083  0.35024  0.88061  1.0000
  H   H1864     1.0  0.34762  0.34796  0.85733  1.0000
  H   H1865     1.0  0.38941  0.09139  0.75066  1.0000
  Fe  Fe215     1.0  0.19508  0.40737  0.93431  1.0000
  H   H1866     1.0  0.38591  0.09238  0.77057  1.0000
  H   H1867     1.0  0.33058  0.05953  0.47857  1.0000
  C   C1573     1.0  0.19589  0.11710  0.66322  1.0000
  S   S425      1.0  0.19362  0.15618  0.94002  1.0000
  H   H1868     1.0  0.38184  0.99443  0.76841  1.0000
  H   H1869     1.0  0.38001  0.46795  0.96649  1.0000
  H   H1870     1.0  0.37038  0.98538  0.66301  1.0000
  C   C1574     1.0  0.19153  0.07609  0.68615  1.0000
  C   C1575     1.0  0.39044  0.36365  0.91052  1.0000
  H   H1871     1.0  0.19140  0.14167  0.65217  1.0000
  Fe  Fe216     1.0  0.19182  0.14098  0.73490  1.0000
  H   H1872     1.0  0.19084  0.17423  0.97066  1.0000
  H   H1873     1.0  0.21923  0.07834  0.86381  1.0000
  H   H1874     1.0  0.19159  0.12266  0.88413  1.0000
  H   H1875     1.0  0.19114  0.26633  0.85417  1.0000
  C   C1576     1.0  0.20303  0.06299  0.87181  1.0000
  H   H1876     1.0  0.19090  0.41876  0.83872  1.0000
  N   N105      1.0  0.19192  0.16454  0.85340  1.0000
  S   S426      1.0  0.38988  0.99514  0.51969  1.0000
  H   H1877     1.0  0.20593  0.09375  0.88413  1.0000
  C   C1577     1.0  0.20891  0.07537  0.87236  1.0000
  C   C1578     1.0  0.20136  0.08408  0.88377  1.0000
  H   H1878     1.0  0.19064  0.13614  0.97748  1.0000
  C   C1579     1.0  0.37962  0.46051  0.97817  1.0000
  H   H1879     1.0  0.26094  0.54242  0.08844  1.0000
  H   H1880     1.0  0.35008  0.62746  0.98348  1.0000
  Fe  Fe217     1.0  0.29475  0.61694  0.07017  1.0000
  S   S427      1.0  0.29828  0.63632  0.04903  1.0000
  S   S428      1.0  0.26975  0.61350  0.07964  1.0000
  Fe  Fe218     1.0  0.32943  0.60972  0.07221  1.0000
  S   S429      1.0  0.33517  0.62900  0.05146  1.0000
  S   S430      1.0  0.34765  0.59077  0.08351  1.0000
  Fe  Fe219     1.0  0.31197  0.64326  0.06221  1.0000
  S   S431      1.0  0.30571  0.66930  0.06182  1.0000
  Fe  Fe220     1.0  0.32087  0.62027  0.04051  1.0000
  C   C1580     1.0  0.37256  0.86841  0.19208  1.0000
  S   S432      1.0  0.30726  0.62461  0.08394  1.0000
  S   S433      1.0  0.31629  0.60025  0.06066  1.0000
  Fe  Fe221     1.0  0.20312  0.54670  0.05977  1.0000
  S   S434      1.0  0.20254  0.52134  0.07151  1.0000
  Fe  Fe222     1.0  0.22634  0.56736  0.05276  1.0000
  S   S435      1.0  0.21053  0.58859  0.04180  1.0000
  S   S436      1.0  0.25155  0.56566  0.05257  1.0000
  H   H1881     1.0  0.35954  0.60106  0.99515  1.0000
  Fe  Fe223     1.0  0.20528  0.57240  0.03028  1.0000
  H   H1882     1.0  0.21223  0.95965  0.16316  1.0000
  S   S437      1.0  0.20773  0.56109  0.07393  1.0000
  S   S438      1.0  0.22293  0.55173  0.03941  1.0000
  Fe  Fe224     1.0  0.30597  0.91792  0.39356  1.0000
  S   S439      1.0  0.28306  0.93125  0.38688  1.0000
  S   S440      1.0  0.30629  0.91193  0.41941  1.0000
  Fe  Fe225     1.0  0.32262  0.91791  0.35995  1.0000
  S   S441      1.0  0.30134  0.93126  0.35048  1.0000
  S   S442      1.0  0.34554  0.91287  0.34297  1.0000
  Fe  Fe226     1.0  0.29761  0.94591  0.36767  1.0000
  S   S443      1.0  0.29086  0.97202  0.36029  1.0000
  Fe  Fe227     1.0  0.28844  0.91538  0.37015  1.0000
  S   S444      1.0  0.26729  0.91058  0.36510  1.0000
  S   S445      1.0  0.32006  0.93406  0.37554  1.0000
  S   S446      1.0  0.31026  0.90053  0.37845  1.0000
  C   C1581     1.0  0.21091  0.85571  0.22742  1.0000
  H   H1883     1.0  0.36441  0.56834  0.06331  1.0000
  H   H1884     1.0  0.35956  0.92083  0.40957  1.0000
  H   H1885     1.0  0.37450  0.62135  0.02856  1.0000
  Fe  Fe228     1.0  0.20678  0.90029  0.14402  1.0000
  C   C1582     1.0  0.32646  0.86396  0.20533  1.0000
  S   S447      1.0  0.21580  0.88549  0.16521  1.0000
  C   C1583     1.0  0.19953  0.48755  0.04372  1.0000
  H   H1886     1.0  0.24624  0.82657  0.08455  1.0000
  C   C1584     1.0  0.29419  0.56887  0.98711  1.0000
  H   H1887     1.0  0.23888  0.85551  0.38771  1.0000
  S   S448      1.0  0.21893  0.90884  0.11918  1.0000
  H   H1888     1.0  0.32568  0.94794  0.43373  1.0000
  Fe  Fe229     1.0  0.27948  0.83048  0.20446  1.0000
  S   S449      1.0  0.30174  0.81210  0.20495  1.0000
  S   S450      1.0  0.25726  0.82821  0.22265  1.0000
  Fe  Fe230     1.0  0.29419  0.85110  0.17503  1.0000
  S   S451      1.0  0.31772  0.83460  0.17307  1.0000
  S   S452      1.0  0.28895  0.87285  0.15675  1.0000
  Fe  Fe231     1.0  0.30379  0.81597  0.17906  1.0000
  S   S453      1.0  0.31116  0.79702  0.16520  1.0000
  Fe  Fe232     1.0  0.31332  0.83249  0.19907  1.0000
  S   S454      1.0  0.28056  0.83271  0.17909  1.0000
  S   S455      1.0  0.29080  0.85061  0.20049  1.0000
  Fe  Fe233     1.0  0.24170  0.85002  0.33523  1.0000
  S   S456      1.0  0.24418  0.82681  0.32957  1.0000
  S   S457      1.0  0.25724  0.84985  0.35115  1.0000
  Fe  Fe234     1.0  0.22122  0.86676  0.31170  1.0000
  S   S458      1.0  0.22247  0.84518  0.30371  1.0000
  C   C1585     1.0  0.35582  0.96494  0.30837  1.0000
  Fe  Fe235     1.0  0.21838  0.83413  0.32939  1.0000
  H   H1889     1.0  0.21600  0.64197  0.07325  1.0000
  Fe  Fe236     1.0  0.24791  0.83958  0.30451  1.0000
  S   S459      1.0  0.26917  0.83077  0.28696  1.0000
  S   S460      1.0  0.21538  0.85627  0.33756  1.0000
  S   S461      1.0  0.24707  0.86227  0.31000  1.0000
  H   H1890     1.0  0.25828  0.95558  0.14385  1.0000
  C   C1586     1.0  0.31670  0.84595  0.30238  1.0000
  H   H1891     1.0  0.28772  0.85077  0.26645  1.0000
  Fe  Fe237     1.0  0.20465  0.80896  0.04852  1.0000
  C   C1587     1.0  0.23302  0.81463  0.11428  1.0000
  S   S462      1.0  0.23036  0.80160  0.03827  1.0000
  H   H1892     1.0  0.19721  0.78343  0.00525  1.0000
  C   C1588     1.0  0.36232  0.95899  0.25239  1.0000
  C   C1589     1.0  0.22189  0.80131  0.10201  1.0000
  H   H1893     1.0  0.31999  0.86387  0.19702  1.0000
  S   S463      1.0  0.20954  0.88992  0.29883  1.0000
  C   C1590     1.0  0.22885  0.82181  0.13949  1.0000
  H   H1894     1.0  0.20397  0.82868  0.10570  1.0000
  H   H1895     1.0  0.24612  0.61630  0.03542  1.0000
  C   C1591     1.0  0.26151  0.63503  0.01169  1.0000
  C   C1592     1.0  0.27612  0.56499  0.01211  1.0000
  S   S464      1.0  0.34004  0.89660  0.21796  1.0000
  H   H1896     1.0  0.19249  0.53391  0.00122  1.0000
  H   H1897     1.0  0.29050  0.65642  0.99530  1.0000
  C   C1593     1.0  0.23461  0.56996  0.10625  1.0000
  Fe  Fe238     1.0  0.27790  0.72270  0.12254  1.0000
  S   S465      1.0  0.25832  0.72656  0.14363  1.0000
  S   S466      1.0  0.29442  0.69915  0.12044  1.0000
  Fe  Fe239     1.0  0.26986  0.75629  0.10523  1.0000
  S   S467      1.0  0.24926  0.76290  0.12409  1.0000
  S   S468      1.0  0.27808  0.77299  0.08312  1.0000
  Fe  Fe240     1.0  0.26520  0.74942  0.14055  1.0000
  S   S469      1.0  0.26224  0.76154  0.16027  1.0000
  Fe  Fe241     1.0  0.24399  0.73985  0.12572  1.0000
  S   S470      1.0  0.21947  0.73873  0.12615  1.0000
  S   S471      1.0  0.28634  0.74419  0.12139  1.0000
  S   S472      1.0  0.26297  0.73471  0.10492  1.0000
  C   C1594     1.0  0.20692  0.69084  0.14703  1.0000
  C   C1595     1.0  0.22067  0.69347  0.14899  1.0000
  C   C1596     1.0  0.22476  0.70804  0.14233  1.0000
  C   C1597     1.0  0.21494  0.72015  0.13397  1.0000
  C   C1598     1.0  0.20125  0.71749  0.13188  1.0000
  C   C1599     1.0  0.34191  0.98089  0.33334  1.0000
  H   H1898     1.0  0.22816  0.68422  0.15569  1.0000
  H   H1899     1.0  0.23534  0.70995  0.14398  1.0000
  N   N106      1.0  0.21328  0.74765  0.08092  1.0000
  S   S473      1.0  0.20202  0.67252  0.15554  1.0000
  C   C1600     1.0  0.24324  0.79356  0.05112  1.0000
  C   C1601     1.0  0.25895  0.79471  0.04558  1.0000
  C   C1602     1.0  0.26957  0.78835  0.05549  1.0000
  C   C1603     1.0  0.26466  0.78034  0.07084  1.0000
  C   C1604     1.0  0.24906  0.77876  0.07632  1.0000
  C   C1605     1.0  0.23826  0.78567  0.06655  1.0000
  H   H1900     1.0  0.26287  0.80075  0.03363  1.0000
  H   H1901     1.0  0.28163  0.78960  0.05120  1.0000
  H   H1902     1.0  0.24533  0.77235  0.08813  1.0000
  H   H1903     1.0  0.22618  0.78469  0.07080  1.0000
  H   H1904     1.0  0.24365  0.51660  0.07394  1.0000
  C   C1606     1.0  0.21496  0.82928  0.09650  1.0000
  H   H1905     1.0  0.24980  0.91725  0.13114  1.0000
  H   H1906     1.0  0.31452  0.87303  0.28444  1.0000
  H   H1907     1.0  0.23510  0.75409  0.07870  1.0000
  H   H1908     1.0  0.20557  0.83103  0.27372  1.0000
  H   H1909     1.0  0.21527  0.61840  0.06532  1.0000
  H   H1910     1.0  0.27879  0.84508  0.32056  1.0000
  Fe  Fe242     1.0  0.36785  0.92163  0.46262  1.0000
  H   H1911     1.0  0.34698  0.94109  0.28117  1.0000
  H   H1912     1.0  0.26675  0.60950  0.03393  1.0000
  C   C1607     1.0  0.22421  0.62322  0.98684  1.0000
  H   H1913     1.0  0.30741  0.64283  0.01439  1.0000
  C   C1608     1.0  0.20201  0.57422  0.97887  1.0000
  H   H1914     1.0  0.21244  0.61030  0.00828  1.0000
  H   H1915     1.0  0.24217  0.95892  0.13475  1.0000
  C   C1609     1.0  0.29116  0.56613  0.00338  1.0000
  N   N107      1.0  0.31911  0.72587  0.07374  1.0000
  C   C1610     1.0  0.29727  0.78786  0.16321  1.0000
  C   C1611     1.0  0.28155  0.79128  0.17102  1.0000
  C   C1612     1.0  0.27091  0.78321  0.16988  1.0000
  C   C1613     1.0  0.27580  0.77200  0.16059  1.0000
  C   C1614     1.0  0.29136  0.76910  0.15221  1.0000
  C   C1615     1.0  0.30209  0.77691  0.15365  1.0000
  H   H1916     1.0  0.27769  0.79993  0.17812  1.0000
  H   H1917     1.0  0.25884  0.78556  0.17629  1.0000
  H   H1918     1.0  0.29525  0.76046  0.14505  1.0000
  H   H1919     1.0  0.31423  0.77429  0.14749  1.0000
  C   C1616     1.0  0.26050  0.82831  0.24075  1.0000
  C   C1617     1.0  0.24793  0.82943  0.25371  1.0000
  C   C1618     1.0  0.25044  0.83022  0.26800  1.0000
  C   C1619     1.0  0.26558  0.82955  0.26940  1.0000
  C   C1620     1.0  0.27820  0.82792  0.25655  1.0000
  C   C1621     1.0  0.27563  0.82753  0.24220  1.0000
  H   H1920     1.0  0.23625  0.82994  0.25265  1.0000
  H   H1921     1.0  0.24072  0.83118  0.27794  1.0000
  H   H1922     1.0  0.28999  0.82702  0.25765  1.0000
  H   H1923     1.0  0.28544  0.82648  0.23232  1.0000
  H   H1924     1.0  0.30058  0.86331  0.26435  1.0000
  C   C1622     1.0  0.22993  0.92324  0.15956  1.0000
  C   C1623     1.0  0.20451  0.49228  0.06674  1.0000
  C   C1624     1.0  0.22452  0.82414  0.12527  1.0000
  H   H1925     1.0  0.19659  0.61933  0.05047  1.0000
  C   C1625     1.0  0.20966  0.96548  0.12526  1.0000
  H   H1926     1.0  0.20953  0.87625  0.20866  1.0000
  C   C1626     1.0  0.22281  0.52060  0.09969  1.0000
  C   C1627     1.0  0.20514  0.87135  0.22093  1.0000
  H   H1927     1.0  0.27081  0.63430  0.01785  1.0000
  C   C1628     1.0  0.22246  0.61566  0.00259  1.0000
  C   C1629     1.0  0.38018  0.58137  0.03510  1.0000
  C   C1630     1.0  0.22043  0.92683  0.18624  1.0000
  Fe  Fe243     1.0  0.38298  0.89534  0.24520  1.0000
  H   H1928     1.0  0.25910  0.56705  0.09520  1.0000
  H   H1929     1.0  0.35371  0.95352  0.44039  1.0000
  H   H1930     1.0  0.25031  0.64183  0.01758  1.0000
  C   C1631     1.0  0.29572  0.86593  0.23663  1.0000
  H   H1931     1.0  0.23097  0.73844  0.09474  1.0000
  H   H1932     1.0  0.29398  0.87299  0.22486  1.0000
  H   H1933     1.0  0.35213  0.95139  0.42217  1.0000
  C   C1632     1.0  0.19543  0.55015  0.97884  1.0000
  C   C1633     1.0  0.23611  0.88236  0.16274  1.0000
  C   C1634     1.0  0.24296  0.87495  0.17563  1.0000
  C   C1635     1.0  0.25921  0.87238  0.17384  1.0000
  C   C1636     1.0  0.26858  0.87735  0.15920  1.0000
  C   C1637     1.0  0.26175  0.88475  0.14628  1.0000
  C   C1638     1.0  0.24550  0.88712  0.14805  1.0000
  H   H1934     1.0  0.23574  0.87114  0.18699  1.0000
  H   H1935     1.0  0.26446  0.86657  0.18384  1.0000
  H   H1936     1.0  0.26905  0.88823  0.13487  1.0000
  H   H1937     1.0  0.24031  0.89238  0.13800  1.0000
  C   C1639     1.0  0.21326  0.98135  0.14614  1.0000
  Fe  Fe244     1.0  0.19974  0.90225  0.11278  1.0000
  S   S474      1.0  0.33005  0.61335  0.01704  1.0000
  H   H1938     1.0  0.31744  0.70436  0.05728  1.0000
  C   C1640     1.0  0.20175  0.50850  0.06043  1.0000
  C   C1641     1.0  0.24733  0.62084  0.00348  1.0000
  C   C1642     1.0  0.25704  0.61045  0.02820  1.0000
  C   C1643     1.0  0.26585  0.89379  0.35990  1.0000
  C   C1644     1.0  0.27554  0.87912  0.36406  1.0000
  C   C1645     1.0  0.27275  0.86576  0.36132  1.0000
  C   C1646     1.0  0.26056  0.86702  0.35400  1.0000
  C   C1647     1.0  0.25122  0.88175  0.34935  1.0000
  C   C1648     1.0  0.25374  0.89505  0.35247  1.0000
  H   H1939     1.0  0.28480  0.87798  0.36991  1.0000
  H   H1940     1.0  0.27995  0.85437  0.36506  1.0000
  H   H1941     1.0  0.24176  0.88285  0.34377  1.0000
  H   H1942     1.0  0.24611  0.90635  0.34933  1.0000
  H   H1943     1.0  0.21020  0.57005  0.11615  1.0000
  H   H1944     1.0  0.20500  0.76822  0.99428  1.0000
  H   H1945     1.0  0.30124  0.70886  0.03883  1.0000
  C   C1649     1.0  0.26154  0.66457  0.09419  1.0000
  H   H1946     1.0  0.23758  0.58646  0.99434  1.0000
  C   C1650     1.0  0.29194  0.97030  0.39050  1.0000
  C   C1651     1.0  0.36784  0.59125  0.07807  1.0000
  H   H1947     1.0  0.30776  0.84010  0.33302  1.0000
  H   H1948     1.0  0.29282  0.96920  0.41421  1.0000
  H   H1949     1.0  0.29470  0.95772  0.39193  1.0000
  C   C1652     1.0  0.34456  0.90191  0.33037  1.0000
  C   C1653     1.0  0.33099  0.89656  0.33218  1.0000
  C   C1654     1.0  0.32984  0.88922  0.32099  1.0000
  C   C1655     1.0  0.34221  0.88738  0.30797  1.0000
  H   H1950     1.0  0.25725  0.93289  0.11727  1.0000
  H   H1951     1.0  0.20777  0.87570  0.06794  1.0000
  H   H1952     1.0  0.32124  0.89842  0.34199  1.0000
  H   H1953     1.0  0.31914  0.88559  0.32209  1.0000
  C   C1656     1.0  0.23196  0.93513  0.18394  1.0000
  H   H1954     1.0  0.39002  0.55125  0.02983  1.0000
  H   H1955     1.0  0.22403  0.50952  0.09603  1.0000
  C   C1657     1.0  0.19973  0.87103  0.07831  1.0000
  C   C1658     1.0  0.29854  0.63830  0.98210  1.0000
  H   H1956     1.0  0.30338  0.74288  0.08689  1.0000
  C   C1659     1.0  0.24882  0.56199  0.09861  1.0000
  H   H1957     1.0  0.20100  0.59276  0.08611  1.0000
  H   H1958     1.0  0.20723  0.60448  0.10465  1.0000
  C   C1660     1.0  0.24904  0.93004  0.12876  1.0000
  C   C1661     1.0  0.30113  0.67624  0.07923  1.0000
  C   C1662     1.0  0.30826  0.66817  0.09185  1.0000
  C   C1663     1.0  0.30569  0.67507  0.10470  1.0000
  C   C1664     1.0  0.29582  0.68995  0.10513  1.0000
  C   C1665     1.0  0.28821  0.69764  0.09277  1.0000
  C   C1666     1.0  0.29093  0.69087  0.07988  1.0000
  H   H1959     1.0  0.31618  0.65688  0.09148  1.0000
  H   H1960     1.0  0.31164  0.66899  0.11419  1.0000
  H   H1961     1.0  0.28051  0.70897  0.09287  1.0000
  H   H1962     1.0  0.28522  0.69709  0.07026  1.0000
  C   C1667     1.0  0.26457  0.60060  0.07168  1.0000
  C   C1668     1.0  0.27616  0.59004  0.06379  1.0000
  C   C1669     1.0  0.27196  0.57937  0.05802  1.0000
  C   C1670     1.0  0.25614  0.57936  0.05988  1.0000
  C   C1671     1.0  0.24444  0.59016  0.06744  1.0000
  C   C1672     1.0  0.24868  0.60067  0.07349  1.0000
  H   H1963     1.0  0.28840  0.58984  0.06242  1.0000
  H   H1964     1.0  0.28104  0.57106  0.05216  1.0000
  H   H1965     1.0  0.23221  0.59008  0.06903  1.0000
  H   H1966     1.0  0.23965  0.60876  0.07968  1.0000
  H   H1967     1.0  0.32636  0.95102  0.45215  1.0000
  C   C1673     1.0  0.32812  0.70953  0.07797  1.0000
  H   H1968     1.0  0.21060  0.91424  0.17597  1.0000
  C   C1674     1.0  0.34867  0.91756  0.43418  1.0000
  C   C1675     1.0  0.33507  0.91487  0.44543  1.0000
  C   C1676     1.0  0.32210  0.91324  0.44080  1.0000
  C   C1677     1.0  0.32257  0.91442  0.42492  1.0000
  C   C1678     1.0  0.33609  0.91735  0.41372  1.0000
  C   C1679     1.0  0.34906  0.91887  0.41833  1.0000
  H   H1969     1.0  0.31172  0.91091  0.44957  1.0000
  H   H1970     1.0  0.33675  0.91805  0.40151  1.0000
  H   H1971     1.0  0.33466  0.91377  0.45768  1.0000
  H   H1972     1.0  0.27687  0.89402  0.25739  1.0000
  H   H1973     1.0  0.21167  0.82989  0.08538  1.0000
  H   H1974     1.0  0.20885  0.94585  0.14479  1.0000
  H   H1975     1.0  0.21230  0.92490  0.19748  1.0000
  S   S475      1.0  0.37100  0.90672  0.26566  1.0000
  H   H1976     1.0  0.32452  0.74880  0.06487  1.0000
  C   C1680     1.0  0.31318  0.96299  0.31199  1.0000
  H   H1977     1.0  0.27861  0.61728  0.99111  1.0000
  C   C1681     1.0  0.31763  0.62283  0.00386  1.0000
  H   H1978     1.0  0.19637  0.78770  0.98521  1.0000
  C   C1682     1.0  0.28456  0.88883  0.24742  1.0000
  C   C1683     1.0  0.19416  0.85936  0.27905  1.0000
  N   N108      1.0  0.27707  0.77641  0.22026  1.0000
  C   C1684     1.0  0.29007  0.77107  0.20749  1.0000
  C   C1685     1.0  0.26829  0.76374  0.22755  1.0000
  C   C1686     1.0  0.26650  0.79045  0.21293  1.0000
  C   C1687     1.0  0.28247  0.78020  0.23245  1.0000
  C   C1688     1.0  0.27140  0.78570  0.24529  1.0000
  H   H1979     1.0  0.29684  0.78029  0.20098  1.0000
  H   H1980     1.0  0.29829  0.76023  0.21204  1.0000
  H   H1981     1.0  0.28563  0.76818  0.19860  1.0000
  H   H1982     1.0  0.27565  0.75316  0.23373  1.0000
  H   H1983     1.0  0.26452  0.76014  0.21864  1.0000
  H   H1984     1.0  0.25744  0.76735  0.23624  1.0000
  H   H1985     1.0  0.27260  0.80033  0.20752  1.0000
  H   H1986     1.0  0.26226  0.78805  0.20365  1.0000
  H   H1987     1.0  0.25586  0.79478  0.22146  1.0000
  H   H1988     1.0  0.25893  0.78741  0.24635  1.0000
  S   S476      1.0  0.37504  0.97235  0.46709  1.0000
  H   H1989     1.0  0.25251  0.56599  0.01196  1.0000
  H   H1990     1.0  0.22203  0.82900  0.14782  1.0000
  H   H1991     1.0  0.31769  0.93104  0.28046  1.0000
  H   H1992     1.0  0.27186  0.66481  0.08465  1.0000
  C   C1689     1.0  0.32939  0.97630  0.41662  1.0000
  C   C1690     1.0  0.30881  0.73016  0.08842  1.0000
  C   C1691     1.0  0.34928  0.95690  0.32311  1.0000
  C   C1692     1.0  0.33013  0.98087  0.44145  1.0000
  C   C1693     1.0  0.38076  0.60920  0.02978  1.0000
  H   H1993     1.0  0.21136  0.54532  0.11038  1.0000
  H   H1994     1.0  0.33821  0.73362  0.05596  1.0000
  H   H1995     1.0  0.21272  0.69418  0.10102  1.0000
  C   C1694     1.0  0.31807  0.61600  0.99166  1.0000
  C   C1695     1.0  0.26407  0.56654  0.00463  1.0000
  H   H1996     1.0  0.30044  0.56502  0.00922  1.0000
  C   C1696     1.0  0.32798  0.96958  0.28540  1.0000
  C   C1697     1.0  0.30761  0.63736  0.00518  1.0000
  C   C1698     1.0  0.30953  0.72802  0.06220  1.0000
  H   H1997     1.0  0.36775  0.90319  0.31649  1.0000
  H   H1998     1.0  0.30587  0.56996  0.98029  1.0000
  Fe  Fe245     1.0  0.35234  0.89879  0.23550  1.0000
  S   S477      1.0  0.36628  0.87932  0.25071  1.0000
  H   H1999     1.0  0.23606  0.55858  0.98155  1.0000
  H   H2000     1.0  0.21900  0.76579  0.06051  1.0000
  H   H2001     1.0  0.21772  0.80146  0.09155  1.0000
  N   N109      1.0  0.25386  0.57076  0.98036  1.0000
  H   H2002     1.0  0.20073  0.76113  0.06265  1.0000
  C   C1699     1.0  0.19262  0.83504  0.27492  1.0000
  H   H2003     1.0  0.28479  0.60934  0.00916  1.0000
  C   C1700     1.0  0.29073  0.73286  0.04027  1.0000
  H   H2004     1.0  0.37390  0.88483  0.21354  1.0000
  C   C1701     1.0  0.35601  0.89206  0.30661  1.0000
  H   H2005     1.0  0.23387  0.58112  0.10881  1.0000
  H   H2006     1.0  0.36584  0.89003  0.29696  1.0000
  C   C1702     1.0  0.31581  0.93174  0.30948  1.0000
  C   C1703     1.0  0.29001  0.74499  0.04718  1.0000
  H   H2007     1.0  0.35810  0.96829  0.42284  1.0000
  H   H2008     1.0  0.35999  0.60108  0.03333  1.0000
  S   S478      1.0  0.35026  0.95026  0.24684  1.0000
  S   S479      1.0  0.20579  0.58152  0.00455  1.0000
  H   H2009     1.0  0.28346  0.73465  0.03202  1.0000
  H   H2010     1.0  0.38321  0.94747  0.32109  1.0000
  H   H2011     1.0  0.26487  0.64206  0.99965  1.0000
  H   H2012     1.0  0.32276  0.94936  0.27095  1.0000
  H   H2013     1.0  0.27379  0.56294  0.02478  1.0000
  H   H2014     1.0  0.19189  0.82373  0.00643  1.0000
  H   H2015     1.0  0.23841  0.55881  0.00004  1.0000
  C   C1704     1.0  0.28375  0.84869  0.13521  1.0000
  C   C1705     1.0  0.25812  0.84943  0.11151  1.0000
  C   C1706     1.0  0.24308  0.85741  0.10916  1.0000
  H   H2016     1.0  0.29598  0.84357  0.13693  1.0000
  H   H2017     1.0  0.27664  0.85080  0.14678  1.0000
  H   H2018     1.0  0.26663  0.84622  0.10137  1.0000
  H   H2019     1.0  0.24047  0.86022  0.09761  1.0000
  N   N110      1.0  0.23548  0.63603  0.11812  1.0000
  C   C1707     1.0  0.22224  0.63667  0.13206  1.0000
  C   C1708     1.0  0.22971  0.63338  0.10553  1.0000
  C   C1709     1.0  0.24805  0.62236  0.12256  1.0000
  C   C1710     1.0  0.24183  0.65042  0.11233  1.0000
  C   C1711     1.0  0.23534  0.66381  0.11908  1.0000
  C   C1712     1.0  0.25503  0.65131  0.09957  1.0000
  C   C1713     1.0  0.24192  0.67702  0.11357  1.0000
  H   H2020     1.0  0.29560  0.79133  0.26484  1.0000
  C   C1714     1.0  0.25501  0.67737  0.10122  1.0000
  H   H2021     1.0  0.22576  0.63846  0.14212  1.0000
  H   H2022     1.0  0.21200  0.64620  0.12938  1.0000
  H   H2023     1.0  0.21773  0.62569  0.13616  1.0000
  H   H2024     1.0  0.22020  0.64340  0.10191  1.0000
  H   H2025     1.0  0.22474  0.62269  0.10950  1.0000
  H   H2026     1.0  0.23920  0.63176  0.09496  1.0000
  H   H2027     1.0  0.25764  0.61979  0.11232  1.0000
  H   H2028     1.0  0.25344  0.62438  0.13123  1.0000
  H   H2029     1.0  0.24349  0.61147  0.12782  1.0000
  H   H2030     1.0  0.22531  0.66432  0.12879  1.0000
  H   H2031     1.0  0.26058  0.64165  0.09376  1.0000
  H   H2032     1.0  0.23697  0.68696  0.11911  1.0000
  C   C1715     1.0  0.23719  0.62983  0.97934  1.0000
  Fe  Fe246     1.0  0.20187  0.93180  0.12089  1.0000
  C   C1716     1.0  0.24161  0.93198  0.15667  1.0000
  N   N111      1.0  0.30092  0.85256  0.31116  1.0000
  C   C1717     1.0  0.25388  0.95132  0.13594  1.0000
  N   N112      1.0  0.37107  0.56914  0.03856  1.0000
  C   C1718     1.0  0.30242  0.85208  0.32712  1.0000
  N   N113      1.0  0.33336  0.96883  0.43216  1.0000
  N   N114      1.0  0.23780  0.52602  0.09473  1.0000
  H   H2033     1.0  0.32021  0.70114  0.08287  1.0000
  C   C1719     1.0  0.30080  0.71841  0.04403  1.0000
  H   H2034     1.0  0.34605  0.93391  0.30181  1.0000
  C   C1720     1.0  0.29606  0.89316  0.28368  1.0000
  H   H2035     1.0  0.32111  0.92985  0.31970  1.0000
  H   H2036     1.0  0.32127  0.83363  0.30813  1.0000
  C   C1721     1.0  0.19848  0.55462  0.00297  1.0000
  C   C1722     1.0  0.32151  0.95818  0.29778  1.0000
  H   H2037     1.0  0.28216  0.75627  0.04428  1.0000
  C   C1723     1.0  0.22216  0.54940  0.10690  1.0000
  C   C1724     1.0  0.37252  0.59746  0.03263  1.0000
  H   H2038     1.0  0.34951  0.94454  0.32505  1.0000
  H   H2039     1.0  0.35170  0.56128  0.05626  1.0000
  H   H2040     1.0  0.21867  0.74772  0.05632  1.0000
  C   C1725     1.0  0.20794  0.64275  0.06609  1.0000
  H   H2041     1.0  0.32110  0.97318  0.36181  1.0000
  C   C1726     1.0  0.33719  0.87848  0.21720  1.0000
  H   H2042     1.0  0.31082  0.96246  0.44231  1.0000
  C   C1727     1.0  0.30851  0.62370  0.98079  1.0000
  C   C1728     1.0  0.24625  0.80304  0.11829  1.0000
  N   N115      1.0  0.25301  0.93454  0.14147  1.0000
  C   C1729     1.0  0.25039  0.80074  0.13258  1.0000
  H   H2043     1.0  0.36166  0.83997  0.18257  1.0000
  H   H2044     1.0  0.20998  0.76814  0.09009  1.0000
  C   C1730     1.0  0.19523  0.77850  0.99624  1.0000
  H   H2045     1.0  0.25314  0.79516  0.11071  1.0000
  C   C1731     1.0  0.31141  0.97828  0.31356  1.0000
  C   C1732     1.0  0.20674  0.70574  0.09581  1.0000
  C   C1733     1.0  0.22990  0.74362  0.08239  1.0000
  S   S480      1.0  0.36548  0.91952  0.43910  1.0000
  C   C1734     1.0  0.22131  0.56370  0.11037  1.0000
  H   H2046     1.0  0.23277  0.93968  0.19344  1.0000
  C   C1735     1.0  0.31668  0.94293  0.28225  1.0000
  H   H2047     1.0  0.19772  0.66713  0.06558  1.0000
  S   S481      1.0  0.19167  0.92389  0.14618  1.0000
  H   H2048     1.0  0.26014  0.79131  0.13562  1.0000
  S   S482      1.0  0.20365  0.81565  0.33970  1.0000
  H   H2049     1.0  0.36120  0.95891  0.29881  1.0000
  H   H2050     1.0  0.35023  0.86449  0.23466  1.0000
  C   C1736     1.0  0.21174  0.96574  0.15122  1.0000
  H   H2051     1.0  0.30783  0.86597  0.23709  1.0000
  H   H2052     1.0  0.21349  0.52926  0.09414  1.0000
  C   C1737     1.0  0.24949  0.51365  0.10246  1.0000
  C   C1738     1.0  0.19732  0.70280  0.13827  1.0000
  H   H2053     1.0  0.32363  0.88907  0.19940  1.0000
  C   C1739     1.0  0.21405  0.71842  0.09163  1.0000
  H   H2054     1.0  0.31664  0.98137  0.41755  1.0000
  H   H2055     1.0  0.23189  0.60819  0.02293  1.0000
  H   H2056     1.0  0.29910  0.72380  0.09282  1.0000
  S   S483      1.0  0.20824  0.95551  0.11181  1.0000
  H   H2057     1.0  0.23105  0.79045  0.10403  1.0000
  C   C1740     1.0  0.29931  0.74267  0.05790  1.0000
  H   H2058     1.0  0.30405  0.94892  0.28420  1.0000
  H   H2059     1.0  0.23702  0.93635  0.12702  1.0000
  H   H2060     1.0  0.23737  0.73527  0.07497  1.0000
  H   H2061     1.0  0.25055  0.80570  0.08663  1.0000
  C   C1741     1.0  0.35894  0.57018  0.05323  1.0000
  H   H2062     1.0  0.25914  0.84261  0.40330  1.0000
  C   C1742     1.0  0.37405  0.95000  0.26045  1.0000
  H   H2063     1.0  0.25318  0.54630  0.98840  1.0000
  C   C1743     1.0  0.24312  0.52752  0.07751  1.0000
  H   H2064     1.0  0.37769  0.92156  0.32407  1.0000
  C   C1744     1.0  0.27499  0.61088  0.00334  1.0000
  H   H2065     1.0  0.33467  0.70809  0.08716  1.0000
  H   H2066     1.0  0.36447  0.61600  0.06823  1.0000
  Fe  Fe247     1.0  0.35701  0.92410  0.24904  1.0000
  C   C1745     1.0  0.19766  0.65688  0.06176  1.0000
  H   H2067     1.0  0.35451  0.58292  0.02412  1.0000
  C   C1746     1.0  0.35004  0.96025  0.42928  1.0000
  C   C1747     1.0  0.33049  0.73620  0.06722  1.0000
  H   H2068     1.0  0.25494  0.53031  0.07286  1.0000
  C   C1748     1.0  0.31014  0.71596  0.05476  1.0000
  C   C1749     1.0  0.21290  0.75586  0.06440  1.0000
  H   H2069     1.0  0.21566  0.62371  0.98033  1.0000
  H   H2070     1.0  0.33694  0.70579  0.06771  1.0000
  C   C1750     1.0  0.38868  0.84291  0.20050  1.0000
  H   H2071     1.0  0.29534  0.82970  0.31715  1.0000
  H   H2072     1.0  0.24627  0.51260  0.11539  1.0000
  H   H2073     1.0  0.23497  0.53703  0.07119  1.0000
  C   C1751     1.0  0.28833  0.86319  0.26442  1.0000
  H   H2074     1.0  0.26076  0.89755  0.30934  1.0000
  N   N116      1.0  0.26148  0.88969  0.41287  1.0000
  C   C1752     1.0  0.25966  0.88370  0.43006  1.0000
  C   C1753     1.0  0.27842  0.88816  0.40555  1.0000
  C   C1754     1.0  0.25402  0.90667  0.41016  1.0000
  C   C1755     1.0  0.25474  0.88051  0.40629  1.0000
  C   C1756     1.0  0.24302  0.88750  0.39730  1.0000
  C   C1757     1.0  0.26031  0.86402  0.40836  1.0000
  C   C1758     1.0  0.23726  0.87848  0.39092  1.0000
  C   C1759     1.0  0.25449  0.85513  0.40189  1.0000
  C   C1760     1.0  0.24299  0.86235  0.39318  1.0000
  H   H2075     1.0  0.26416  0.89076  0.43539  1.0000
  H   H2076     1.0  0.24710  0.88400  0.43592  1.0000
  H   H2077     1.0  0.26634  0.87146  0.43315  1.0000
  H   H2078     1.0  0.28526  0.87594  0.40825  1.0000
  H   H2079     1.0  0.28389  0.89546  0.40961  1.0000
  H   H2080     1.0  0.28018  0.89190  0.39257  1.0000
  H   H2081     1.0  0.25577  0.91221  0.39742  1.0000
  H   H2082     1.0  0.24121  0.90873  0.41543  1.0000
  H   H2083     1.0  0.25925  0.91321  0.41537  1.0000
  H   H2084     1.0  0.23849  0.89999  0.39450  1.0000
  H   H2085     1.0  0.26946  0.85792  0.41472  1.0000
  H   H2086     1.0  0.22871  0.88410  0.38367  1.0000
  H   H2087     1.0  0.19364  0.72678  0.12536  1.0000
  H   H2088     1.0  0.36857  0.88091  0.19112  1.0000
  H   H2089     1.0  0.28078  0.89618  0.23652  1.0000
  C   C1761     1.0  0.24165  0.81002  0.14321  1.0000
  S   S484      1.0  0.20712  0.89014  0.09245  1.0000
  N   N117      1.0  0.28376  0.87232  0.24949  1.0000
  C   C1762     1.0  0.26752  0.87169  0.24980  1.0000
  C   C1763     1.0  0.26363  0.86739  0.23770  1.0000
  C   C1764     1.0  0.25488  0.87618  0.26212  1.0000
  C   C1765     1.0  0.24812  0.86742  0.23806  1.0000
  C   C1766     1.0  0.23943  0.87607  0.26241  1.0000
  C   C1767     1.0  0.23605  0.87171  0.25041  1.0000
  C   C1768     1.0  0.19608  0.60897  0.10118  1.0000
  H   H2090     1.0  0.25629  0.59823  0.02904  1.0000
  H   H2091     1.0  0.22000  0.84850  0.22020  1.0000
  H   H2092     1.0  0.25036  0.50200  0.10018  1.0000
  H   H2093     1.0  0.20723  0.85662  0.27610  1.0000
  H   H2094     1.0  0.37191  0.57111  0.01428  1.0000
  H   H2095     1.0  0.20138  0.81412  0.98175  1.0000
  S   S485      1.0  0.19269  0.83439  0.04665  1.0000
  C   C1769     1.0  0.24974  0.54786  0.09481  1.0000
  H   H2096     1.0  0.27235  0.86371  0.22790  1.0000
  H   H2097     1.0  0.25676  0.87986  0.27164  1.0000
  H   H2098     1.0  0.24553  0.86373  0.22885  1.0000
  H   H2099     1.0  0.23002  0.87941  0.27203  1.0000
  H   H2100     1.0  0.22408  0.87161  0.25068  1.0000
  H   H2101     1.0  0.21978  0.86850  0.11957  1.0000
  C   C1770     1.0  0.24102  0.81642  0.08601  1.0000
  C   C1771     1.0  0.21947  0.92087  0.17410  1.0000
  C   C1772     1.0  0.35717  0.89934  0.31777  1.0000
  Fe  Fe248     1.0  0.35312  0.89232  0.26973  1.0000
  C   C1773     1.0  0.20986  0.95787  0.14083  1.0000
  C   C1774     1.0  0.23135  0.86216  0.12153  1.0000
  H   H2102     1.0  0.28365  0.86033  0.12702  1.0000
  N   N118      1.0  0.25989  0.61928  0.01165  1.0000
  H   H2103     1.0  0.28070  0.86769  0.27480  1.0000
  C   C1775     1.0  0.23382  0.61441  0.01086  1.0000
  N   N119      1.0  0.22780  0.81553  0.09995  1.0000
  H   H2104     1.0  0.34681  0.83922  0.23209  1.0000
  H   H2105     1.0  0.30980  0.86017  0.32675  1.0000
  C   C1776     1.0  0.36835  0.84533  0.18697  1.0000
  H   H2106     1.0  0.27414  0.59912  0.00274  1.0000
  C   C1777     1.0  0.29814  0.64511  0.99428  1.0000
  C   C1778     1.0  0.27615  0.78948  0.25689  1.0000
  H   H2107     1.0  0.26746  0.79403  0.26638  1.0000
  C   C1779     1.0  0.26185  0.84612  0.12648  1.0000
  H   H2108     1.0  0.29101  0.84504  0.10580  1.0000
  H   H2109     1.0  0.26193  0.95358  0.12424  1.0000
  H   H2110     1.0  0.31526  0.72717  0.09800  1.0000
  H   H2111     1.0  0.25841  0.63406  0.98110  1.0000
  H   H2112     1.0  0.30289  0.89974  0.27353  1.0000
  C   C1780     1.0  0.29861  0.77858  0.23207  1.0000
  H   H2113     1.0  0.30792  0.77466  0.22273  1.0000
  N   N120      1.0  0.27778  0.83831  0.12933  1.0000
  C   C1781     1.0  0.38908  0.60516  0.06711  1.0000
  C   C1782     1.0  0.29426  0.86887  0.30376  1.0000
  H   H2114     1.0  0.33755  0.95767  0.34651  1.0000
  H   H2115     1.0  0.38325  0.82351  0.19530  1.0000
  H   H2116     1.0  0.33445  0.96677  0.27428  1.0000
  C   C1783     1.0  0.35539  0.98082  0.30588  1.0000
  H   H2117     1.0  0.19824  0.55068  0.01538  1.0000
  H   H2118     1.0  0.23717  0.81772  0.07501  1.0000
  H   H2119     1.0  0.29838  0.75247  0.06287  1.0000
  H   H2120     1.0  0.29673  0.88993  0.24647  1.0000
  H   H2121     1.0  0.21850  0.51835  0.11263  1.0000
  H   H2122     1.0  0.20217  0.75237  0.10380  1.0000
  C   C1784     1.0  0.28945  0.83435  0.11514  1.0000
  H   H2123     1.0  0.26923  0.82541  0.15267  1.0000
  H   H2124     1.0  0.30126  0.82848  0.11777  1.0000
  C   C1785     1.0  0.20174  0.56925  0.99495  1.0000
  C   C1786     1.0  0.32855  0.87822  0.20669  1.0000
  C   C1787     1.0  0.37296  0.60517  0.07072  1.0000
  H   H2125     1.0  0.21184  0.80032  0.11231  1.0000
  H   H2126     1.0  0.37291  0.61398  0.99040  1.0000
  H   H2127     1.0  0.21428  0.83327  0.12329  1.0000
  C   C1788     1.0  0.29033  0.84221  0.31244  1.0000
  C   C1789     1.0  0.28229  0.57026  0.97948  1.0000
  S   S486      1.0  0.37011  0.91380  0.22821  1.0000
  C   C1790     1.0  0.27717  0.82352  0.14131  1.0000
  C   C1791     1.0  0.24952  0.85101  0.13885  1.0000
  C   C1792     1.0  0.23454  0.85888  0.13635  1.0000
  S   S487      1.0  0.33994  0.88051  0.29276  1.0000
  H   H2128     1.0  0.27593  0.91234  0.28560  1.0000
  C   C1793     1.0  0.30266  0.87768  0.29014  1.0000
  H   H2129     1.0  0.29561  0.85354  0.23732  1.0000
  H   H2130     1.0  0.34235  0.92253  0.29048  1.0000
  H   H2131     1.0  0.28897  0.81759  0.14392  1.0000
  C   C1794     1.0  0.24291  0.58595  0.98188  1.0000
  H   H2132     1.0  0.26849  0.91243  0.14829  1.0000
  H   H2133     1.0  0.32587  0.60479  0.99052  1.0000
  H   H2134     1.0  0.34039  0.97041  0.36524  1.0000
  C   C1795     1.0  0.35932  0.97535  0.24957  1.0000
  H   H2135     1.0  0.28602  0.82605  0.11040  1.0000
  H   H2136     1.0  0.31728  0.91992  0.30730  1.0000
  H   H2137     1.0  0.27315  0.81512  0.13730  1.0000
  C   C1796     1.0  0.19684  0.87647  0.09207  1.0000
  C   C1797     1.0  0.19800  0.51419  0.04569  1.0000
  C   C1798     1.0  0.27245  0.89199  0.30386  1.0000
  H   H2138     1.0  0.27768  0.92601  0.13238  1.0000
  C   C1799     1.0  0.32361  0.95712  0.44047  1.0000
  N   N121      1.0  0.32350  0.94216  0.29557  1.0000
  C   C1800     1.0  0.20758  0.62949  0.06155  1.0000
  H   H2139     1.0  0.33811  0.73472  0.07548  1.0000
  C   C1801     1.0  0.24854  0.62877  0.98751  1.0000
  H   H2140     1.0  0.25144  0.84907  0.15053  1.0000
  H   H2141     1.0  0.22538  0.86269  0.14593  1.0000
  H   H2142     1.0  0.24467  0.80788  0.15446  1.0000
  C   C1802     1.0  0.28097  0.90029  0.29050  1.0000
  H   H2143     1.0  0.31643  0.84586  0.29026  1.0000
  H   H2144     1.0  0.27304  0.92874  0.15205  1.0000
  H   H2145     1.0  0.25135  0.94384  0.16838  1.0000
  H   H2146     1.0  0.21014  0.83712  0.24741  1.0000
  C   C1803     1.0  0.23644  0.54109  0.09882  1.0000
  H   H2147     1.0  0.22848  0.91821  0.15076  1.0000
  C   C1804     1.0  0.34242  0.96467  0.33547  1.0000
  C   C1805     1.0  0.34044  0.93466  0.29211  1.0000
  C   C1806     1.0  0.34163  0.85012  0.22505  1.0000
  C   C1807     1.0  0.21086  0.98120  0.12025  1.0000
  C   C1808     1.0  0.30322  0.78256  0.24366  1.0000
  C   C1809     1.0  0.26874  0.92506  0.14360  1.0000
  C   C1810     1.0  0.20622  0.73380  0.08522  1.0000
  H   H2148     1.0  0.29083  0.85554  0.33488  1.0000
  H   H2149     1.0  0.26019  0.68754  0.09722  1.0000
  S   S488      1.0  0.33100  0.83179  0.21268  1.0000
  H   H2150     1.0  0.30789  0.95522  0.32212  1.0000
  H   H2151     1.0  0.27202  0.87072  0.32096  1.0000
  C   C1811     1.0  0.34360  0.86440  0.22651  1.0000
  S   S489      1.0  0.33802  0.91076  0.25492  1.0000
  H   H2152     1.0  0.30294  0.93647  0.31279  1.0000
  H   H2153     1.0  0.37648  0.93738  0.26267  1.0000
  H   H2154     1.0  0.37513  0.56651  0.08734  1.0000
  C   C1812     1.0  0.33308  0.84986  0.21444  1.0000
  H   H2155     1.0  0.32552  0.85265  0.30181  1.0000
  C   C1813     1.0  0.29202  0.78800  0.25602  1.0000
  H   H2156     1.0  0.31556  0.78165  0.24291  1.0000
  H   H2157     1.0  0.22563  0.71591  0.09396  1.0000
  C   C1814     1.0  0.27899  0.87657  0.31044  1.0000
  H   H2158     1.0  0.28794  0.84304  0.30084  1.0000
  C   C1815     1.0  0.24248  0.93757  0.16944  1.0000
  H   H2159     1.0  0.35646  0.56234  0.02765  1.0000
  H   H2160     1.0  0.30493  0.98163  0.32453  1.0000
  C   C1816     1.0  0.20405  0.75859  0.09128  1.0000
  C   C1817     1.0  0.24512  0.55804  0.98793  1.0000
  C   C1818     1.0  0.19525  0.54512  0.99493  1.0000
  S   S490      1.0  0.35161  0.94055  0.47428  1.0000
  H   H2161     1.0  0.26148  0.51606  0.09821  1.0000
  S   S491      1.0  0.19294  0.80121  0.07358  1.0000
  C   C1819     1.0  0.38248  0.95737  0.26597  1.0000
  H   H2162     1.0  0.37370  0.54405  0.04318  1.0000
  C   C1820     1.0  0.28934  0.98006  0.37616  1.0000
  Fe  Fe249     1.0  0.37333  0.94723  0.47471  1.0000
  C   C1821     1.0  0.37900  0.57730  0.08144  1.0000
  H   H2163     1.0  0.33245  0.96770  0.40902  1.0000
  H   H2164     1.0  0.21833  0.84049  0.09527  1.0000
  H   H2165     1.0  0.21157  0.50427  0.99109  1.0000
  C   C1822     1.0  0.26685  0.56889  0.98807  1.0000
  H   H2166     1.0  0.35505  0.86860  0.18011  1.0000
  C   C1823     1.0  0.36460  0.86147  0.18566  1.0000
  C   C1824     1.0  0.36316  0.57153  0.02557  1.0000
  H   H2167     1.0  0.19468  0.85537  0.06726  1.0000
  C   C1825     1.0  0.38085  0.55296  0.04063  1.0000
  C   C1826     1.0  0.29085  0.97680  0.40313  1.0000
  C   C1827     1.0  0.33010  0.97935  0.36170  1.0000
  H   H2168     1.0  0.35064  0.58179  0.05259  1.0000
  C   C1828     1.0  0.37934  0.97375  0.26325  1.0000
  H   H2169     1.0  0.35363  0.97644  0.44625  1.0000
  C   C1829     1.0  0.37143  0.60294  0.98856  1.0000
  S   S492      1.0  0.38950  0.92988  0.46122  1.0000
  H   H2170     1.0  0.38022  0.59336  0.99409  1.0000
  C   C1830     1.0  0.19678  0.63022  0.05286  1.0000
  C   C1831     1.0  0.21622  0.49629  0.98315  1.0000
  H   H2171     1.0  0.19355  0.50830  0.02617  1.0000
  C   C1832     1.0  0.19676  0.50376  0.03744  1.0000
  C   C1833     1.0  0.38475  0.85926  0.19992  1.0000
  H   H2172     1.0  0.19576  0.52665  0.04075  1.0000
  C   C1834     1.0  0.38044  0.83608  0.19428  1.0000
  C   C1835     1.0  0.19228  0.85957  0.07787  1.0000
  H   H2173     1.0  0.38059  0.85696  0.23023  1.0000
  C   C1836     1.0  0.20517  0.84930  0.24320  1.0000
  C   C1837     1.0  0.38644  0.88293  0.20724  1.0000
  H   H2174     1.0  0.38728  0.89032  0.19517  1.0000
  C   C1838     1.0  0.19256  0.60229  0.09070  1.0000
  H   H2175     1.0  0.38668  0.55017  0.05067  1.0000
  C   C1839     1.0  0.38814  0.92476  0.31591  1.0000
  H   H2176     1.0  0.19217  0.76423  0.08884  1.0000
  C   C1840     1.0  0.19376  0.88072  0.23025  1.0000
  H   H2177     1.0  0.35028  0.98237  0.24334  1.0000
  C   C1841     1.0  0.19351  0.85853  0.25304  1.0000
  C   C1842     1.0  0.36787  0.98270  0.25488  1.0000
  H   H2178     1.0  0.20737  0.48780  0.07817  1.0000
  Fe  Fe250     1.0  0.19143  0.58117  0.06191  1.0000
  C   C1843     1.0  0.19155  0.70800  0.09381  1.0000
  C   C1844     1.0  0.19068  0.73563  0.08370  1.0000
  H   H2179     1.0  0.32276  0.97238  0.48373  1.0000
  H   H2180     1.0  0.29102  0.73341  0.79606  1.0000
  H   H2181     1.0  0.28551  0.57255  0.96682  1.0000
  H   H2182     1.0  0.26818  0.55976  0.96141  1.0000
  Fe  Fe251     1.0  0.35502  0.92363  0.49699  1.0000
  S   S493      1.0  0.33263  0.92440  0.51583  1.0000
  H   H2183     1.0  0.22311  0.64888  0.87145  1.0000
  Fe  Fe252     1.0  0.31347  0.91836  0.60573  1.0000
  S   S494      1.0  0.29107  0.93584  0.60203  1.0000
  S   S495      1.0  0.33400  0.90819  0.58803  1.0000
  Fe  Fe253     1.0  0.30784  0.92014  0.63993  1.0000
  H   H2184     1.0  0.27195  0.74156  0.83508  1.0000
  S   S496      1.0  0.31536  0.91100  0.66311  1.0000
  Fe  Fe254     1.0  0.28018  0.92272  0.62585  1.0000
  S   S497      1.0  0.25491  0.92004  0.63535  1.0000
  C   C1845     1.0  0.35063  0.62777  0.94068  1.0000
  S   S498      1.0  0.30212  0.90412  0.62851  1.0000
  H   H2185     1.0  0.23981  0.59991  0.87171  1.0000
  C   C1846     1.0  0.28912  0.73773  0.80687  1.0000
  S   S499      1.0  0.36147  0.94596  0.73755  1.0000
  H   H2186     1.0  0.19557  0.83239  0.64580  1.0000
  Fe  Fe255     1.0  0.36814  0.93639  0.69690  1.0000
  S   S500      1.0  0.34615  0.95172  0.70729  1.0000
  S   S501      1.0  0.37069  0.93486  0.67204  1.0000
  H   H2187     1.0  0.26013  0.76038  0.82863  1.0000
  Fe  Fe256     1.0  0.34736  0.93377  0.72970  1.0000
  S   S502      1.0  0.32325  0.92965  0.74374  1.0000
  C   C1847     1.0  0.19703  0.88095  0.83754  1.0000
  S   S503      1.0  0.36865  0.91743  0.71881  1.0000
  H   H2188     1.0  0.23865  0.63554  0.96699  1.0000
  Fe  Fe257     1.0  0.26868  0.61863  0.93969  1.0000
  S   S504      1.0  0.27197  0.64335  0.93341  1.0000
  S   S505      1.0  0.24500  0.61262  0.94533  1.0000
  Fe  Fe258     1.0  0.28716  0.63472  0.95117  1.0000
  H   H2189     1.0  0.33124  0.64688  0.96998  1.0000
  Fe  Fe259     1.0  0.29385  0.63421  0.91684  1.0000
  S   S506      1.0  0.30329  0.64572  0.89187  1.0000
  S   S507      1.0  0.28178  0.61091  0.95905  1.0000
  S   S508      1.0  0.28957  0.60989  0.92191  1.0000
  Fe  Fe260     1.0  0.20406  0.53136  0.91428  1.0000
  H   H2190     1.0  0.19368  0.61540  0.83075  1.0000
  S   S509      1.0  0.21403  0.50689  0.90950  1.0000
  Fe  Fe261     1.0  0.21567  0.56044  0.91288  1.0000
  H   H2191     1.0  0.30611  0.96550  0.71324  1.0000
  S   S510      1.0  0.23470  0.57423  0.90209  1.0000
  H   H2192     1.0  0.33806  0.96467  0.67774  1.0000
  H   H2193     1.0  0.34398  0.95234  0.50686  1.0000
  C   C1848     1.0  0.35089  0.62713  0.97149  1.0000
  H   H2194     1.0  0.35152  0.61676  0.89024  1.0000
  S   S511      1.0  0.21804  0.53647  0.92846  1.0000
  S   S512      1.0  0.20398  0.55469  0.89709  1.0000
  H   H2195     1.0  0.20314  0.85236  0.62146  1.0000
  H   H2196     1.0  0.33625  0.63095  0.88171  1.0000
  C   C1849     1.0  0.33566  0.56800  0.91107  1.0000
  C   C1850     1.0  0.22589  0.49202  0.95669  1.0000
  C   C1851     1.0  0.30764  0.97672  0.71376  1.0000
  C   C1852     1.0  0.19916  0.86494  0.84559  1.0000
  H   H2197     1.0  0.36428  0.96560  0.53125  1.0000
  H   H2198     1.0  0.20277  0.86323  0.96115  1.0000
  H   H2199     1.0  0.32266  0.97131  0.53102  1.0000
  C   C1853     1.0  0.19899  0.56466  0.97081  1.0000
  S   S513      1.0  0.37531  0.93215  0.49843  1.0000
  H   H2200     1.0  0.31918  0.97366  0.57593  1.0000
  C   C1854     1.0  0.19964  0.70069  0.83632  1.0000
  H   H2201     1.0  0.23301  0.58815  0.97600  1.0000
  C   C1855     1.0  0.35001  0.56737  0.94813  1.0000
  H   H2202     1.0  0.29891  0.74346  0.80548  1.0000
  C   C1856     1.0  0.23226  0.61111  0.86782  1.0000
  C   C1857     1.0  0.36274  0.56971  0.90076  1.0000
  C   C1858     1.0  0.19729  0.69447  0.82481  1.0000
  H   H2203     1.0  0.34290  0.61975  0.85751  1.0000
  N   N122      1.0  0.27370  0.74868  0.81001  1.0000
  S   S514      1.0  0.29838  0.97479  0.60725  1.0000
  Fe  Fe262     1.0  0.24490  0.72052  0.85666  1.0000
  S   S515      1.0  0.22966  0.72521  0.83939  1.0000
  S   S516      1.0  0.27009  0.70783  0.85011  1.0000
  Fe  Fe263     1.0  0.21997  0.73997  0.87750  1.0000
  S   S517      1.0  0.20288  0.74609  0.86209  1.0000
  S   S518      1.0  0.21252  0.74991  0.89896  1.0000
  Fe  Fe264     1.0  0.21054  0.72082  0.86071  1.0000
  H   H2204     1.0  0.22839  0.49750  0.94437  1.0000
  Fe  Fe265     1.0  0.22356  0.75008  0.84236  1.0000
  S   S519      1.0  0.22158  0.77045  0.82143  1.0000
  S   S520      1.0  0.22619  0.71428  0.87785  1.0000
  S   S521      1.0  0.24016  0.74576  0.85796  1.0000
  C   C1859     1.0  0.21228  0.63976  0.85862  1.0000
  C   C1860     1.0  0.26023  0.89084  0.80735  1.0000
  C   C1861     1.0  0.33964  0.63866  0.94856  1.0000
  H   H2205     1.0  0.30513  0.97065  0.52589  1.0000
  S   S522      1.0  0.19981  0.94100  0.81422  1.0000
  H   H2206     1.0  0.30893  0.61838  0.97139  1.0000
  H   H2207     1.0  0.28470  0.83769  0.79816  1.0000
  H   H2208     1.0  0.19377  0.77965  0.84441  1.0000
  C   C1862     1.0  0.34734  0.95525  0.55001  1.0000
  Fe  Fe266     1.0  0.25219  0.84618  0.78473  1.0000
  S   S523      1.0  0.27075  0.84053  0.76380  1.0000
  S   S524      1.0  0.25172  0.82944  0.80846  1.0000
  Fe  Fe267     1.0  0.23732  0.87725  0.76590  1.0000
  S   S525      1.0  0.25456  0.87394  0.74335  1.0000
  S   S526      1.0  0.21684  0.89792  0.76535  1.0000
  Fe  Fe268     1.0  0.25115  0.84930  0.75099  1.0000
  S   S527      1.0  0.24975  0.83627  0.73395  1.0000
  Fe  Fe269     1.0  0.27268  0.86572  0.75805  1.0000
  S   S528      1.0  0.29745  0.86991  0.74838  1.0000
  S   S529      1.0  0.23235  0.85318  0.77237  1.0000
  S   S530      1.0  0.25563  0.87081  0.78019  1.0000
  C   C1863     1.0  0.19952  0.79554  0.90101  1.0000
  C   C1864     1.0  0.33784  0.97243  0.66596  1.0000
  S   S531      1.0  0.22343  0.86446  0.63909  1.0000
  N   N123      1.0  0.33729  0.60704  0.88154  1.0000
  C   C1865     1.0  0.20201  0.85106  0.72085  1.0000
  H   H2209     1.0  0.21406  0.63963  0.82273  1.0000
  C   C1866     1.0  0.20187  0.64116  0.82994  1.0000
  H   H2210     1.0  0.36629  0.88435  0.60451  1.0000
  H   H2211     1.0  0.19975  0.60367  0.84806  1.0000
  C   C1867     1.0  0.19542  0.60610  0.89979  1.0000
  C   C1868     1.0  0.31445  0.97764  0.72534  1.0000
  C   C1869     1.0  0.27161  0.77804  0.79901  1.0000
  C   C1870     1.0  0.23269  0.62430  0.87247  1.0000
  H   H2212     1.0  0.21874  0.51471  0.96258  1.0000
  C   C1871     1.0  0.24828  0.91619  0.68946  1.0000
  H   H2213     1.0  0.30194  0.87263  0.77962  1.0000
  H   H2214     1.0  0.26102  0.73029  0.82156  1.0000
  C   C1872     1.0  0.23097  0.84109  0.72990  1.0000
  C   C1873     1.0  0.22811  0.83435  0.71915  1.0000
  C   C1874     1.0  0.21372  0.83951  0.71441  1.0000
  H   H2215     1.0  0.19368  0.85895  0.94139  1.0000
  C   C1875     1.0  0.20470  0.85744  0.73193  1.0000
  C   C1876     1.0  0.21920  0.85261  0.73633  1.0000
  H   H2216     1.0  0.23714  0.82535  0.71423  1.0000
  H   H2217     1.0  0.21159  0.83443  0.70597  1.0000
  H   H2218     1.0  0.20435  0.58560  0.97270  1.0000
  H   H2219     1.0  0.22137  0.85809  0.74439  1.0000
  C   C1877     1.0  0.27277  0.77442  0.76918  1.0000
  C   C1878     1.0  0.20511  0.92971  0.79994  1.0000
  C   C1879     1.0  0.21963  0.91901  0.79819  1.0000
  C   C1880     1.0  0.22347  0.90913  0.78759  1.0000
  C   C1881     1.0  0.21281  0.91006  0.77864  1.0000
  C   C1882     1.0  0.21251  0.85636  0.82138  1.0000
  C   C1883     1.0  0.33468  0.95777  0.56250  1.0000
  H   H2220     1.0  0.22782  0.91830  0.80514  1.0000
  H   H2221     1.0  0.23464  0.90089  0.78630  1.0000
  S   S532      1.0  0.38395  0.94856  0.70178  1.0000
  H   H2222     1.0  0.37507  0.56496  0.90100  1.0000
  C   C1884     1.0  0.22956  0.78698  0.81842  1.0000
  C   C1885     1.0  0.23591  0.78930  0.82976  1.0000
  C   C1886     1.0  0.24246  0.80247  0.82671  1.0000
  C   C1887     1.0  0.24267  0.81343  0.81235  1.0000
  C   C1888     1.0  0.23604  0.81124  0.80117  1.0000
  C   C1889     1.0  0.22954  0.79808  0.80419  1.0000
  H   H2223     1.0  0.23575  0.78101  0.84089  1.0000
  H   H2224     1.0  0.24742  0.80413  0.83550  1.0000
  H   H2225     1.0  0.23618  0.81949  0.79002  1.0000
  H   H2226     1.0  0.22467  0.79640  0.79535  1.0000
  C   C1890     1.0  0.25923  0.57058  0.96340  1.0000
  H   H2227     1.0  0.30417  0.83817  0.78680  1.0000
  H   H2228     1.0  0.28791  0.85276  0.78091  1.0000
  H   H2229     1.0  0.29012  0.72715  0.81666  1.0000
  C   C1891     1.0  0.27128  0.78925  0.77160  1.0000
  H   H2230     1.0  0.37253  0.91379  0.60685  1.0000
  N   N124      1.0  0.20031  0.62808  0.84392  1.0000
  H   H2231     1.0  0.20832  0.84075  0.84394  1.0000
  C   C1892     1.0  0.36074  0.91159  0.61316  1.0000
  C   C1893     1.0  0.38969  0.60595  0.96375  1.0000
  C   C1894     1.0  0.32897  0.97263  0.56601  1.0000
  H   H2232     1.0  0.20972  0.70574  0.83402  1.0000
  H   H2233     1.0  0.24130  0.90277  0.71274  1.0000
  H   H2234     1.0  0.33716  0.90151  0.63559  1.0000
  C   C1895     1.0  0.19806  0.80314  0.88568  1.0000
  H   H2235     1.0  0.28365  0.88887  0.79431  1.0000
  C   C1896     1.0  0.37127  0.88397  0.61458  1.0000
  H   H2236     1.0  0.37214  0.87192  0.62206  1.0000
  C   C1897     1.0  0.29272  0.84567  0.79130  1.0000
  C   C1898     1.0  0.34723  0.60851  0.86540  1.0000
  H   H2237     1.0  0.36901  0.96987  0.65506  1.0000
  H   H2238     1.0  0.32093  0.95404  0.52639  1.0000
  H   H2239     1.0  0.19592  0.91362  0.84954  1.0000
  H   H2240     1.0  0.20522  0.77337  0.91688  1.0000
  H   H2241     1.0  0.31825  0.96706  0.73372  1.0000
  S   S533      1.0  0.19146  0.70757  0.86569  1.0000
  C   C1899     1.0  0.22202  0.81545  0.61756  1.0000
  H   H2242     1.0  0.38614  0.89496  0.67158  1.0000
  C   C1900     1.0  0.27891  0.86555  0.80633  1.0000
  C   C1901     1.0  0.20117  0.90345  0.84379  1.0000
  H   H2243     1.0  0.35428  0.91326  0.60385  1.0000
  Fe  Fe270     1.0  0.38276  0.93121  0.72473  1.0000
  S   S534      1.0  0.19863  0.84126  0.67470  1.0000
  C   C1902     1.0  0.20426  0.77920  0.90499  1.0000
  C   C1903     1.0  0.20784  0.77042  0.89357  1.0000
  C   C1904     1.0  0.20711  0.77807  0.87804  1.0000
  C   C1905     1.0  0.20217  0.79442  0.87411  1.0000
  C   C1906     1.0  0.38042  0.97838  0.48112  1.0000
  C   C1907     1.0  0.35155  0.56151  0.91059  1.0000
  H   H2244     1.0  0.21031  0.77145  0.86905  1.0000
  C   C1908     1.0  0.33993  0.63847  0.96383  1.0000
  H   H2245     1.0  0.27301  0.77312  0.75762  1.0000
  H   H2246     1.0  0.21053  0.62536  0.90342  1.0000
  H   H2247     1.0  0.35954  0.60855  0.86502  1.0000
  C   C1909     1.0  0.22201  0.61218  0.85838  1.0000
  H   H2248     1.0  0.20557  0.69484  0.81364  1.0000
  H   H2249     1.0  0.38341  0.88586  0.60960  1.0000
  C   C1910     1.0  0.36181  0.61654  0.94813  1.0000
  C   C1911     1.0  0.36628  0.56616  0.94275  1.0000
  H   H2250     1.0  0.35473  0.92092  0.61986  1.0000
  S   S535      1.0  0.30945  0.62773  0.93409  1.0000
  H   H2251     1.0  0.37433  0.55578  0.94730  1.0000
  C   C1912     1.0  0.34212  0.96532  0.50366  1.0000
  C   C1913     1.0  0.27373  0.76131  0.78161  1.0000
  C   C1914     1.0  0.36077  0.88996  0.65292  1.0000
  C   C1915     1.0  0.37288  0.58762  0.97042  1.0000
  H   H2252     1.0  0.25823  0.92951  0.66724  1.0000
  C   C1916     1.0  0.36735  0.88980  0.66518  1.0000
  H   H2253     1.0  0.27491  0.75006  0.77913  1.0000
  H   H2254     1.0  0.24900  0.59584  0.97655  1.0000
  C   C1917     1.0  0.36205  0.61562  0.96390  1.0000
  C   C1918     1.0  0.29312  0.66304  0.88114  1.0000
  C   C1919     1.0  0.30100  0.66924  0.86609  1.0000
  C   C1920     1.0  0.29371  0.68290  0.85688  1.0000
  C   C1921     1.0  0.27835  0.69058  0.86251  1.0000
  C   C1922     1.0  0.27028  0.68442  0.87758  1.0000
  C   C1923     1.0  0.27769  0.67064  0.88693  1.0000
  H   H2255     1.0  0.31288  0.66349  0.86152  1.0000
  H   H2256     1.0  0.30002  0.68754  0.84530  1.0000
  H   H2257     1.0  0.25843  0.69030  0.88206  1.0000
  H   H2258     1.0  0.27150  0.66595  0.89855  1.0000
  C   C1924     1.0  0.38298  0.89889  0.63420  1.0000
  H   H2259     1.0  0.19271  0.88174  0.86896  1.0000
  H   H2260     1.0  0.24936  0.57105  0.95814  1.0000
  H   H2261     1.0  0.31819  0.60180  0.87554  1.0000
  H   H2262     1.0  0.34559  0.55792  0.95689  1.0000
  S   S536      1.0  0.31918  0.58114  0.94784  1.0000
  H   H2263     1.0  0.24072  0.62338  0.87973  1.0000
  H   H2264     1.0  0.24940  0.74855  0.81307  1.0000
  Fe  Fe271     1.0  0.29797  0.94919  0.61550  1.0000
  Fe  Fe272     1.0  0.19982  0.86326  0.65587  1.0000
  C   C1925     1.0  0.24241  0.60197  0.93315  1.0000
  C   C1926     1.0  0.23090  0.59303  0.93882  1.0000
  C   C1927     1.0  0.22881  0.58409  0.92954  1.0000
  C   C1928     1.0  0.23782  0.58453  0.91429  1.0000
  C   C1929     1.0  0.24920  0.59363  0.90851  1.0000
  C   C1930     1.0  0.25160  0.60224  0.91798  1.0000
  H   H2265     1.0  0.22376  0.59282  0.95052  1.0000
  H   H2266     1.0  0.22019  0.57692  0.93419  1.0000
  H   H2267     1.0  0.25623  0.59398  0.89673  1.0000
  H   H2268     1.0  0.26035  0.60927  0.91343  1.0000
  H   H2269     1.0  0.21636  0.82619  0.64429  1.0000
  C   C1931     1.0  0.21253  0.84290  0.61684  1.0000
  H   H2270     1.0  0.30502  0.97198  0.49866  1.0000
  C   C1932     1.0  0.20350  0.49442  0.90698  1.0000
  H   H2271     1.0  0.19454  0.80199  0.63285  1.0000
  H   H2272     1.0  0.26965  0.80261  0.78828  1.0000
  C   C1933     1.0  0.35809  0.58442  0.89137  1.0000
  C   C1934     1.0  0.26117  0.74052  0.81141  1.0000
  C   C1935     1.0  0.20218  0.61374  0.83821  1.0000
  C   C1936     1.0  0.32069  0.61084  0.88003  1.0000
  C   C1937     1.0  0.31620  0.91303  0.74482  1.0000
  C   C1938     1.0  0.30061  0.91230  0.75263  1.0000
  C   C1939     1.0  0.29458  0.89926  0.75370  1.0000
  C   C1940     1.0  0.30420  0.88675  0.74712  1.0000
  C   C1941     1.0  0.31978  0.88746  0.73937  1.0000
  C   C1942     1.0  0.32573  0.90058  0.73811  1.0000
  H   H2273     1.0  0.29319  0.92188  0.75790  1.0000
  H   H2274     1.0  0.28258  0.89883  0.75975  1.0000
  H   H2275     1.0  0.32731  0.87781  0.73427  1.0000
  H   H2276     1.0  0.33775  0.90098  0.73211  1.0000
  C   C1943     1.0  0.33087  0.58266  0.90163  1.0000
  C   C1944     1.0  0.24638  0.90498  0.63482  1.0000
  C   C1945     1.0  0.25522  0.89176  0.62898  1.0000
  C   C1946     1.0  0.24797  0.87960  0.62987  1.0000
  C   C1947     1.0  0.23192  0.88049  0.63680  1.0000
  C   C1948     1.0  0.22307  0.89387  0.64231  1.0000
  C   C1949     1.0  0.23026  0.90607  0.64125  1.0000
  H   H2277     1.0  0.26763  0.89083  0.62393  1.0000
  H   H2278     1.0  0.25489  0.86933  0.62548  1.0000
  H   H2279     1.0  0.21068  0.89484  0.64743  1.0000
  H   H2280     1.0  0.22331  0.91631  0.64567  1.0000
  C   C1950     1.0  0.33023  0.91847  0.66555  1.0000
  C   C1951     1.0  0.33879  0.92763  0.65291  1.0000
  C   C1952     1.0  0.35133  0.93252  0.65491  1.0000
  C   C1953     1.0  0.35486  0.92889  0.66973  1.0000
  C   C1954     1.0  0.34590  0.92029  0.68252  1.0000
  C   C1955     1.0  0.33385  0.91479  0.68034  1.0000
  H   H2281     1.0  0.33597  0.93071  0.64156  1.0000
  H   H2282     1.0  0.35823  0.93920  0.64500  1.0000
  H   H2283     1.0  0.34864  0.91736  0.69397  1.0000
  H   H2284     1.0  0.32754  0.90747  0.69012  1.0000
  H   H2285     1.0  0.19390  0.64889  0.89706  1.0000
  C   C1956     1.0  0.33337  0.92036  0.53577  1.0000
  C   C1957     1.0  0.34751  0.91386  0.54073  1.0000
  C   C1958     1.0  0.34756  0.91026  0.55679  1.0000
  C   C1959     1.0  0.33355  0.91345  0.56794  1.0000
  C   C1960     1.0  0.31950  0.92043  0.56292  1.0000
  C   C1961     1.0  0.31939  0.92371  0.54690  1.0000
  H   H2286     1.0  0.35832  0.91118  0.53224  1.0000
  H   H2287     1.0  0.35847  0.90483  0.56060  1.0000
  H   H2288     1.0  0.30863  0.92281  0.57141  1.0000
  H   H2289     1.0  0.30839  0.92865  0.54315  1.0000
  C   C1962     1.0  0.19469  0.93082  0.79071  1.0000
  H   H2290     1.0  0.22337  0.84342  0.61998  1.0000
  H   H2291     1.0  0.34296  0.96462  0.65751  1.0000
  C   C1963     1.0  0.34521  0.59268  0.93052  1.0000
  H   H2292     1.0  0.33714  0.60281  0.92564  1.0000
  H   H2293     1.0  0.26262  0.73579  0.80098  1.0000
  H   H2294     1.0  0.34011  0.89426  0.61841  1.0000
  H   H2295     1.0  0.37680  0.58594  0.95817  1.0000
  C   C1964     1.0  0.36313  0.97694  0.66414  1.0000
  H   H2296     1.0  0.22224  0.60144  0.85536  1.0000
  C   C1965     1.0  0.20680  0.85289  0.83755  1.0000
  Fe  Fe273     1.0  0.36191  0.96243  0.71407  1.0000
  N   N125      1.0  0.20844  0.82732  0.62356  1.0000
  H   H2297     1.0  0.31837  0.58715  0.90301  1.0000
  H   H2298     1.0  0.34485  0.88092  0.63568  1.0000
  C   C1966     1.0  0.38757  0.96755  0.49275  1.0000
  H   H2299     1.0  0.30027  0.96188  0.63989  1.0000
  H   H2300     1.0  0.21847  0.84696  0.81523  1.0000
  H   H2301     1.0  0.21475  0.84581  0.60382  1.0000
  H   H2302     1.0  0.36723  0.59060  0.88466  1.0000
  H   H2303     1.0  0.32696  0.56190  0.91927  1.0000
  H   H2304     1.0  0.22054  0.80329  0.62318  1.0000
  C   C1967     1.0  0.33928  0.61884  0.88881  1.0000
  H   H2305     1.0  0.23312  0.81637  0.61988  1.0000
  H   H2306     1.0  0.19381  0.64213  0.82226  1.0000
  C   C1968     1.0  0.30123  0.84593  0.81408  1.0000
  H   H2307     1.0  0.33079  0.64720  0.94289  1.0000
  C   C1969     1.0  0.26671  0.85824  0.81640  1.0000
  C   C1970     1.0  0.25173  0.86697  0.82155  1.0000
  C   C1971     1.0  0.24848  0.88324  0.81702  1.0000
  H   H2308     1.0  0.30189  0.85317  0.82185  1.0000
  H   H2309     1.0  0.29417  0.83720  0.82136  1.0000
  H   H2310     1.0  0.31330  0.83911  0.81021  1.0000
  H   H2311     1.0  0.26850  0.84563  0.82004  1.0000
  H   H2312     1.0  0.24252  0.86099  0.82882  1.0000
  H   H2313     1.0  0.23679  0.88994  0.82083  1.0000
  N   N126      1.0  0.28487  0.92324  0.70700  1.0000
  C   C1972     1.0  0.27797  0.92888  0.72181  1.0000
  C   C1973     1.0  0.29606  0.90806  0.71029  1.0000
  C   C1974     1.0  0.29389  0.93476  0.69603  1.0000
  C   C1975     1.0  0.27241  0.92097  0.70075  1.0000
  C   C1976     1.0  0.26151  0.91185  0.71051  1.0000
  C   C1977     1.0  0.27102  0.92713  0.68487  1.0000
  C   C1978     1.0  0.24956  0.90964  0.70495  1.0000
  C   C1979     1.0  0.21173  0.62662  0.85341  1.0000
  C   C1980     1.0  0.36147  0.59135  0.92492  1.0000
  H   H2314     1.0  0.27304  0.91993  0.73158  1.0000
  H   H2315     1.0  0.28695  0.93182  0.72609  1.0000
  H   H2316     1.0  0.26844  0.93955  0.72018  1.0000
  H   H2317     1.0  0.29034  0.89899  0.71915  1.0000
  H   H2318     1.0  0.30575  0.90922  0.71488  1.0000
  H   H2319     1.0  0.30147  0.90344  0.69947  1.0000
  H   H2320     1.0  0.30048  0.93074  0.68508  1.0000
  H   H2321     1.0  0.28604  0.94640  0.69285  1.0000
  H   H2322     1.0  0.30293  0.93648  0.70118  1.0000
  H   H2323     1.0  0.26221  0.90624  0.72251  1.0000
  H   H2324     1.0  0.27910  0.93369  0.67635  1.0000
  H   H2325     1.0  0.22367  0.81692  0.60468  1.0000
  C   C1981     1.0  0.27091  0.79101  0.78643  1.0000
  Fe  Fe274     1.0  0.19466  0.54586  0.94273  1.0000
  C   C1982     1.0  0.20135  0.62174  0.91379  1.0000
  C   C1983     1.0  0.36828  0.89482  0.63699  1.0000
  H   H2326     1.0  0.32039  0.95487  0.49845  1.0000
  C   C1984     1.0  0.34200  0.59124  0.89127  1.0000
  H   H2327     1.0  0.19914  0.56865  0.95846  1.0000
  H   H2328     1.0  0.19689  0.63093  0.92082  1.0000
  H   H2329     1.0  0.21136  0.89620  0.84892  1.0000
  H   H2330     1.0  0.20231  0.61087  0.88816  1.0000
  H   H2331     1.0  0.23908  0.91446  0.68508  1.0000
  C   C1985     1.0  0.19847  0.92095  0.78022  1.0000
  H   H2332     1.0  0.30016  0.97450  0.66084  1.0000
  H   H2333     1.0  0.30828  0.87309  0.79666  1.0000
  C   C1986     1.0  0.27167  0.75233  0.82549  1.0000
  H   H2334     1.0  0.27028  0.79944  0.76201  1.0000
  H   H2335     1.0  0.27075  0.78042  0.81024  1.0000
  C   C1987     1.0  0.27524  0.88221  0.80202  1.0000
  C   C1988     1.0  0.27295  0.76273  0.79699  1.0000
  H   H2336     1.0  0.33140  0.61867  0.90065  1.0000
  H   H2337     1.0  0.19875  0.65279  0.83301  1.0000
  H   H2338     1.0  0.20357  0.59606  0.90561  1.0000
  N   N127      1.0  0.36139  0.89580  0.62368  1.0000
  H   H2339     1.0  0.21415  0.61044  0.83095  1.0000
  H   H2340     1.0  0.36117  0.88655  0.67724  1.0000
  H   H2341     1.0  0.34838  0.96855  0.51079  1.0000
  H   H2342     1.0  0.38956  0.90235  0.62242  1.0000
  C   C1989     1.0  0.20290  0.88401  0.82105  1.0000
  C   C1990     1.0  0.21054  0.87190  0.81314  1.0000
  C   C1991     1.0  0.30601  0.86532  0.79038  1.0000
  S   S537      1.0  0.28529  0.93779  0.63886  1.0000
  S   S538      1.0  0.19097  0.53823  0.96909  1.0000
  H   H2343     1.0  0.28120  0.75766  0.82572  1.0000
  C   C1992     1.0  0.22273  0.63860  0.86787  1.0000
  H   H2344     1.0  0.36588  0.60053  0.91574  1.0000
  S   S539      1.0  0.28592  0.64792  0.96915  1.0000
  H   H2345     1.0  0.31765  0.62238  0.87195  1.0000
  C   C1993     1.0  0.25907  0.92478  0.67941  1.0000
  H   H2346     1.0  0.20754  0.61123  0.92118  1.0000
  C   C1994     1.0  0.29975  0.98145  0.64915  1.0000
  S   S540      1.0  0.19336  0.57025  0.92834  1.0000
  H   H2347     1.0  0.32932  0.94808  0.56963  1.0000
  H   H2348     1.0  0.31230  0.61209  0.89135  1.0000
  H   H2349     1.0  0.19568  0.86646  0.73677  1.0000
  H   H2350     1.0  0.34736  0.59877  0.86016  1.0000
  C   C1995     1.0  0.33945  0.58056  0.94191  1.0000
  Fe  Fe275     1.0  0.30310  0.60435  0.94070  1.0000
  C   C1996     1.0  0.22025  0.50215  0.96707  1.0000
  H   H2351     1.0  0.35582  0.97821  0.74107  1.0000
  H   H2352     1.0  0.31755  0.85778  0.78615  1.0000
  H   H2353     1.0  0.38063  0.57797  0.97717  1.0000
  N   N128      1.0  0.24760  0.86982  0.68620  1.0000
  C   C1997     1.0  0.24132  0.87706  0.67182  1.0000
  C   C1998     1.0  0.25115  0.85260  0.68786  1.0000
  C   C1999     1.0  0.23498  0.87414  0.69962  1.0000
  C   C2000     1.0  0.26191  0.87474  0.68594  1.0000
  C   C2001     1.0  0.26938  0.86864  0.69886  1.0000
  C   C2002     1.0  0.26901  0.88532  0.67298  1.0000
  C   C2003     1.0  0.28323  0.87261  0.69870  1.0000
  C   C2004     1.0  0.28285  0.88922  0.67298  1.0000
  C   C2005     1.0  0.29004  0.88274  0.68569  1.0000
  H   H2354     1.0  0.25000  0.87382  0.66128  1.0000
  H   H2355     1.0  0.23056  0.87311  0.67236  1.0000
  H   H2356     1.0  0.23797  0.89004  0.66997  1.0000
  H   H2357     1.0  0.26097  0.84889  0.67824  1.0000
  H   H2358     1.0  0.24081  0.84849  0.68752  1.0000
  H   H2359     1.0  0.25457  0.84611  0.69913  1.0000
  H   H2360     1.0  0.23174  0.88702  0.69858  1.0000
  H   H2361     1.0  0.22413  0.87027  0.70034  1.0000
  H   H2362     1.0  0.23845  0.86871  0.71102  1.0000
  H   H2363     1.0  0.26467  0.86052  0.70913  1.0000
  H   H2364     1.0  0.26416  0.89076  0.66266  1.0000
  H   H2365     1.0  0.28879  0.86764  0.70865  1.0000
  H   H2366     1.0  0.28805  0.89734  0.66303  1.0000
  H   H2367     1.0  0.30097  0.88553  0.68536  1.0000
  C   C2006     1.0  0.31814  0.96707  0.52313  1.0000
  C   C2007     1.0  0.34520  0.89299  0.62864  1.0000
  H   H2368     1.0  0.26413  0.58100  0.95650  1.0000
  C   C2008     1.0  0.37203  0.57804  0.93094  1.0000
  S   S541      1.0  0.32096  0.93273  0.61757  1.0000
  H   H2369     1.0  0.20168  0.89585  0.81415  1.0000
  H   H2370     1.0  0.32527  0.97761  0.66561  1.0000
  H   H2371     1.0  0.20458  0.65105  0.85561  1.0000
  H   H2372     1.0  0.25760  0.90352  0.80373  1.0000
  H   H2373     1.0  0.35178  0.94365  0.54746  1.0000
  N   N129      1.0  0.37373  0.60329  0.97164  1.0000
  N   N130      1.0  0.29448  0.85592  0.80057  1.0000
  H   H2374     1.0  0.20141  0.80029  0.86216  1.0000
  C   C2009     1.0  0.38145  0.89449  0.66202  1.0000
  H   H2375     1.0  0.35039  0.62796  0.92878  1.0000
  H   H2376     1.0  0.36351  0.96882  0.67578  1.0000
  H   H2377     1.0  0.34797  0.96837  0.49108  1.0000
  H   H2378     1.0  0.19505  0.86130  0.85811  1.0000
  S   S542      1.0  0.37009  0.90392  0.48532  1.0000
  C   C2010     1.0  0.35429  0.96761  0.54087  1.0000
  C   C2011     1.0  0.29972  0.97430  0.63731  1.0000
  N   N131      1.0  0.32516  0.97296  0.50642  1.0000
  H   H2379     1.0  0.20581  0.90850  0.83130  1.0000
  C   C2012     1.0  0.20628  0.82436  0.64081  1.0000
  H   H2380     1.0  0.37023  0.60849  0.94146  1.0000
  H   H2381     1.0  0.35517  0.55039  0.91830  1.0000
  H   H2382     1.0  0.21496  0.87457  0.80053  1.0000
  H   H2383     1.0  0.20477  0.81229  0.64684  1.0000
  H   H2384     1.0  0.34953  0.88671  0.65631  1.0000
  C   C2013     1.0  0.31799  0.96789  0.49639  1.0000
  H   H2385     1.0  0.19723  0.80227  0.90978  1.0000
  H   H2386     1.0  0.19499  0.88654  0.94177  1.0000
  H   H2387     1.0  0.36066  0.58577  0.97486  1.0000
  C   C2014     1.0  0.19410  0.82609  0.61963  1.0000
  C   C2015     1.0  0.38932  0.89890  0.64656  1.0000
  C   C2016     1.0  0.39042  0.97261  0.50473  1.0000
  C   C2017     1.0  0.34857  0.98256  0.54414  1.0000
  Fe  Fe276     1.0  0.39038  0.91411  0.48486  1.0000
  H   H2388     1.0  0.47338  0.35867  0.00755  1.0000
  S   S543      1.0  0.48302  0.42065  0.03036  1.0000
  Fe  Fe277     1.0  0.47255  0.40627  0.05315  1.0000
  S   S544      1.0  0.48727  0.39133  0.07058  1.0000
  H   H2389     1.0  0.55557  0.10993  0.31078  1.0000
  S   S545      1.0  0.48019  0.40279  0.99755  1.0000
  C   C2018     1.0  0.57654  0.09315  0.32783  1.0000
  H   H2390     1.0  0.41918  0.01283  0.46722  1.0000
  C   C2019     1.0  0.41778  0.00241  0.47695  1.0000
  Fe  Fe278     1.0  0.57584  0.35229  0.06213  1.0000
  S   S546      1.0  0.56925  0.32888  0.07144  1.0000
  S   S547      1.0  0.56183  0.37531  0.05065  1.0000
  H   H2391     1.0  0.56832  0.99082  0.44157  1.0000
  H   H2392     1.0  0.51726  0.99694  0.43192  1.0000
  C   C2020     1.0  0.45048  0.47190  0.05786  1.0000
  C   C2021     1.0  0.55684  0.00272  0.41627  1.0000
  H   H2393     1.0  0.39764  0.40845  0.99549  1.0000
  C   C2022     1.0  0.57301  0.27735  0.11170  1.0000
  S   S548      1.0  0.57539  0.31577  0.11499  1.0000
  C   C2023     1.0  0.39285  0.36676  0.98912  1.0000
  N   N132      1.0  0.50328  0.35015  0.98835  1.0000
  H   H2394     1.0  0.53404  0.98457  0.31171  1.0000
  C   C2024     1.0  0.58448  0.28081  0.08403  1.0000
  C   C2025     1.0  0.44636  0.48211  0.06821  1.0000
  H   H2395     1.0  0.52412  0.35968  0.98148  1.0000
  Fe  Fe279     1.0  0.51244  0.00779  0.27751  1.0000
  C   C2026     1.0  0.51859  0.42923  0.06857  1.0000
  H   H2396     1.0  0.56546  0.07242  0.44019  1.0000
  H   H2397     1.0  0.46493  0.03612  0.24099  1.0000
  C   C2027     1.0  0.53287  0.99298  0.47007  1.0000
  C   C2028     1.0  0.57530  0.05476  0.47526  1.0000
  C   C2029     1.0  0.57678  0.04040  0.27264  1.0000
  Fe  Fe280     1.0  0.56645  0.05392  0.35841  1.0000
  S   S549      1.0  0.54613  0.06489  0.34648  1.0000
  C   C2030     1.0  0.56956  0.02172  0.29613  1.0000
  S   S550      1.0  0.56789  0.03183  0.37707  1.0000
  H   H2398     1.0  0.52418  0.09462  0.47367  1.0000
  Fe  Fe281     1.0  0.48425  0.03145  0.29042  1.0000
  S   S551      1.0  0.49737  0.02945  0.26589  1.0000
  S   S552      1.0  0.45809  0.03324  0.30006  1.0000
  Fe  Fe282     1.0  0.51437  0.02299  0.30277  1.0000
  S   S553      1.0  0.52963  0.02031  0.27933  1.0000
  S   S554      1.0  0.52711  0.01526  0.32267  1.0000
  Fe  Fe283     1.0  0.51351  0.04222  0.26984  1.0000
  S   S555      1.0  0.52526  0.05919  0.24994  1.0000
  H   H2399     1.0  0.58008  0.27676  0.16320  1.0000
  S   S556      1.0  0.49921  0.04604  0.29359  1.0000
  S   S557      1.0  0.49832  0.00870  0.30173  1.0000
  C   C2031     1.0  0.44318  0.38587  0.98580  1.0000
  N   N133      1.0  0.46291  0.01195  0.24835  1.0000
  H   H2400     1.0  0.44327  0.99499  0.45417  1.0000
  C   C2032     1.0  0.58804  0.30846  0.01149  1.0000
  C   C2033     1.0  0.45823  0.47658  0.04231  1.0000
  C   C2034     1.0  0.40744  0.37848  0.03905  1.0000
  H   H2401     1.0  0.55522  0.36929  0.02148  1.0000
  S   S558      1.0  0.58818  0.34948  0.08133  1.0000
  H   H2402     1.0  0.52015  0.38916  0.09802  1.0000
  H   H2403     1.0  0.43637  0.47807  0.98801  1.0000
  S   S559      1.0  0.51984  0.06714  0.46224  1.0000
  H   H2404     1.0  0.44637  0.47543  0.00337  1.0000
  C   C2035     1.0  0.46042  0.98775  0.24111  1.0000
  C   C2036     1.0  0.42769  0.99684  0.24862  1.0000
  S   S560      1.0  0.40711  0.05232  0.25841  1.0000
  C   C2037     1.0  0.57564  0.05759  0.45932  1.0000
  S   S561      1.0  0.42637  0.38427  0.98115  1.0000
  S   S562      1.0  0.57255  0.08902  0.26614  1.0000
  C   C2038     1.0  0.58796  0.98890  0.36039  1.0000
  H   H2405     1.0  0.58370  0.04966  0.45222  1.0000
  C   C2039     1.0  0.54515  0.04389  0.45368  1.0000
  C   C2040     1.0  0.43482  0.98337  0.24279  1.0000
  C   C2041     1.0  0.56092  0.98641  0.36660  1.0000
  C   C2042     1.0  0.40531  0.40157  0.04868  1.0000
  C   C2043     1.0  0.39649  0.08822  0.22327  1.0000
  H   H2406     1.0  0.57078  0.12328  0.28943  1.0000
  H   H2407     1.0  0.42175  0.41918  0.01620  1.0000
  H   H2408     1.0  0.43376  0.38084  0.01066  1.0000
  C   C2044     1.0  0.51845  0.99444  0.42058  1.0000
  H   H2409     1.0  0.39688  0.33890  0.06105  1.0000
  H   H2410     1.0  0.57940  0.99787  0.39165  1.0000
  H   H2411     1.0  0.57927  0.35196  0.98458  1.0000
  H   H2412     1.0  0.58686  0.03208  0.26711  1.0000
  S   S563      1.0  0.45123  0.42537  0.05867  1.0000
  C   C2045     1.0  0.51276  0.33412  0.98761  1.0000
  H   H2413     1.0  0.42722  0.38720  0.03935  1.0000
  H   H2414     1.0  0.48289  0.00682  0.22964  1.0000
  H   H2415     1.0  0.57767  0.39569  0.99434  1.0000
  H   H2416     1.0  0.56915  0.08464  0.33494  1.0000
  C   C2046     1.0  0.49903  0.35226  0.00470  1.0000
  C   C2047     1.0  0.55957  0.37633  0.99571  1.0000
  C   C2048     1.0  0.55141  0.38291  0.98331  1.0000
  C   C2049     1.0  0.58234  0.38785  0.98588  1.0000
  H   H2417     1.0  0.51875  0.44001  0.05982  1.0000
  C   C2050     1.0  0.51601  0.00351  0.39306  1.0000
  C   C2051     1.0  0.51297  0.01132  0.36543  1.0000
  H   H2418     1.0  0.44775  0.01654  0.27025  1.0000
  H   H2419     1.0  0.48846  0.42544  0.05753  1.0000
  C   C2052     1.0  0.57876  0.31577  0.00027  1.0000
  H   H2420     1.0  0.56602  0.03998  0.26924  1.0000
  H   H2421     1.0  0.54859  0.99170  0.36912  1.0000
  C   C2053     1.0  0.49591  0.02573  0.38433  1.0000
  C   C2054     1.0  0.53356  0.40459  0.08066  1.0000
  C   C2055     1.0  0.57336  0.28617  0.09647  1.0000
  H   H2422     1.0  0.49460  0.03177  0.39383  1.0000
  C   C2056     1.0  0.53822  0.06782  0.25430  1.0000
  C   C2057     1.0  0.55148  0.07141  0.24287  1.0000
  C   C2058     1.0  0.56200  0.07821  0.24619  1.0000
  C   C2059     1.0  0.55904  0.08184  0.26085  1.0000
  C   C2060     1.0  0.54550  0.07875  0.27206  1.0000
  C   C2061     1.0  0.53531  0.07144  0.26894  1.0000
  H   H2423     1.0  0.55371  0.06872  0.23148  1.0000
  H   H2424     1.0  0.57239  0.08058  0.23746  1.0000
  H   H2425     1.0  0.54300  0.08176  0.28333  1.0000
  H   H2426     1.0  0.52499  0.06895  0.27772  1.0000
  N   N134      1.0  0.51212  0.01656  0.37981  1.0000
  H   H2427     1.0  0.44553  0.03357  0.24416  1.0000
  C   C2062     1.0  0.54149  0.05146  0.33880  1.0000
  C   C2063     1.0  0.54940  0.03576  0.34146  1.0000
  C   C2064     1.0  0.54493  0.02479  0.33637  1.0000
  C   C2065     1.0  0.53294  0.02955  0.32802  1.0000
  C   C2066     1.0  0.52542  0.04536  0.32480  1.0000
  C   C2067     1.0  0.52959  0.05629  0.33033  1.0000
  H   H2428     1.0  0.55880  0.03205  0.34767  1.0000
  H   H2429     1.0  0.55084  0.01258  0.33885  1.0000
  H   H2430     1.0  0.51612  0.04912  0.31840  1.0000
  H   H2431     1.0  0.52349  0.06845  0.32815  1.0000
  H   H2432     1.0  0.55215  0.00287  0.40613  1.0000
  C   C2068     1.0  0.42101  0.04725  0.27026  1.0000
  C   C2069     1.0  0.41875  0.03728  0.28507  1.0000
  C   C2070     1.0  0.43011  0.03333  0.29416  1.0000
  C   C2071     1.0  0.44403  0.03891  0.28834  1.0000
  C   C2072     1.0  0.44635  0.04882  0.27348  1.0000
  C   C2073     1.0  0.43475  0.05317  0.26459  1.0000
  H   H2433     1.0  0.40817  0.03277  0.28963  1.0000
  H   H2434     1.0  0.42820  0.02575  0.30569  1.0000
  H   H2435     1.0  0.45695  0.05334  0.26898  1.0000
  H   H2436     1.0  0.43651  0.06104  0.25321  1.0000
  H   H2437     1.0  0.40229  0.42849  0.02391  1.0000
  C   C2074     1.0  0.57864  0.29405  0.14178  1.0000
  H   H2438     1.0  0.56558  0.06078  0.29156  1.0000
  C   C2075     1.0  0.56259  0.04909  0.29646  1.0000
  H   H2439     1.0  0.57854  0.05244  0.26703  1.0000
  H   H2440     1.0  0.41172  0.40098  0.00757  1.0000
  H   H2441     1.0  0.56703  0.30029  0.14654  1.0000
  H   H2442     1.0  0.48678  0.01478  0.24378  1.0000
  C   C2076     1.0  0.41178  0.45838  0.03652  1.0000
  H   H2443     1.0  0.52320  0.34694  0.00748  1.0000
  H   H2444     1.0  0.50634  0.32510  0.99550  1.0000
  H   H2445     1.0  0.43066  0.01622  0.25530  1.0000
  H   H2446     1.0  0.58344  0.25712  0.12669  1.0000
  N   N135      1.0  0.57697  0.37292  0.99231  1.0000
  H   H2447     1.0  0.55838  0.01475  0.41510  1.0000
  C   C2077     1.0  0.57751  0.99140  0.43055  1.0000
  C   C2078     1.0  0.52620  0.38435  0.00156  1.0000
  H   H2448     1.0  0.48930  0.98748  0.28065  1.0000
  H   H2449     1.0  0.48891  0.35920  0.04745  1.0000
  C   C2079     1.0  0.51476  0.00655  0.40792  1.0000
  C   C2080     1.0  0.56527  0.32731  0.00366  1.0000
  C   C2081     1.0  0.56114  0.33158  0.01815  1.0000
  C   C2082     1.0  0.57058  0.32459  0.02915  1.0000
  H   H2450     1.0  0.56103  0.04688  0.30937  1.0000
  H   H2451     1.0  0.50492  0.00333  0.36765  1.0000
  H   H2452     1.0  0.55566  0.08964  0.31427  1.0000
  H   H2453     1.0  0.55066  0.34044  0.02084  1.0000
  H   H2454     1.0  0.56733  0.32810  0.04023  1.0000
  H   H2455     1.0  0.54470  0.39637  0.08135  1.0000
  C   C2083     1.0  0.58643  0.07916  0.30687  1.0000
  C   C2084     1.0  0.51969  0.40055  0.09006  1.0000
  C   C2085     1.0  0.50794  0.38631  0.06421  1.0000
  C   C2086     1.0  0.51593  0.39563  0.05118  1.0000
  C   C2087     1.0  0.53244  0.39205  0.04709  1.0000
  C   C2088     1.0  0.54111  0.37897  0.05580  1.0000
  C   C2089     1.0  0.53316  0.36944  0.06863  1.0000
  C   C2090     1.0  0.51664  0.37319  0.07290  1.0000
  H   H2456     1.0  0.50949  0.40583  0.04447  1.0000
  H   H2457     1.0  0.53850  0.39950  0.03717  1.0000
  H   H2458     1.0  0.53973  0.35936  0.07548  1.0000
  H   H2459     1.0  0.51057  0.36596  0.08304  1.0000
  H   H2460     1.0  0.51345  0.38743  0.00381  1.0000
  C   C2091     1.0  0.44313  0.38479  0.00141  1.0000
  C   C2092     1.0  0.45458  0.38993  0.00499  1.0000
  C   C2093     1.0  0.45803  0.02830  0.23976  1.0000
  C   C2094     1.0  0.58366  0.36296  0.98055  1.0000
  S   S564      1.0  0.46015  0.39499  0.04259  1.0000
  H   H2461     1.0  0.56311  0.09968  0.29486  1.0000
  Fe  Fe284     1.0  0.46924  0.41084  0.02010  1.0000
  H   H2462     1.0  0.55103  0.04982  0.29396  1.0000
  H   H2463     1.0  0.53089  0.00045  0.45894  1.0000
  Fe  Fe285     1.0  0.58011  0.04333  0.38756  1.0000
  H   H2464     1.0  0.52509  0.00532  0.36051  1.0000
  C   C2095     1.0  0.45351  0.00191  0.24646  1.0000
  C   C2096     1.0  0.53499  0.38676  0.98624  1.0000
  C   C2097     1.0  0.53503  0.05799  0.44864  1.0000
  C   C2098     1.0  0.53745  0.06521  0.43263  1.0000
  C   C2099     1.0  0.55005  0.05849  0.42174  1.0000
  C   C2100     1.0  0.56041  0.04462  0.42688  1.0000
  C   C2101     1.0  0.55785  0.03729  0.44285  1.0000
  H   H2465     1.0  0.57090  0.10461  0.33119  1.0000
  H   H2466     1.0  0.52965  0.07613  0.42867  1.0000
  H   H2467     1.0  0.55196  0.06424  0.40946  1.0000
  H   H2468     1.0  0.56584  0.02659  0.44693  1.0000
  H   H2469     1.0  0.52252  0.03246  0.38549  1.0000
  H   H2470     1.0  0.58894  0.08011  0.29397  1.0000
  H   H2471     1.0  0.58117  0.00258  0.42889  1.0000
  H   H2472     1.0  0.41472  0.36870  0.03402  1.0000
  C   C2102     1.0  0.40173  0.41079  0.00490  1.0000
  H   H2473     1.0  0.56516  0.29734  0.09439  1.0000
  H   H2474     1.0  0.57890  0.01175  0.29247  1.0000
  Fe  Fe286     1.0  0.43980  0.41544  0.04554  1.0000
  N   N136      1.0  0.48904  0.43613  0.07542  1.0000
  C   C2103     1.0  0.47512  0.43078  0.08647  1.0000
  C   C2104     1.0  0.48848  0.45199  0.07725  1.0000
  C   C2105     1.0  0.48749  0.43727  0.05934  1.0000
  C   C2106     1.0  0.50419  0.42543  0.07787  1.0000
  Fe  Fe287     1.0  0.58382  0.32507  0.08920  1.0000
  C   C2107     1.0  0.50519  0.41072  0.08871  1.0000
  C   C2108     1.0  0.58366  0.36463  0.00635  1.0000
  C   C2109     1.0  0.58365  0.99575  0.40255  1.0000
  C   C2110     1.0  0.55454  0.08043  0.46168  1.0000
  H   H2475     1.0  0.46395  0.43922  0.08451  1.0000
  H   H2476     1.0  0.47411  0.41940  0.08490  1.0000
  H   H2477     1.0  0.47557  0.42950  0.09887  1.0000
  H   H2478     1.0  0.49045  0.45149  0.08895  1.0000
  H   H2479     1.0  0.47692  0.46009  0.07612  1.0000
  H   H2480     1.0  0.49738  0.45772  0.06818  1.0000
  H   H2481     1.0  0.47601  0.44465  0.05706  1.0000
  H   H2482     1.0  0.49668  0.44251  0.05015  1.0000
  C   C2111     1.0  0.53379  0.37807  0.01401  1.0000
  H   H2483     1.0  0.49493  0.40647  0.09588  1.0000
  C   C2112     1.0  0.42010  0.42529  0.98662  1.0000
  H   H2484     1.0  0.54425  0.10944  0.46937  1.0000
  H   H2485     1.0  0.54769  0.00021  0.42710  1.0000
  H   H2486     1.0  0.46730  0.01890  0.26735  1.0000
  C   C2113     1.0  0.52322  0.02705  0.37570  1.0000
  H   H2487     1.0  0.50961  0.02136  0.35581  1.0000
  C   C2114     1.0  0.41158  0.42861  0.01301  1.0000
  H   H2488     1.0  0.55900  0.02213  0.29190  1.0000
  C   C2115     1.0  0.46024  0.01177  0.26521  1.0000
  N   N137      1.0  0.57179  0.99099  0.41687  1.0000
  C   C2116     1.0  0.46661  0.39531  0.99308  1.0000
  H   H2489     1.0  0.42424  0.43645  0.98234  1.0000
  S   S565      1.0  0.55348  0.33718  0.99002  1.0000
  H   H2490     1.0  0.58200  0.31242  0.98909  1.0000
  C   C2117     1.0  0.58401  0.31296  0.02590  1.0000
  C   C2118     1.0  0.58817  0.10626  0.30189  1.0000
  H   H2491     1.0  0.54346  0.03829  0.46599  1.0000
  H   H2492     1.0  0.41004  0.99641  0.47421  1.0000
  H   H2493     1.0  0.41522  0.43999  0.00984  1.0000
  H   H2494     1.0  0.56460  0.28184  0.12136  1.0000
  H   H2495     1.0  0.58478  0.28781  0.07219  1.0000
  H   H2496     1.0  0.41498  0.00016  0.25179  1.0000
  Fe  Fe288     1.0  0.46106  0.43909  0.03506  1.0000
  S   S566      1.0  0.57711  0.03639  0.41395  1.0000
  C   C2119     1.0  0.53301  0.41892  0.06997  1.0000
  H   H2497     1.0  0.39843  0.09954  0.22393  1.0000
  H   H2498     1.0  0.46338  0.99969  0.27216  1.0000
  C   C2120     1.0  0.55020  0.37410  0.01123  1.0000
  H   H2499     1.0  0.40369  0.07885  0.23088  1.0000
  C   C2121     1.0  0.48950  0.35234  0.98157  1.0000
  H   H2500     1.0  0.51661  0.35084  0.03418  1.0000
  H   H2501     1.0  0.58010  0.37182  0.01537  1.0000
  H   H2502     1.0  0.45961  0.02888  0.22705  1.0000
  H   H2503     1.0  0.58866  0.40905  0.03180  1.0000
  S   S567      1.0  0.41368  0.41524  0.05251  1.0000
  H   H2504     1.0  0.56575  0.01909  0.30910  1.0000
  S   S568      1.0  0.44821  0.43068  0.02225  1.0000
  S   S569      1.0  0.46360  0.46435  0.02874  1.0000
  H   H2505     1.0  0.52690  0.37633  0.02593  1.0000
  H   H2506     1.0  0.51099  0.01834  0.40986  1.0000
  C   C2122     1.0  0.58594  0.29923  0.12620  1.0000
  H   H2507     1.0  0.44754  0.46052  0.06190  1.0000
  C   C2123     1.0  0.44001  0.98557  0.46443  1.0000
  H   H2508     1.0  0.41635  0.44953  0.04592  1.0000
  C   C2124     1.0  0.58388  0.26320  0.11459  1.0000
  C   C2125     1.0  0.41457  0.38896  0.04205  1.0000
  H   H2509     1.0  0.39833  0.37171  0.99524  1.0000
  C   C2126     1.0  0.47971  0.35909  0.02807  1.0000
  C   C2127     1.0  0.51093  0.35019  0.01291  1.0000
  H   H2510     1.0  0.49238  0.03513  0.37431  1.0000
  C   C2128     1.0  0.43682  0.00598  0.25051  1.0000
  S   S570      1.0  0.52287  0.98540  0.26887  1.0000
  C   C2129     1.0  0.49170  0.35710  0.03571  1.0000
  H   H2511     1.0  0.52086  0.03692  0.36559  1.0000
  H   H2512     1.0  0.48729  0.01805  0.38837  1.0000
  H   H2513     1.0  0.54382  0.42186  0.06246  1.0000
  H   H2514     1.0  0.53558  0.02057  0.37241  1.0000
  H   H2515     1.0  0.58653  0.00698  0.40224  1.0000
  N   N138      1.0  0.40634  0.42613  0.00002  1.0000
  H   H2516     1.0  0.47296  0.98324  0.23843  1.0000
  H   H2517     1.0  0.46759  0.36272  0.03393  1.0000
  H   H2518     1.0  0.45399  0.38980  0.01698  1.0000
  C   C2130     1.0  0.50728  0.35250  0.02819  1.0000
  C   C2131     1.0  0.58604  0.28070  0.15122  1.0000
  H   H2519     1.0  0.56798  0.00784  0.36365  1.0000
  C   C2132     1.0  0.42047  0.46936  0.02698  1.0000
  C   C2133     1.0  0.48324  0.35670  0.01281  1.0000
  C   C2134     1.0  0.57192  0.99559  0.36355  1.0000
  H   H2520     1.0  0.57993  0.35333  0.01181  1.0000
  C   C2135     1.0  0.56254  0.09873  0.30747  1.0000
  H   H2521     1.0  0.48199  0.34389  0.98844  1.0000
  H   H2522     1.0  0.54655  0.08998  0.45590  1.0000
  H   H2523     1.0  0.44035  0.47847  0.08023  1.0000
  S   S571      1.0  0.57642  0.06648  0.37017  1.0000
  C   C2136     1.0  0.48008  0.00690  0.24233  1.0000
  H   H2524     1.0  0.52414  0.33187  0.99103  1.0000
  N   N139      1.0  0.57497  0.03670  0.28995  1.0000
  H   H2525     1.0  0.43170  0.46854  0.02936  1.0000
  H   H2526     1.0  0.43030  0.41610  0.98995  1.0000
  H   H2527     1.0  0.48494  0.99504  0.24876  1.0000
  C   C2137     1.0  0.56538  0.07046  0.45253  1.0000
  H   H2528     1.0  0.39232  0.40989  0.01572  1.0000
  C   C2138     1.0  0.39728  0.45863  0.03399  1.0000
  C   C2139     1.0  0.52148  0.98763  0.39164  1.0000
  C   C2140     1.0  0.39269  0.43873  0.99635  1.0000
  H   H2529     1.0  0.40633  0.31865  0.06465  1.0000
  H   H2530     1.0  0.40141  0.08631  0.21113  1.0000
  N   N140      1.0  0.57849  0.09462  0.31079  1.0000
  H   H2531     1.0  0.58792  0.08896  0.33156  1.0000
  C   C2141     1.0  0.41485  0.48107  0.01460  1.0000
  C   C2142     1.0  0.40013  0.48081  0.01211  1.0000
  C   C2143     1.0  0.39272  0.44875  0.98127  1.0000
  H   H2532     1.0  0.48227  0.36444  0.98086  1.0000
  H   H2533     1.0  0.57909  0.07029  0.31268  1.0000
  C   C2144     1.0  0.58245  0.12036  0.29162  1.0000
  H   H2534     1.0  0.58994  0.22874  0.10755  1.0000
  H   H2535     1.0  0.58750  0.14161  0.27544  1.0000
  S   S572      1.0  0.58935  0.04550  0.34300  1.0000
  H   H2536     1.0  0.52313  0.98410  0.38078  1.0000
  H   H2537     1.0  0.59040  0.39056  0.02734  1.0000
  H   H2538     1.0  0.58869  0.01599  0.31433  1.0000
  C   C2145     1.0  0.58970  0.03616  0.29432  1.0000
  C   C2146     1.0  0.39591  0.32732  0.06917  1.0000
  C   C2147     1.0  0.39151  0.46976  0.02175  1.0000
  H   H2539     1.0  0.50617  0.37385  0.97907  1.0000
  H   H2540     1.0  0.40120  0.30133  0.08859  1.0000
  H   H2541     1.0  0.39665  0.32843  0.08081  1.0000
  C   C2148     1.0  0.55370  0.07782  0.47800  1.0000
  H   H2542     1.0  0.53762  0.01108  0.47796  1.0000
  H   H2543     1.0  0.39686  0.27656  0.10577  1.0000
  C   C2149     1.0  0.39100  0.38056  0.04247  1.0000
  H   H2544     1.0  0.39064  0.45005  0.04149  1.0000
  Fe  Fe289     1.0  0.52577  0.02168  0.50799  1.0000
  S   S573      1.0  0.50840  0.02808  0.52926  1.0000
  S   S574      1.0  0.54092  0.99752  0.50991  1.0000
  C   C2150     1.0  0.39457  0.37548  0.91484  1.0000
  S   S575      1.0  0.49735  0.06211  0.50655  1.0000
  Fe  Fe290     1.0  0.51584  0.05102  0.52091  1.0000
  S   S576      1.0  0.51773  0.06349  0.53845  1.0000
  Fe  Fe291     1.0  0.49138  0.03848  0.51336  1.0000
  S   S577      1.0  0.46818  0.03097  0.52261  1.0000
  S   S578      1.0  0.53485  0.04368  0.50083  1.0000
  H   H2545     1.0  0.49892  0.99287  0.54230  1.0000
  Fe  Fe292     1.0  0.41705  0.43230  0.93815  1.0000
  S   S579      1.0  0.43889  0.41751  0.94573  1.0000
  H   H2546     1.0  0.39255  0.09231  0.52235  1.0000
  H   H2547     1.0  0.57748  0.40378  0.94643  1.0000
  S   S580      1.0  0.43070  0.38774  0.93666  1.0000
  C   C2151     1.0  0.43450  0.98679  0.75869  1.0000
  Fe  Fe293     1.0  0.42512  0.39883  0.95716  1.0000
  C   C2152     1.0  0.43531  0.09432  0.72455  1.0000
  Fe  Fe294     1.0  0.44355  0.40728  0.92469  1.0000
  S   S581      1.0  0.46890  0.40474  0.91137  1.0000
  H   H2548     1.0  0.47688  0.39900  0.96832  1.0000
  S   S582      1.0  0.42263  0.42384  0.91589  1.0000
  Fe  Fe295     1.0  0.54214  0.34062  0.93983  1.0000
  S   S583      1.0  0.54903  0.31862  0.95756  1.0000
  S   S584      1.0  0.51613  0.34494  0.94066  1.0000
  Fe  Fe296     1.0  0.57473  0.34761  0.93213  1.0000
  C   C2153     1.0  0.58760  0.23047  0.81570  1.0000
  H   H2549     1.0  0.39401  0.06348  0.53504  1.0000
  Fe  Fe297     1.0  0.57163  0.31400  0.93981  1.0000
  H   H2550     1.0  0.48656  0.46389  0.91794  1.0000
  S   S585      1.0  0.56399  0.33477  0.92133  1.0000
  H   H2551     1.0  0.46707  0.99129  0.72154  1.0000
  H   H2552     1.0  0.40677  0.37522  0.91393  1.0000
  H   H2553     1.0  0.53694  0.11273  0.48883  1.0000
  Fe  Fe298     1.0  0.57913  0.05440  0.58875  1.0000
  C   C2154     1.0  0.41495  0.47007  0.94342  1.0000
  S   S586      1.0  0.57889  0.05071  0.56509  1.0000
  Fe  Fe299     1.0  0.56281  0.05865  0.62215  1.0000
  H   H2554     1.0  0.45823  0.98345  0.76110  1.0000
  S   S587      1.0  0.53922  0.06301  0.63877  1.0000
  C   C2155     1.0  0.46876  0.44019  0.92739  1.0000
  C   C2156     1.0  0.55426  0.99099  0.63516  1.0000
  H   H2555     1.0  0.51512  0.07403  0.77635  1.0000
  C   C2157     1.0  0.47070  0.99858  0.48424  1.0000
  S   S588      1.0  0.57042  0.07546  0.59972  1.0000
  S   S589      1.0  0.56919  0.03839  0.61055  1.0000
  Fe  Fe300     1.0  0.50934  0.09337  0.74906  1.0000
  S   S590      1.0  0.52706  0.07257  0.74189  1.0000
  S   S591      1.0  0.51238  0.10775  0.76445  1.0000
  Fe  Fe301     1.0  0.48652  0.09113  0.73074  1.0000
  S   S592      1.0  0.50274  0.07050  0.72169  1.0000
  S   S593      1.0  0.46349  0.10094  0.72285  1.0000
  Fe  Fe302     1.0  0.50663  0.06157  0.74613  1.0000
  S   S594      1.0  0.50688  0.03637  0.75837  1.0000
  Fe  Fe303     1.0  0.52170  0.08322  0.71814  1.0000
  S   S595      1.0  0.54289  0.08255  0.69853  1.0000
  S   S596      1.0  0.48901  0.08136  0.75567  1.0000
  S   S597      1.0  0.50534  0.10492  0.72478  1.0000
  H   H2556     1.0  0.57246  0.99800  0.55832  1.0000
  N   N141      1.0  0.43314  0.99180  0.47889  1.0000
  H   H2557     1.0  0.41148  0.36756  0.96854  1.0000
  C   C2158     1.0  0.58100  0.11304  0.65355  1.0000
  H   H2558     1.0  0.55553  0.01165  0.68890  1.0000
  H   H2559     1.0  0.41351  0.03695  0.52092  1.0000
  C   C2159     1.0  0.48498  0.04165  0.70369  1.0000
  C   C2160     1.0  0.46096  0.05953  0.71125  1.0000
  C   C2161     1.0  0.45068  0.04152  0.51650  1.0000
  C   C2162     1.0  0.42018  0.99756  0.75642  1.0000
  C   C2163     1.0  0.46883  0.01507  0.71883  1.0000
  H   H2560     1.0  0.56060  0.98785  0.58696  1.0000
  H   H2561     1.0  0.44972  0.06177  0.71990  1.0000
  C   C2164     1.0  0.46358  0.99006  0.52460  1.0000
  Fe  Fe304     1.0  0.58734  0.15073  0.80207  1.0000
  H   H2562     1.0  0.40560  0.11213  0.74312  1.0000
  C   C2165     1.0  0.54529  0.10442  0.48176  1.0000
  H   H2563     1.0  0.47928  0.00098  0.53990  1.0000
  H   H2564     1.0  0.57002  0.08477  0.64287  1.0000
  C   C2166     1.0  0.46123  0.00356  0.71912  1.0000
  S   S598      1.0  0.57534  0.10665  0.78309  1.0000
  S   S599      1.0  0.40271  0.41461  0.95192  1.0000
  H   H2565     1.0  0.39517  0.99436  0.77988  1.0000
  C   C2167     1.0  0.47557  0.47213  0.91680  1.0000
  C   C2168     1.0  0.47744  0.44759  0.89933  1.0000
  H   H2566     1.0  0.39950  0.35419  0.90645  1.0000
  S   S600      1.0  0.57242  0.15197  0.78530  1.0000
  H   H2567     1.0  0.51548  0.36097  0.96568  1.0000
  H   H2568     1.0  0.55679  0.99296  0.54375  1.0000
  H   H2569     1.0  0.44029  0.99867  0.71682  1.0000
  C   C2169     1.0  0.55717  0.00071  0.64306  1.0000
  H   H2570     1.0  0.52376  0.99302  0.58881  1.0000
  H   H2571     1.0  0.48042  0.44030  0.92895  1.0000
  H   H2572     1.0  0.52563  0.02115  0.67671  1.0000
  C   C2170     1.0  0.39252  0.99843  0.76798  1.0000
  H   H2573     1.0  0.57840  0.39443  0.97488  1.0000
  C   C2171     1.0  0.44590  0.03508  0.71331  1.0000
  H   H2574     1.0  0.54241  0.99908  0.59601  1.0000
  H   H2575     1.0  0.45665  0.01161  0.75821  1.0000
  H   H2576     1.0  0.43919  0.04699  0.71119  1.0000
  H   H2577     1.0  0.40946  0.02262  0.75246  1.0000
  Fe  Fe305     1.0  0.56014  0.33332  0.96543  1.0000
  H   H2578     1.0  0.44682  0.45558  0.89980  1.0000
  H   H2579     1.0  0.55293  0.15313  0.74393  1.0000
  C   C2172     1.0  0.58422  0.38409  0.93535  1.0000
  H   H2580     1.0  0.57993  0.14327  0.74365  1.0000
  N   N142      1.0  0.40610  0.99260  0.75600  1.0000
  H   H2581     1.0  0.48050  0.01116  0.72116  1.0000
  C   C2173     1.0  0.46299  0.46756  0.91409  1.0000
  H   H2582     1.0  0.43435  0.10401  0.71453  1.0000
  H   H2583     1.0  0.41742  0.42223  0.97676  1.0000
  H   H2584     1.0  0.53269  0.09146  0.51139  1.0000
  H   H2585     1.0  0.56161  0.02886  0.64703  1.0000
  C   C2174     1.0  0.53558  0.99448  0.66458  1.0000
  N   N143      1.0  0.46469  0.45123  0.91293  1.0000
  H   H2586     1.0  0.50766  0.05688  0.77958  1.0000
  H   H2587     1.0  0.58308  0.14876  0.70798  1.0000
  H   H2588     1.0  0.45184  0.43589  0.91007  1.0000
  H   H2589     1.0  0.47442  0.01958  0.48790  1.0000
  H   H2590     1.0  0.58614  0.19575  0.85307  1.0000
  C   C2175     1.0  0.49720  0.99252  0.51341  1.0000
  C   C2176     1.0  0.44947  0.05648  0.50675  1.0000
  S   S601      1.0  0.55225  0.35551  0.94864  1.0000
  C   C2177     1.0  0.54197  0.08359  0.50445  1.0000
  H   H2591     1.0  0.57934  0.18875  0.77664  1.0000
  N   N144      1.0  0.54876  0.00591  0.57061  1.0000
  C   C2178     1.0  0.53040  0.10812  0.76821  1.0000
  C   C2179     1.0  0.54426  0.09725  0.76409  1.0000
  C   C2180     1.0  0.55804  0.09722  0.76838  1.0000
  C   C2181     1.0  0.55822  0.10824  0.77649  1.0000
  C   C2182     1.0  0.54449  0.11940  0.78020  1.0000
  C   C2183     1.0  0.53062  0.11924  0.77619  1.0000
  H   H2592     1.0  0.54427  0.08863  0.75798  1.0000
  H   H2593     1.0  0.56858  0.08844  0.76560  1.0000
  H   H2594     1.0  0.54440  0.12781  0.78663  1.0000
  H   H2595     1.0  0.51992  0.12764  0.77949  1.0000
  H   H2596     1.0  0.45948  0.06192  0.50277  1.0000
  H   H2597     1.0  0.51499  0.04277  0.81265  1.0000
  S   S602      1.0  0.50826  0.03009  0.49268  1.0000
  C   C2184     1.0  0.42485  0.07300  0.74345  1.0000
  C   C2185     1.0  0.42345  0.04247  0.51696  1.0000
  H   H2598     1.0  0.53262  0.04340  0.76977  1.0000
  H   H2599     1.0  0.52904  0.39175  0.97659  1.0000
  C   C2186     1.0  0.39340  0.35771  0.96627  1.0000
  C   C2187     1.0  0.53960  0.06707  0.65643  1.0000
  C   C2188     1.0  0.55341  0.06222  0.66200  1.0000
  C   C2189     1.0  0.55408  0.06642  0.67540  1.0000
  C   C2190     1.0  0.54086  0.07541  0.68343  1.0000
  C   C2191     1.0  0.52668  0.07953  0.67851  1.0000
  C   C2192     1.0  0.52605  0.07534  0.66498  1.0000
  H   H2600     1.0  0.56366  0.05534  0.65597  1.0000
  H   H2601     1.0  0.56495  0.06290  0.67944  1.0000
  H   H2602     1.0  0.51640  0.08651  0.68473  1.0000
  H   H2603     1.0  0.51524  0.07898  0.66083  1.0000
  C   C2193     1.0  0.51324  0.00465  0.72477  1.0000
  C   C2194     1.0  0.50669  0.00009  0.74072  1.0000
  C   C2195     1.0  0.50514  0.00967  0.75106  1.0000
  C   C2196     1.0  0.50999  0.02393  0.74548  1.0000
  C   C2197     1.0  0.51689  0.02829  0.72958  1.0000
  C   C2198     1.0  0.51857  0.01866  0.71929  1.0000
  C   C2199     1.0  0.42213  0.05752  0.50742  1.0000
  H   H2604     1.0  0.49993  0.00613  0.76337  1.0000
  H   H2605     1.0  0.52112  0.03901  0.72523  1.0000
  H   H2606     1.0  0.52380  0.02222  0.70701  1.0000
  C   C2200     1.0  0.43515  0.06452  0.50235  1.0000
  H   H2607     1.0  0.50807  0.99572  0.51368  1.0000
  H   H2608     1.0  0.48269  0.99217  0.48433  1.0000
  H   H2609     1.0  0.42652  0.02664  0.71180  1.0000
  C   C2201     1.0  0.56334  0.00902  0.55905  1.0000
  H   H2610     1.0  0.53366  0.02594  0.55922  1.0000
  C   C2202     1.0  0.57642  0.12901  0.65463  1.0000
  H   H2611     1.0  0.46937  0.42784  0.92723  1.0000
  H   H2612     1.0  0.46384  0.00220  0.52274  1.0000
  C   C2203     1.0  0.43283  0.01863  0.75518  1.0000
  C   C2204     1.0  0.43795  0.06917  0.75019  1.0000
  C   C2205     1.0  0.44982  0.07773  0.74401  1.0000
  C   C2206     1.0  0.44853  0.09034  0.73118  1.0000
  H   H2613     1.0  0.43901  0.05945  0.76017  1.0000
  H   H2614     1.0  0.45994  0.07459  0.74920  1.0000
  C   C2207     1.0  0.43511  0.47418  0.95368  1.0000
  C   C2208     1.0  0.56987  0.28826  0.91389  1.0000
  C   C2209     1.0  0.56777  0.28107  0.90297  1.0000
  C   C2210     1.0  0.47313  0.04081  0.73111  1.0000
  C   C2211     1.0  0.44964  0.98674  0.52402  1.0000
  H   H2615     1.0  0.52790  0.99556  0.67589  1.0000
  H   H2616     1.0  0.56166  0.29881  0.91661  1.0000
  H   H2617     1.0  0.55789  0.28608  0.89737  1.0000
  C   C2212     1.0  0.42824  0.46404  0.94989  1.0000
  C   C2213     1.0  0.53596  0.02579  0.66909  1.0000
  H   H2618     1.0  0.57782  0.08251  0.65965  1.0000
  C   C2214     1.0  0.44744  0.99189  0.75934  1.0000
  C   C2215     1.0  0.57143  0.11458  0.63069  1.0000
  C   C2216     1.0  0.53884  0.98950  0.49541  1.0000
  Fe  Fe306     1.0  0.58443  0.12679  0.78511  1.0000
  S   S603      1.0  0.40620  0.45790  0.93804  1.0000
  H   H2619     1.0  0.55768  0.38524  0.97123  1.0000
  H   H2620     1.0  0.56490  0.06175  0.49679  1.0000
  C   C2217     1.0  0.48219  0.38859  0.92001  1.0000
  C   C2218     1.0  0.47667  0.37636  0.93142  1.0000
  C   C2219     1.0  0.48728  0.36317  0.93759  1.0000
  C   C2220     1.0  0.50353  0.36223  0.93280  1.0000
  C   C2221     1.0  0.50913  0.37468  0.92173  1.0000
  C   C2222     1.0  0.49847  0.38776  0.91522  1.0000
  H   H2621     1.0  0.46423  0.37679  0.93517  1.0000
  H   H2622     1.0  0.48283  0.35352  0.94596  1.0000
  H   H2623     1.0  0.52163  0.37402  0.91789  1.0000
  H   H2624     1.0  0.50284  0.39716  0.90636  1.0000
  H   H2625     1.0  0.54313  0.14730  0.73263  1.0000
  H   H2626     1.0  0.51577  0.33206  0.97549  1.0000
  H   H2627     1.0  0.43845  0.02305  0.52923  1.0000
  C   C2223     1.0  0.56171  0.05427  0.55800  1.0000
  C   C2224     1.0  0.56268  0.04903  0.54454  1.0000
  C   C2225     1.0  0.54924  0.05145  0.53861  1.0000
  C   C2226     1.0  0.53478  0.05955  0.54587  1.0000
  C   C2227     1.0  0.53384  0.06492  0.55924  1.0000
  C   C2228     1.0  0.54721  0.06214  0.56540  1.0000
  H   H2628     1.0  0.57390  0.04297  0.53874  1.0000
  H   H2629     1.0  0.55011  0.04719  0.52836  1.0000
  H   H2630     1.0  0.52269  0.07123  0.56490  1.0000
  H   H2631     1.0  0.54635  0.06628  0.57573  1.0000
  C   C2229     1.0  0.46149  0.03123  0.71572  1.0000
  C   C2230     1.0  0.54733  0.98913  0.55296  1.0000
  H   H2632     1.0  0.58163  0.14786  0.66106  1.0000
  C   C2231     1.0  0.43840  0.02344  0.71368  1.0000
  S   S604      1.0  0.57914  0.16053  0.82422  1.0000
  C   C2232     1.0  0.48819  0.98981  0.54138  1.0000
  C   C2233     1.0  0.56369  0.02089  0.65837  1.0000
  H   H2633     1.0  0.43326  0.45162  0.95188  1.0000
  H   H2634     1.0  0.49999  0.98696  0.50322  1.0000
  N   N145      1.0  0.56816  0.13789  0.72878  1.0000
  H   H2635     1.0  0.46206  0.04155  0.74029  1.0000
  H   H2636     1.0  0.54205  0.02991  0.57305  1.0000
  C   C2234     1.0  0.53719  0.02102  0.57072  1.0000
  C   C2235     1.0  0.56868  0.12444  0.72235  1.0000
  H   H2637     1.0  0.48092  0.02926  0.73455  1.0000
  C   C2236     1.0  0.55554  0.11754  0.72549  1.0000
  C   C2237     1.0  0.53272  0.98488  0.65654  1.0000
  C   C2238     1.0  0.55643  0.10502  0.71898  1.0000
  C   C2239     1.0  0.57031  0.09896  0.70927  1.0000
  H   H2638     1.0  0.45991  0.44302  0.93800  1.0000
  H   H2639     1.0  0.49162  0.05045  0.70326  1.0000
  C   C2240     1.0  0.58034  0.13359  0.73817  1.0000
  H   H2640     1.0  0.58362  0.11353  0.62341  1.0000
  H   H2641     1.0  0.48300  0.04330  0.69174  1.0000
  C   C2241     1.0  0.41982  0.01367  0.75448  1.0000
  C   C2242     1.0  0.52886  0.98911  0.57795  1.0000
  H   H2642     1.0  0.55929  0.00738  0.58864  1.0000
  H   H2643     1.0  0.47909  0.04979  0.73157  1.0000
  H   H2644     1.0  0.47501  0.45582  0.88825  1.0000
  H   H2645     1.0  0.54442  0.12153  0.73299  1.0000
  H   H2646     1.0  0.55741  0.10422  0.48242  1.0000
  H   H2647     1.0  0.54627  0.09996  0.72145  1.0000
  S   S605      1.0  0.58646  0.29077  0.93423  1.0000
  H   H2648     1.0  0.44560  0.46953  0.95839  1.0000
  H   H2649     1.0  0.58077  0.36886  0.96896  1.0000
  H   H2650     1.0  0.48904  0.44830  0.90056  1.0000
  H   H2651     1.0  0.58701  0.33105  0.88849  1.0000
  H   H2652     1.0  0.45622  0.39040  0.96190  1.0000
  H   H2653     1.0  0.41357  0.08850  0.72521  1.0000
  H   H2654     1.0  0.48864  0.00379  0.51108  1.0000
  N   N146      1.0  0.46988  0.04318  0.71541  1.0000
  H   H2655     1.0  0.55663  0.08358  0.81294  1.0000
  H   H2656     1.0  0.54855  0.03883  0.77916  1.0000
  C   C2243     1.0  0.58322  0.18010  0.84045  1.0000
  C   C2244     1.0  0.54784  0.00278  0.65807  1.0000
  H   H2657     1.0  0.51732  0.03299  0.79717  1.0000
  H   H2658     1.0  0.57083  0.16179  0.72009  1.0000
  H   H2659     1.0  0.39340  0.09579  0.54039  1.0000
  H   H2660     1.0  0.56592  0.12724  0.62947  1.0000
  H   H2661     1.0  0.53281  0.03245  0.65769  1.0000
  C   C2245     1.0  0.57749  0.08942  0.64754  1.0000
  C   C2246     1.0  0.43981  0.01513  0.48397  1.0000
  H   H2662     1.0  0.56602  0.13654  0.65088  1.0000
  C   C2247     1.0  0.55338  0.00416  0.68223  1.0000
  C   C2248     1.0  0.44905  0.47930  0.91261  1.0000
  Fe  Fe307     1.0  0.51588  0.05277  0.48704  1.0000
  H   H2663     1.0  0.56102  0.01491  0.54718  1.0000
  C   C2249     1.0  0.45069  0.02218  0.48611  1.0000
  C   C2250     1.0  0.58340  0.10538  0.70602  1.0000
  C   C2251     1.0  0.40026  0.36434  0.97411  1.0000
  C   C2252     1.0  0.45568  0.39038  0.97392  1.0000
  H   H2664     1.0  0.39693  0.13013  0.74970  1.0000
  H   H2665     1.0  0.49316  0.35048  0.96937  1.0000
  N   N147      1.0  0.54198  0.08852  0.48744  1.0000
  S   S606      1.0  0.58550  0.05306  0.62992  1.0000
  C   C2253     1.0  0.54178  0.99469  0.56710  1.0000
  H   H2666     1.0  0.56487  0.10951  0.62534  1.0000
  C   C2254     1.0  0.57846  0.26748  0.89919  1.0000
  C   C2255     1.0  0.58524  0.13561  0.66041  1.0000
  H   H2667     1.0  0.56865  0.01700  0.56233  1.0000
  H   H2668     1.0  0.54988  0.13367  0.74927  1.0000
  H   H2669     1.0  0.57493  0.01217  0.65606  1.0000
  H   H2670     1.0  0.40177  0.11198  0.76337  1.0000
  H   H2671     1.0  0.57131  0.17975  0.84690  1.0000
  H   H2672     1.0  0.57874  0.12309  0.74780  1.0000
  H   H2673     1.0  0.54329  0.99911  0.68985  1.0000
  C   C2256     1.0  0.45990  0.99137  0.48219  1.0000
  C   C2257     1.0  0.46743  0.39511  0.97756  1.0000
  H   H2674     1.0  0.55334  0.08361  0.50684  1.0000
  C   C2258     1.0  0.45021  0.44823  0.91085  1.0000
  H   H2675     1.0  0.50345  0.06669  0.79520  1.0000
  N   N148      1.0  0.52735  0.05339  0.79015  1.0000
  C   C2259     1.0  0.52317  0.03941  0.80189  1.0000
  C   C2260     1.0  0.51278  0.06321  0.78513  1.0000
  C   C2261     1.0  0.53839  0.04825  0.77615  1.0000
  C   C2262     1.0  0.53487  0.06165  0.79696  1.0000
  C   C2263     1.0  0.52792  0.07692  0.79985  1.0000
  C   C2264     1.0  0.54970  0.05440  0.80090  1.0000
  C   C2265     1.0  0.53564  0.08453  0.80582  1.0000
  C   C2266     1.0  0.55739  0.06223  0.80665  1.0000
  C   C2267     1.0  0.55043  0.07732  0.80897  1.0000
  H   H2676     1.0  0.49289  0.03001  0.70631  1.0000
  N   N149      1.0  0.55029  0.01323  0.66668  1.0000
  H   H2677     1.0  0.53365  0.03093  0.80553  1.0000
  H   H2678     1.0  0.57239  0.38465  0.93459  1.0000
  H   H2679     1.0  0.44017  0.45034  0.92088  1.0000
  H   H2680     1.0  0.43218  0.03100  0.75379  1.0000
  H   H2681     1.0  0.54314  0.05821  0.76779  1.0000
  C   C2268     1.0  0.43762  0.03458  0.52162  1.0000
  C   C2269     1.0  0.58266  0.19682  0.78130  1.0000
  H   H2682     1.0  0.51676  0.08352  0.79715  1.0000
  H   H2683     1.0  0.55557  0.04270  0.79933  1.0000
  H   H2684     1.0  0.53036  0.09637  0.80745  1.0000
  H   H2685     1.0  0.56893  0.05669  0.80910  1.0000
  H   H2686     1.0  0.40269  0.44768  0.97157  1.0000
  N   N150      1.0  0.57151  0.10639  0.64724  1.0000
  C   C2270     1.0  0.55512  0.10845  0.65659  1.0000
  H   H2687     1.0  0.57087  0.08924  0.70428  1.0000
  H   H2688     1.0  0.56666  0.00665  0.63703  1.0000
  C   C2271     1.0  0.55282  0.14321  0.73906  1.0000
  H   H2689     1.0  0.56554  0.02822  0.66537  1.0000
  C   C2272     1.0  0.44608  0.00772  0.71651  1.0000
  C   C2273     1.0  0.58712  0.39494  0.94201  1.0000
  S   S607      1.0  0.40420  0.06790  0.50208  1.0000
  C   C2274     1.0  0.55287  0.99978  0.58623  1.0000
  C   C2275     1.0  0.42354  0.08559  0.73059  1.0000
  H   H2690     1.0  0.54791  0.10250  0.65299  1.0000
  H   H2691     1.0  0.55486  0.10340  0.66929  1.0000
  H   H2692     1.0  0.51669  0.09634  0.49358  1.0000
  S   S608      1.0  0.58347  0.32663  0.94966  1.0000
  H   H2693     1.0  0.56255  0.15479  0.70820  1.0000
  C   C2276     1.0  0.58264  0.11796  0.71239  1.0000
  H   H2694     1.0  0.43420  0.07617  0.49496  1.0000
  C   C2277     1.0  0.40230  0.99920  0.74031  1.0000
  H   H2695     1.0  0.39578  0.06805  0.55212  1.0000
  H   H2696     1.0  0.54890  0.12093  0.65541  1.0000
  H   H2697     1.0  0.46757  0.06824  0.71114  1.0000
  S   S609      1.0  0.51416  0.99362  0.71123  1.0000
  H   H2698     1.0  0.53947  0.07171  0.50942  1.0000
  C   C2278     1.0  0.57128  0.15137  0.71571  1.0000
  H   H2699     1.0  0.53761  0.03442  0.67478  1.0000
  S   S610      1.0  0.41076  0.06137  0.75120  1.0000
  C   C2279     1.0  0.58254  0.28173  0.92128  1.0000
  H   H2700     1.0  0.47877  0.43546  0.89793  1.0000
  C   C2280     1.0  0.44659  0.00775  0.75767  1.0000
  H   H2701     1.0  0.56382  0.99434  0.68096  1.0000
  H   H2702     1.0  0.57468  0.23431  0.81666  1.0000
  S   S611      1.0  0.57578  0.25869  0.88535  1.0000
  H   H2703     1.0  0.45836  0.06227  0.69940  1.0000
  H   H2704     1.0  0.43972  0.99624  0.52166  1.0000
  Fe  Fe308     1.0  0.40929  0.40521  0.93008  1.0000
  H   H2705     1.0  0.52629  0.01983  0.57984  1.0000
  C   C2281     1.0  0.56459  0.06474  0.48451  1.0000
  C   C2282     1.0  0.39697  0.11741  0.75264  1.0000
  H   H2706     1.0  0.41119  0.00642  0.48793  1.0000
  H   H2707     1.0  0.56143  0.98976  0.62365  1.0000
  H   H2708     1.0  0.57503  0.20906  0.81492  1.0000
  C   C2283     1.0  0.46610  0.01397  0.48620  1.0000
  H   H2709     1.0  0.44714  0.03414  0.48771  1.0000
  H   H2710     1.0  0.39237  0.33388  0.95211  1.0000
  H   H2711     1.0  0.58323  0.04464  0.48051  1.0000
  H   H2712     1.0  0.56782  0.19132  0.80406  1.0000
  H   H2713     1.0  0.39205  0.99532  0.73936  1.0000
  H   H2714     1.0  0.43874  0.47699  0.91076  1.0000
  C   C2284     1.0  0.44419  0.99954  0.48164  1.0000
  C   C2285     1.0  0.53659  0.99902  0.48086  1.0000
  H   H2715     1.0  0.50273  0.98922  0.74514  1.0000
  H   H2716     1.0  0.39980  0.35629  0.95464  1.0000
  H   H2717     1.0  0.58942  0.08702  0.64003  1.0000
  H   H2718     1.0  0.41240  0.99547  0.73094  1.0000
  H   H2719     1.0  0.52351  0.07743  0.48883  1.0000
  C   C2286     1.0  0.52595  0.08933  0.48579  1.0000
  H   H2720     1.0  0.42805  0.02218  0.48419  1.0000
  H   H2721     1.0  0.58452  0.19184  0.71471  1.0000
  H   H2722     1.0  0.58643  0.31188  0.90102  1.0000
  C   C2287     1.0  0.57611  0.19839  0.79670  1.0000
  H   H2723     1.0  0.39912  0.01221  0.73765  1.0000
  H   H2724     1.0  0.58284  0.31630  0.88178  1.0000
  C   C2288     1.0  0.58039  0.20872  0.80281  1.0000
  H   H2725     1.0  0.58042  0.24891  0.78854  1.0000
  C   C2289     1.0  0.59004  0.17171  0.82846  1.0000
  C   C2290     1.0  0.54201  0.98315  0.64184  1.0000
  C   C2291     1.0  0.59017  0.31828  0.88876  1.0000
  S   S612      1.0  0.59052  0.17631  0.74497  1.0000
  H   H2726     1.0  0.59012  0.21919  0.82422  1.0000
  H   H2727     1.0  0.42408  0.98300  0.50334  1.0000
  C   C2292     1.0  0.51267  0.36167  0.97824  1.0000
  Fe  Fe309     1.0  0.46042  0.55602  0.03729  1.0000
  S   S613      1.0  0.47404  0.53592  0.05198  1.0000
  S   S614      1.0  0.46495  0.56166  0.01117  1.0000
  Fe  Fe310     1.0  0.43884  0.56911  0.06462  1.0000
  S   S615      1.0  0.45044  0.54982  0.08231  1.0000
  S   S616      1.0  0.42038  0.59163  0.06568  1.0000
  Fe  Fe311     1.0  0.47329  0.55349  0.06553  1.0000
  S   S617      1.0  0.49648  0.55236  0.07111  1.0000
  Fe  Fe312     1.0  0.45044  0.53363  0.06735  1.0000
  H   H2728     1.0  0.54485  0.96189  0.29091  1.0000
  S   S618      1.0  0.46184  0.57376  0.04916  1.0000
  S   S619      1.0  0.43674  0.55265  0.05150  1.0000
  S   S620      1.0  0.52262  0.63608  0.99373  1.0000
  Fe  Fe313     1.0  0.54415  0.60716  0.07756  1.0000
  S   S621      1.0  0.55606  0.62724  0.06418  1.0000
  S   S622      1.0  0.51802  0.60873  0.08166  1.0000
  Fe  Fe314     1.0  0.57446  0.58406  0.08069  1.0000
  H   H2729     1.0  0.48422  0.56397  0.98177  1.0000
  H   H2730     1.0  0.53896  0.52536  0.98908  1.0000
  Fe  Fe315     1.0  0.57179  0.61798  0.08152  1.0000
  H   H2731     1.0  0.48511  0.53629  0.99581  1.0000
  Fe  Fe316     1.0  0.57244  0.60940  0.05108  1.0000
  H   H2732     1.0  0.44641  0.49251  0.98783  1.0000
  S   S623      1.0  0.55827  0.59965  0.09635  1.0000
  S   S624      1.0  0.55966  0.59019  0.06305  1.0000
  C   C2293     1.0  0.56340  0.66023  0.11745  1.0000
  H   H2733     1.0  0.50914  0.56914  0.03919  1.0000
  C   C2294     1.0  0.54247  0.56800  0.03627  1.0000
  C   C2295     1.0  0.46653  0.61555  0.04480  1.0000
  S   S625      1.0  0.58959  0.80024  0.20302  1.0000
  H   H2734     1.0  0.48483  0.56975  0.10976  1.0000
  H   H2735     1.0  0.48455  0.62383  0.04925  1.0000
  C   C2296     1.0  0.48021  0.62123  0.04049  1.0000
  H   H2736     1.0  0.43167  0.98029  0.46168  1.0000
  S   S626      1.0  0.40929  0.88818  0.23680  1.0000
  H   H2737     1.0  0.54007  0.57810  0.99304  1.0000
  H   H2738     1.0  0.53690  0.91385  0.44394  1.0000
  C   C2297     1.0  0.50845  0.93981  0.30644  1.0000
  Fe  Fe317     1.0  0.56204  0.91353  0.34698  1.0000
  S   S627      1.0  0.55995  0.91459  0.32269  1.0000
  Fe  Fe318     1.0  0.55673  0.90167  0.38244  1.0000
  S   S628      1.0  0.54376  0.92188  0.36697  1.0000
  S   S629      1.0  0.57327  0.89194  0.36218  1.0000
  Fe  Fe319     1.0  0.47522  0.89007  0.27700  1.0000
  S   S630      1.0  0.48480  0.90444  0.25377  1.0000
  S   S631      1.0  0.45263  0.88151  0.28330  1.0000
  Fe  Fe320     1.0  0.50126  0.89169  0.29171  1.0000
  S   S632      1.0  0.51272  0.90633  0.26954  1.0000
  S   S633      1.0  0.50887  0.88395  0.31481  1.0000
  Fe  Fe321     1.0  0.48813  0.91949  0.26789  1.0000
  S   S634      1.0  0.47804  0.94550  0.26427  1.0000
  Fe  Fe322     1.0  0.50845  0.88965  0.25773  1.0000
  S   S635      1.0  0.52704  0.88051  0.23792  1.0000
  S   S636      1.0  0.47699  0.90605  0.29093  1.0000
  S   S637      1.0  0.49852  0.87413  0.28008  1.0000
  S   S638      1.0  0.55166  0.95920  0.37103  1.0000
  H   H2739     1.0  0.49361  0.55892  0.02811  1.0000
  C   C2298     1.0  0.55748  0.95289  0.43413  1.0000
  H   H2740     1.0  0.47975  0.89706  0.47472  1.0000
  Fe  Fe323     1.0  0.56135  0.93441  0.36810  1.0000
  Fe  Fe324     1.0  0.58065  0.80093  0.22860  1.0000
  S   S639      1.0  0.55558  0.80787  0.24148  1.0000
  C   C2299     1.0  0.44247  0.57074  0.99389  1.0000
  C   C2300     1.0  0.54864  0.95761  0.30228  1.0000
  C   C2301     1.0  0.45114  0.97871  0.23926  1.0000
  H   H2741     1.0  0.47544  0.85223  0.27855  1.0000
  H   H2742     1.0  0.50418  0.94000  0.29635  1.0000
  H   H2743     1.0  0.57556  0.64775  0.98016  1.0000
  H   H2744     1.0  0.51745  0.91614  0.40208  1.0000
  H   H2745     1.0  0.49868  0.62849  0.02148  1.0000
  H   H2746     1.0  0.55747  0.57783  0.00702  1.0000
  H   H2747     1.0  0.49672  0.92180  0.32157  1.0000
  H   H2748     1.0  0.51164  0.52556  0.99138  1.0000
  C   C2302     1.0  0.54851  0.56107  0.11177  1.0000
  S   S640      1.0  0.58705  0.55956  0.08888  1.0000
  H   H2749     1.0  0.45992  0.92350  0.45446  1.0000
  H   H2750     1.0  0.54442  0.59685  0.00341  1.0000
  H   H2751     1.0  0.48953  0.62231  0.00161  1.0000
  C   C2303     1.0  0.53526  0.86027  0.23944  1.0000
  C   C2304     1.0  0.53102  0.84919  0.25304  1.0000
  C   C2305     1.0  0.53745  0.83315  0.25365  1.0000
  C   C2306     1.0  0.54842  0.82809  0.24080  1.0000
  C   C2307     1.0  0.55296  0.83918  0.22733  1.0000
  C   C2308     1.0  0.54627  0.85520  0.22661  1.0000
  H   H2752     1.0  0.52277  0.85292  0.26309  1.0000
  H   H2753     1.0  0.53396  0.82461  0.26412  1.0000
  H   H2754     1.0  0.56124  0.83534  0.21730  1.0000
  H   H2755     1.0  0.54949  0.86367  0.21598  1.0000
  C   C2309     1.0  0.49058  0.95595  0.26653  1.0000
  C   C2310     1.0  0.48429  0.96871  0.27383  1.0000
  H   H2756     1.0  0.43657  0.49245  0.02212  1.0000
  H   H2757     1.0  0.42436  0.57797  0.98070  1.0000
  C   C2311     1.0  0.52005  0.81922  0.22676  1.0000
  C   C2312     1.0  0.50674  0.95201  0.26059  1.0000
  H   H2758     1.0  0.47182  0.97154  0.27872  1.0000
  H   H2759     1.0  0.41249  0.93465  0.47777  1.0000
  H   H2760     1.0  0.46040  0.91294  0.44030  1.0000
  Fe  Fe325     1.0  0.51596  0.94888  0.47484  1.0000
  H   H2761     1.0  0.51605  0.58985  0.04184  1.0000
  H   H2762     1.0  0.58779  0.98162  0.43250  1.0000
  H   H2763     1.0  0.52395  0.56820  0.98274  1.0000
  H   H2764     1.0  0.55600  0.62621  0.98090  1.0000
  H   H2765     1.0  0.50658  0.92117  0.34451  1.0000
  C   C2313     1.0  0.54605  0.90561  0.32071  1.0000
  C   C2314     1.0  0.54307  0.90791  0.30585  1.0000
  C   C2315     1.0  0.53181  0.90117  0.30390  1.0000
  C   C2316     1.0  0.52352  0.89202  0.31680  1.0000
  C   C2317     1.0  0.52678  0.88943  0.33164  1.0000
  C   C2318     1.0  0.53801  0.89625  0.33362  1.0000
  H   H2766     1.0  0.54926  0.91518  0.29584  1.0000
  H   H2767     1.0  0.52946  0.90318  0.29245  1.0000
  H   H2768     1.0  0.52041  0.88232  0.34164  1.0000
  H   H2769     1.0  0.54031  0.89440  0.34512  1.0000
  C   C2319     1.0  0.52854  0.58098  0.12269  1.0000
  H   H2770     1.0  0.56495  0.72319  0.08782  1.0000
  H   H2771     1.0  0.49444  0.85421  0.22258  1.0000
  H   H2772     1.0  0.52899  0.95823  0.25649  1.0000
  C   C2320     1.0  0.54881  0.58705  0.01271  1.0000
  S   S641      1.0  0.57113  0.68056  0.12996  1.0000
  N   N151      1.0  0.53308  0.56396  0.12284  1.0000
  C   C2321     1.0  0.58227  0.87300  0.30089  1.0000
  C   C2322     1.0  0.56318  0.68135  0.07997  1.0000
  H   H2773     1.0  0.47797  0.88191  0.45797  1.0000
  C   C2323     1.0  0.42075  0.88789  0.24975  1.0000
  C   C2324     1.0  0.43588  0.89093  0.24375  1.0000
  C   C2325     1.0  0.44552  0.88986  0.25392  1.0000
  C   C2326     1.0  0.44030  0.88510  0.27013  1.0000
  C   C2327     1.0  0.42513  0.88222  0.27610  1.0000
  C   C2328     1.0  0.41530  0.88384  0.26598  1.0000
  H   H2774     1.0  0.44013  0.89417  0.23120  1.0000
  H   H2775     1.0  0.45710  0.89232  0.24917  1.0000
  H   H2776     1.0  0.42102  0.87850  0.28862  1.0000
  H   H2777     1.0  0.40370  0.88138  0.27072  1.0000
  S   S642      1.0  0.52494  0.97034  0.46121  1.0000
  H   H2778     1.0  0.57607  0.84579  0.24103  1.0000
  C   C2329     1.0  0.56653  0.64908  0.10828  1.0000
  C   C2330     1.0  0.48279  0.62024  0.01356  1.0000
  H   H2779     1.0  0.41649  0.86980  0.20370  1.0000
  C   C2331     1.0  0.48478  0.88931  0.44798  1.0000
  N   N152      1.0  0.53565  0.58084  0.02433  1.0000
  H   H2780     1.0  0.54388  0.91130  0.41606  1.0000
  H   H2781     1.0  0.55746  0.56560  0.11445  1.0000
  N   N153      1.0  0.53535  0.95974  0.31593  1.0000
  C   C2332     1.0  0.50633  0.93638  0.41204  1.0000
  H   H2782     1.0  0.58794  0.59623  0.98149  1.0000
  C   C2333     1.0  0.53106  0.97751  0.47400  1.0000
  N   N154      1.0  0.42434  0.49258  0.00469  1.0000
  C   C2334     1.0  0.50890  0.92067  0.41167  1.0000
  C   C2335     1.0  0.51210  0.83371  0.21962  1.0000
  H   H2783     1.0  0.52396  0.93789  0.34263  1.0000
  H   H2784     1.0  0.52151  0.95715  0.29382  1.0000
  C   C2336     1.0  0.39283  0.85761  0.22378  1.0000
  C   C2337     1.0  0.48822  0.62373  0.02488  1.0000
  C   C2338     1.0  0.56891  0.97535  0.41831  1.0000
  C   C2339     1.0  0.53916  0.63027  0.00205  1.0000
  C   C2340     1.0  0.55427  0.62578  0.99318  1.0000
  C   C2341     1.0  0.56724  0.62077  0.00027  1.0000
  C   C2342     1.0  0.56512  0.62006  0.01623  1.0000
  C   C2343     1.0  0.55001  0.62445  0.02512  1.0000
  C   C2344     1.0  0.53710  0.62975  0.01799  1.0000
  S   S643      1.0  0.58132  0.61322  0.02508  1.0000
  H   H2785     1.0  0.45067  0.97610  0.46544  1.0000
  H   H2786     1.0  0.54820  0.62379  0.03748  1.0000
  H   H2787     1.0  0.52545  0.63323  0.02493  1.0000
  H   H2788     1.0  0.57870  0.87379  0.40086  1.0000
  C   C2345     1.0  0.48535  0.90532  0.46461  1.0000
  H   H2789     1.0  0.41791  0.50596  0.02255  1.0000
  C   C2346     1.0  0.40024  0.59117  0.07030  1.0000
  H   H2790     1.0  0.56559  0.84550  0.38494  1.0000
  H   H2791     1.0  0.47091  0.62967  0.98674  1.0000
  C   C2347     1.0  0.50211  0.56860  0.07322  1.0000
  C   C2348     1.0  0.51736  0.56649  0.07527  1.0000
  C   C2349     1.0  0.52238  0.57884  0.07741  1.0000
  C   C2350     1.0  0.51213  0.59341  0.07786  1.0000
  C   C2351     1.0  0.49681  0.59557  0.07584  1.0000
  C   C2352     1.0  0.49185  0.58325  0.07334  1.0000
  H   H2792     1.0  0.52524  0.55511  0.07554  1.0000
  H   H2793     1.0  0.53399  0.57684  0.07935  1.0000
  H   H2794     1.0  0.48872  0.60674  0.07637  1.0000
  H   H2795     1.0  0.48001  0.58497  0.07189  1.0000
  C   C2353     1.0  0.44814  0.56008  0.00648  1.0000
  C   C2354     1.0  0.44008  0.54844  0.01563  1.0000
  C   C2355     1.0  0.42597  0.54784  0.01263  1.0000
  C   C2356     1.0  0.42021  0.55862  0.00015  1.0000
  C   C2357     1.0  0.58867  0.85186  0.28735  1.0000
  C   C2358     1.0  0.57300  0.96809  0.40532  1.0000
  H   H2796     1.0  0.44483  0.53972  0.02491  1.0000
  C   C2359     1.0  0.52618  0.57487  0.01734  1.0000
  C   C2360     1.0  0.51849  0.94952  0.30505  1.0000
  C   C2361     1.0  0.58190  0.96377  0.36289  1.0000
  C   C2362     1.0  0.46397  0.91182  0.45140  1.0000
  C   C2363     1.0  0.43899  0.48427  0.99564  1.0000
  H   H2797     1.0  0.49043  0.52113  0.98469  1.0000
  H   H2798     1.0  0.58351  0.76270  0.20069  1.0000
  H   H2799     1.0  0.39765  0.86344  0.23012  1.0000
  S   S644      1.0  0.57316  0.91471  0.38500  1.0000
  C   C2364     1.0  0.53503  0.55542  0.13887  1.0000
  H   H2800     1.0  0.42762  0.97639  0.24131  1.0000
  H   H2801     1.0  0.39501  0.48903  0.00281  1.0000
  H   H2802     1.0  0.55028  0.55817  0.03091  1.0000
  C   C2365     1.0  0.50973  0.92933  0.33356  1.0000
  C   C2366     1.0  0.51651  0.96115  0.26140  1.0000
  Fe  Fe326     1.0  0.58874  0.90664  0.36340  1.0000
  C   C2367     1.0  0.49413  0.97770  0.27492  1.0000
  H   H2803     1.0  0.55147  0.67909  0.08458  1.0000
  C   C2368     1.0  0.58968  0.82710  0.39600  1.0000
  H   H2804     1.0  0.49571  0.84255  0.27419  1.0000
  C   C2369     1.0  0.50032  0.84314  0.22869  1.0000
  H   H2805     1.0  0.49368  0.95432  0.42485  1.0000
  H   H2806     1.0  0.50231  0.81872  0.26464  1.0000
  H   H2807     1.0  0.49828  0.90160  0.46362  1.0000
  H   H2808     1.0  0.48663  0.60328  0.99138  1.0000
  H   H2809     1.0  0.50339  0.58026  0.11611  1.0000
  H   H2810     1.0  0.53764  0.58499  0.12571  1.0000
  H   H2811     1.0  0.52361  0.55692  0.14751  1.0000
  C   C2370     1.0  0.42859  0.56988  0.99061  1.0000
  H   H2812     1.0  0.51995  0.60345  0.02340  1.0000
  N   N155      1.0  0.46347  0.61069  0.00531  1.0000
  H   H2813     1.0  0.57894  0.72598  0.09674  1.0000
  C   C2371     1.0  0.49578  0.56207  0.11221  1.0000
  H   H2814     1.0  0.57804  0.83809  0.42289  1.0000
  C   C2372     1.0  0.46080  0.61232  0.03353  1.0000
  C   C2373     1.0  0.57452  0.85174  0.38499  1.0000
  H   H2815     1.0  0.53578  0.86459  0.43138  1.0000
  C   C2374     1.0  0.53293  0.89044  0.45333  1.0000
  C   C2375     1.0  0.53673  0.90310  0.44118  1.0000
  H   H2816     1.0  0.48171  0.88870  0.43716  1.0000
  H   H2817     1.0  0.46625  0.83741  0.25573  1.0000
  C   C2376     1.0  0.54076  0.90162  0.42542  1.0000
  C   C2377     1.0  0.54039  0.88771  0.42186  1.0000
  H   H2818     1.0  0.45003  0.60811  0.03774  1.0000
  C   C2378     1.0  0.44982  0.49707  0.06307  1.0000
  H   H2819     1.0  0.55142  0.66474  0.12302  1.0000
  H   H2820     1.0  0.40352  0.56598  0.03619  1.0000
  C   C2379     1.0  0.52554  0.59372  0.03199  1.0000
  C   C2380     1.0  0.47589  0.59882  0.99789  1.0000
  H   H2821     1.0  0.40499  0.51174  0.99936  1.0000
  C   C2381     1.0  0.53621  0.87531  0.43403  1.0000
  H   H2822     1.0  0.48145  0.91694  0.46780  1.0000
  C   C2382     1.0  0.51275  0.56919  0.02681  1.0000
  C   C2383     1.0  0.49918  0.54654  0.11095  1.0000
  C   C2384     1.0  0.50377  0.56325  0.02059  1.0000
  C   C2385     1.0  0.52088  0.56833  0.99512  1.0000
  H   H2823     1.0  0.39624  0.90280  0.30865  1.0000
  C   C2386     1.0  0.51712  0.53322  0.98126  1.0000
  H   H2824     1.0  0.53328  0.56307  0.04572  1.0000
  H   H2825     1.0  0.44872  0.57970  0.98673  1.0000
  S   S645      1.0  0.44457  0.50960  0.07635  1.0000
  C   C2387     1.0  0.58196  0.64353  0.10074  1.0000
  H   H2826     1.0  0.45914  0.85669  0.25974  1.0000
  C   C2388     1.0  0.56948  0.95365  0.40684  1.0000
  H   H2827     1.0  0.45142  0.63457  0.99830  1.0000
  H   H2828     1.0  0.51607  0.52471  0.11232  1.0000
  S   S646      1.0  0.58666  0.63064  0.08795  1.0000
  H   H2829     1.0  0.58455  0.70510  0.21343  1.0000
  H   H2830     1.0  0.43111  0.95134  0.47408  1.0000
  C   C2389     1.0  0.52436  0.54244  0.11737  1.0000
  H   H2831     1.0  0.51277  0.94405  0.40269  1.0000
  H   H2832     1.0  0.55548  0.59176  0.01827  1.0000
  C   C2390     1.0  0.50413  0.92967  0.32065  1.0000
  C   C2391     1.0  0.45740  0.50177  0.04746  1.0000
  C   C2392     1.0  0.46893  0.61435  0.01754  1.0000
  C   C2393     1.0  0.51344  0.53674  0.11352  1.0000
  H   H2833     1.0  0.55907  0.93486  0.42230  1.0000
  H   H2834     1.0  0.41600  0.85221  0.19881  1.0000
  C   C2394     1.0  0.53276  0.87658  0.44966  1.0000
  C   C2395     1.0  0.53289  0.53296  0.98009  1.0000
  C   C2396     1.0  0.57418  0.67223  0.07017  1.0000
  H   H2835     1.0  0.46004  0.51328  0.04334  1.0000
  N   N156      1.0  0.48433  0.84889  0.25473  1.0000
  C   C2397     1.0  0.52382  0.97904  0.41874  1.0000
  S   S647      1.0  0.50566  0.93565  0.46429  1.0000
  N   N157      1.0  0.43076  0.93701  0.28535  1.0000
  C   C2398     1.0  0.44006  0.93882  0.29556  1.0000
  C   C2399     1.0  0.44071  0.92507  0.27635  1.0000
  C   C2400     1.0  0.42748  0.95200  0.27385  1.0000
  C   C2401     1.0  0.41589  0.93285  0.29519  1.0000
  C   C2402     1.0  0.40483  0.94341  0.30398  1.0000
  C   C2403     1.0  0.41231  0.91809  0.29707  1.0000
  C   C2404     1.0  0.46017  0.62509  0.99311  1.0000
  C   C2405     1.0  0.48734  0.93218  0.43660  1.0000
  C   C2406     1.0  0.56584  0.97048  0.36637  1.0000
  H   H2836     1.0  0.43396  0.94850  0.30177  1.0000
  H   H2837     1.0  0.44251  0.92786  0.30458  1.0000
  H   H2838     1.0  0.45159  0.94149  0.28874  1.0000
  H   H2839     1.0  0.45168  0.92865  0.26887  1.0000
  H   H2840     1.0  0.43443  0.92301  0.26844  1.0000
  H   H2841     1.0  0.44456  0.91372  0.28429  1.0000
  H   H2842     1.0  0.42132  0.96209  0.27947  1.0000
  H   H2843     1.0  0.43856  0.95508  0.26611  1.0000
  H   H2844     1.0  0.41999  0.95133  0.26632  1.0000
  H   H2845     1.0  0.55459  0.94504  0.30317  1.0000
  H   H2846     1.0  0.40673  0.95483  0.30319  1.0000
  H   H2847     1.0  0.51167  0.94218  0.25494  1.0000
  H   H2848     1.0  0.47201  0.53497  0.98515  1.0000
  C   C2407     1.0  0.46867  0.84936  0.25243  1.0000
  H   H2849     1.0  0.57505  0.88139  0.23913  1.0000
  H   H2850     1.0  0.45560  0.62290  0.98392  1.0000
  H   H2851     1.0  0.52208  0.97948  0.30213  1.0000
  C   C2408     1.0  0.52468  0.94930  0.31784  1.0000
  H   H2852     1.0  0.40305  0.61437  0.02773  1.0000
  H   H2853     1.0  0.56290  0.83658  0.41442  1.0000
  H   H2854     1.0  0.52256  0.80283  0.24843  1.0000
  H   H2855     1.0  0.56953  0.75181  0.18764  1.0000
  H   H2856     1.0  0.39996  0.84545  0.22487  1.0000
  C   C2409     1.0  0.58223  0.74935  0.18492  1.0000
  C   C2410     1.0  0.41613  0.50497  0.99333  1.0000
  C   C2411     1.0  0.57758  0.86351  0.29410  1.0000
  H   H2857     1.0  0.56799  0.86373  0.38630  1.0000
  H   H2858     1.0  0.54342  0.55966  0.14275  1.0000
  C   C2412     1.0  0.49646  0.83848  0.24530  1.0000
  H   H2859     1.0  0.52983  0.86678  0.45897  1.0000
  H   H2860     1.0  0.41715  0.58661  0.03158  1.0000
  H   H2861     1.0  0.39275  0.88764  0.21320  1.0000
  C   C2413     1.0  0.39663  0.57782  0.03431  1.0000
  H   H2862     1.0  0.56633  0.87450  0.22778  1.0000
  C   C2414     1.0  0.51606  0.81399  0.24294  1.0000
  H   H2863     1.0  0.46026  0.61363  0.05697  1.0000
  H   H2864     1.0  0.39292  0.61603  0.06180  1.0000
  C   C2415     1.0  0.58944  0.67458  0.06477  1.0000
  C   C2416     1.0  0.53006  0.57415  0.00125  1.0000
  H   H2865     1.0  0.41059  0.87080  0.18604  1.0000
  H   H2866     1.0  0.54944  0.57209  0.04205  1.0000
  C   C2417     1.0  0.42855  0.50055  0.01466  1.0000
  H   H2867     1.0  0.49946  0.86502  0.24945  1.0000
  S   S648      1.0  0.58053  0.73030  0.16704  1.0000
  H   H2868     1.0  0.58626  0.90185  0.30066  1.0000
  S   S649      1.0  0.54457  0.88521  0.40248  1.0000
  H   H2869     1.0  0.49743  0.88371  0.44759  1.0000
  H   H2870     1.0  0.51529  0.83774  0.20702  1.0000
  C   C2418     1.0  0.52548  0.97567  0.40428  1.0000
  C   C2419     1.0  0.56739  0.69283  0.08449  1.0000
  C   C2420     1.0  0.40474  0.58966  0.03147  1.0000
  C   C2421     1.0  0.57565  0.66575  0.11927  1.0000
  H   H2871     1.0  0.47195  0.59515  0.98916  1.0000
  C   C2422     1.0  0.46161  0.49155  0.03716  1.0000
  H   H2872     1.0  0.46752  0.49529  0.02513  1.0000
  C   C2423     1.0  0.52139  0.55828  0.11854  1.0000
  C   C2424     1.0  0.51984  0.93899  0.33227  1.0000
  C   C2425     1.0  0.50445  0.82340  0.25216  1.0000
  H   H2873     1.0  0.50075  0.55826  0.00005  1.0000
  C   C2426     1.0  0.40980  0.86463  0.19856  1.0000
  H   H2874     1.0  0.57263  0.94841  0.39672  1.0000
  H   H2875     1.0  0.45710  0.90404  0.46089  1.0000
  H   H2876     1.0  0.47926  0.87263  0.25767  1.0000
  H   H2877     1.0  0.48020  0.83242  0.27696  1.0000
  H   H2878     1.0  0.53520  0.53434  0.11935  1.0000
  C   C2427     1.0  0.57188  0.84335  0.41302  1.0000
  H   H2879     1.0  0.53236  0.59869  0.03714  1.0000
  S   S650      1.0  0.57854  0.92780  0.34684  1.0000
  C   C2428     1.0  0.48399  0.84371  0.27181  1.0000
  H   H2880     1.0  0.47922  0.93714  0.44610  1.0000
  H   H2881     1.0  0.55124  0.94711  0.44528  1.0000
  H   H2882     1.0  0.55701  0.64506  0.10677  1.0000
  S   S651      1.0  0.52870  0.89115  0.47328  1.0000
  C   C2429     1.0  0.50668  0.56797  0.11587  1.0000
  H   H2883     1.0  0.57890  0.61728  0.99349  1.0000
  C   C2430     1.0  0.49557  0.94212  0.42449  1.0000
  C   C2431     1.0  0.56181  0.94603  0.42122  1.0000
  H   H2884     1.0  0.53290  0.95943  0.34036  1.0000
  H   H2885     1.0  0.51747  0.58396  0.13141  1.0000
  H   H2886     1.0  0.54755  0.56687  0.09950  1.0000
  H   H2887     1.0  0.53971  0.54264  0.13963  1.0000
  H   H2888     1.0  0.41985  0.53874  0.01966  1.0000
  C   C2432     1.0  0.50781  0.56283  0.00478  1.0000
  C   C2433     1.0  0.52656  0.97623  0.31305  1.0000
  H   H2889     1.0  0.52956  0.81212  0.21982  1.0000
  C   C2434     1.0  0.50086  0.91058  0.42379  1.0000
  H   H2890     1.0  0.43892  0.61287  0.01670  1.0000
  H   H2891     1.0  0.49089  0.54223  0.10755  1.0000
  H   H2892     1.0  0.58485  0.72443  0.06203  1.0000
  H   H2893     1.0  0.58116  0.88379  0.32650  1.0000
  H   H2894     1.0  0.50378  0.89850  0.42284  1.0000
  H   H2895     1.0  0.53012  0.96372  0.40274  1.0000
  C   C2435     1.0  0.48714  0.86504  0.24968  1.0000
  H   H2896     1.0  0.46766  0.85437  0.24004  1.0000
  H   H2897     1.0  0.57100  0.66293  0.06722  1.0000
  H   H2898     1.0  0.45670  0.96791  0.23523  1.0000
  H   H2899     1.0  0.39801  0.83524  0.20597  1.0000
  H   H2900     1.0  0.48487  0.87110  0.23787  1.0000
  C   C2436     1.0  0.57756  0.87687  0.22833  1.0000
  H   H2901     1.0  0.58112  0.85353  0.21397  1.0000
  H   H2902     1.0  0.41368  0.50003  0.98457  1.0000
  C   C2437     1.0  0.48471  0.53363  0.98471  1.0000
  H   H2903     1.0  0.47933  0.58817  0.00685  1.0000
  H   H2904     1.0  0.55759  0.96424  0.30133  1.0000
  N   N158      1.0  0.48116  0.90572  0.44984  1.0000
  H   H2905     1.0  0.57885  0.97335  0.39381  1.0000
  S   S652      1.0  0.40387  0.55661  0.99499  1.0000
  C   C2438     1.0  0.39125  0.93934  0.31424  1.0000
  C   C2439     1.0  0.48975  0.91607  0.43666  1.0000
  C   C2440     1.0  0.57489  0.71694  0.09369  1.0000
  H   H2906     1.0  0.42002  0.90920  0.29101  1.0000
  H   H2907     1.0  0.44535  0.60156  0.00194  1.0000
  H   H2908     1.0  0.55368  0.54845  0.11206  1.0000
  H   H2909     1.0  0.40362  0.56637  0.07997  1.0000
  C   C2441     1.0  0.39682  0.60530  0.02927  1.0000
  H   H2910     1.0  0.56516  0.85528  0.41449  1.0000
  C   C2442     1.0  0.56078  0.96740  0.43269  1.0000
  H   H2911     1.0  0.55843  0.69898  0.09262  1.0000
  C   C2443     1.0  0.54212  0.95693  0.32984  1.0000
  H   H2912     1.0  0.52697  0.58810  0.11087  1.0000
  H   H2913     1.0  0.54886  0.94465  0.33261  1.0000
  C   C2444     1.0  0.39860  0.91421  0.30726  1.0000
  C   C2445     1.0  0.58589  0.85029  0.24207  1.0000
  H   H2914     1.0  0.58169  0.85454  0.25314  1.0000
  C   C2446     1.0  0.44898  0.60436  0.01140  1.0000
  H   H2915     1.0  0.45082  0.59320  0.02030  1.0000
  H   H2916     1.0  0.55660  0.97244  0.44293  1.0000
  H   H2917     1.0  0.58501  0.84430  0.28236  1.0000
  C   C2447     1.0  0.51021  0.97415  0.26832  1.0000
  H   H2918     1.0  0.55037  0.96466  0.32793  1.0000
  H   H2919     1.0  0.43483  0.50998  0.00752  1.0000
  C   C2448     1.0  0.39514  0.57719  0.07731  1.0000
  H   H2920     1.0  0.56524  0.86513  0.29425  1.0000
  H   H2921     1.0  0.57320  0.88188  0.30597  1.0000
  H   H2922     1.0  0.52678  0.96971  0.42854  1.0000
  N   N159      1.0  0.58317  0.84358  0.39766  1.0000
  H   H2923     1.0  0.58049  0.88650  0.21814  1.0000
  H   H2924     1.0  0.58025  0.82099  0.39706  1.0000
  H   H2925     1.0  0.58268  0.85284  0.37326  1.0000
  H   H2926     1.0  0.51627  0.97836  0.32285  1.0000
  H   H2927     1.0  0.42347  0.51357  0.98632  1.0000
  H   H2928     1.0  0.57038  0.70933  0.10509  1.0000
  H   H2929     1.0  0.58583  0.95145  0.36270  1.0000
  C   C2449     1.0  0.58284  0.69567  0.07905  1.0000
  N   N160      1.0  0.39321  0.86609  0.20722  1.0000
  N   N161      1.0  0.58777  0.70772  0.08354  1.0000
  N   N162      1.0  0.59043  0.86268  0.22823  1.0000
  C   C2450     1.0  0.59012  0.75553  0.19232  1.0000
  S   S653      1.0  0.58894  0.60142  0.06717  1.0000
  Fe  Fe327     1.0  0.58981  0.68908  0.13546  1.0000
  S   S654      1.0  0.58994  0.71479  0.12822  1.0000
  H   H2930     1.0  0.39129  0.95036  0.27250  1.0000
  S   S655      1.0  0.46128  0.94511  0.48118  1.0000
  S   S656      1.0  0.43857  0.53997  0.96448  1.0000
  C   C2451     1.0  0.56553  0.67254  0.90855  1.0000
  Fe  Fe328     1.0  0.40913  0.56065  0.93787  1.0000
  S   S657      1.0  0.43332  0.54704  0.92880  1.0000
  H   H2931     1.0  0.51194  0.56084  0.94776  1.0000
  Fe  Fe329     1.0  0.42861  0.52905  0.95120  1.0000
  S   S658      1.0  0.43806  0.50279  0.95527  1.0000
  Fe  Fe330     1.0  0.44155  0.55886  0.94278  1.0000
  S   S659      1.0  0.46472  0.56655  0.93290  1.0000
  S   S660      1.0  0.40364  0.54153  0.95900  1.0000
  S   S661      1.0  0.41783  0.57383  0.95003  1.0000
  Fe  Fe331     1.0  0.48592  0.93679  0.48550  1.0000
  H   H2932     1.0  0.58299  0.91963  0.65530  1.0000
  H   H2933     1.0  0.40435  0.95371  0.72098  1.0000
  Fe  Fe332     1.0  0.50850  0.92949  0.50766  1.0000
  S   S662      1.0  0.52991  0.92750  0.48816  1.0000
  S   S663      1.0  0.50855  0.92624  0.53330  1.0000
  H   H2934     1.0  0.56121  0.66045  0.95170  1.0000
  H   H2935     1.0  0.41770  0.97017  0.75024  1.0000
  H   H2936     1.0  0.57994  0.96067  0.65708  1.0000
  H   H2937     1.0  0.57373  0.88661  0.85460  1.0000
  S   S664      1.0  0.49535  0.95187  0.49484  1.0000
  S   S665      1.0  0.49697  0.91457  0.50027  1.0000
  H   H2938     1.0  0.53217  0.67093  0.93692  1.0000
  H   H2939     1.0  0.48445  0.95240  0.53280  1.0000
  C   C2452     1.0  0.49024  0.54042  0.95662  1.0000
  Fe  Fe333     1.0  0.50725  0.61989  0.95299  1.0000
  S   S666      1.0  0.51245  0.64286  0.95261  1.0000
  S   S667      1.0  0.48213  0.61750  0.95685  1.0000
  H   H2940     1.0  0.56808  0.72762  0.89193  1.0000
  H   H2941     1.0  0.42287  0.97007  0.71894  1.0000
  H   H2942     1.0  0.43612  0.97434  0.75991  1.0000
  H   H2943     1.0  0.47777  0.54050  0.95725  1.0000
  H   H2944     1.0  0.56208  0.74853  0.88626  1.0000
  C   C2453     1.0  0.54022  0.74791  0.87123  1.0000
  S   S668      1.0  0.55738  0.91971  0.60676  1.0000
  Fe  Fe334     1.0  0.56737  0.93011  0.58157  1.0000
  S   S669      1.0  0.56747  0.92375  0.55907  1.0000
  Fe  Fe335     1.0  0.54978  0.94468  0.60946  1.0000
  S   S670      1.0  0.52682  0.95614  0.62298  1.0000
  H   H2945     1.0  0.45903  0.51020  0.91859  1.0000
  S   S671      1.0  0.52877  0.61350  0.93452  1.0000
  Fe  Fe336     1.0  0.47754  0.95533  0.72989  1.0000
  S   S672      1.0  0.49335  0.96374  0.70702  1.0000
  S   S673      1.0  0.45158  0.96349  0.72924  1.0000
  Fe  Fe337     1.0  0.50547  0.94064  0.74590  1.0000
  S   S674      1.0  0.52310  0.94778  0.72408  1.0000
  S   S675      1.0  0.51404  0.92970  0.76844  1.0000
  Fe  Fe338     1.0  0.50585  0.97084  0.72108  1.0000
  Fe  Fe339     1.0  0.50901  0.94003  0.71214  1.0000
  S   S676      1.0  0.52134  0.92464  0.69483  1.0000
  S   S677      1.0  0.48888  0.96441  0.74368  1.0000
  S   S678      1.0  0.49253  0.93095  0.73420  1.0000
  C   C2454     1.0  0.53823  0.86539  0.51821  1.0000
  H   H2946     1.0  0.39588  0.96420  0.51375  1.0000
  N   N163      1.0  0.55409  0.73544  0.87463  1.0000
  S   S679      1.0  0.51884  0.60671  0.97301  1.0000
  S   S680      1.0  0.56281  0.71115  0.92420  1.0000
  H   H2947     1.0  0.54548  0.97381  0.53956  1.0000
  S   S681      1.0  0.56655  0.86696  0.77767  1.0000
  H   H2948     1.0  0.57033  0.68354  0.94996  1.0000
  C   C2455     1.0  0.43993  0.94789  0.67140  1.0000
  H   H2949     1.0  0.43820  0.95745  0.66139  1.0000
  Fe  Fe340     1.0  0.58010  0.92071  0.61167  1.0000
  H   H2950     1.0  0.46662  0.94297  0.70678  1.0000
  S   S682      1.0  0.54871  0.62327  0.95437  1.0000
  C   C2456     1.0  0.54576  0.68862  0.93123  1.0000
  S   S683      1.0  0.57646  0.86427  0.81953  1.0000
  H   H2951     1.0  0.55057  0.89139  0.50655  1.0000
  H   H2952     1.0  0.49673  0.91607  0.68300  1.0000
  C   C2457     1.0  0.58644  0.56483  0.96099  1.0000
  H   H2953     1.0  0.57992  0.93458  0.71649  1.0000
  C   C2458     1.0  0.40832  0.48619  0.94117  1.0000
  H   H2954     1.0  0.54791  0.91278  0.72337  1.0000
  C   C2459     1.0  0.43396  0.93909  0.47966  1.0000
  Fe  Fe341     1.0  0.58606  0.71790  0.91180  1.0000
  H   H2955     1.0  0.48376  0.49050  0.92078  1.0000
  H   H2956     1.0  0.52308  0.97892  0.66168  1.0000
  C   C2460     1.0  0.45707  0.93043  0.68878  1.0000
  C   C2461     1.0  0.52917  0.91262  0.77029  1.0000
  C   C2462     1.0  0.53720  0.90908  0.78244  1.0000
  C   C2463     1.0  0.54888  0.89527  0.78466  1.0000
  C   C2464     1.0  0.55236  0.88471  0.77495  1.0000
  C   C2465     1.0  0.54440  0.88826  0.76275  1.0000
  C   C2466     1.0  0.53297  0.90225  0.76030  1.0000
  H   H2957     1.0  0.53428  0.91702  0.79023  1.0000
  H   H2958     1.0  0.55491  0.89267  0.79410  1.0000
  H   H2959     1.0  0.54698  0.88011  0.75523  1.0000
  H   H2960     1.0  0.52675  0.90477  0.75101  1.0000
  C   C2467     1.0  0.52441  0.94696  0.64288  1.0000
  C   C2468     1.0  0.53339  0.93205  0.64767  1.0000
  C   C2469     1.0  0.53194  0.92508  0.66367  1.0000
  C   C2470     1.0  0.52189  0.93322  0.67493  1.0000
  C   C2471     1.0  0.51280  0.94808  0.67013  1.0000
  C   C2472     1.0  0.51389  0.95485  0.65412  1.0000
  H   H2961     1.0  0.54142  0.92583  0.63904  1.0000
  H   H2962     1.0  0.53885  0.91349  0.66730  1.0000
  H   H2963     1.0  0.50497  0.95441  0.67867  1.0000
  H   H2964     1.0  0.50687  0.96637  0.65042  1.0000
  C   C2473     1.0  0.41824  0.93242  0.73209  1.0000
  C   C2474     1.0  0.43217  0.92577  0.73762  1.0000
  C   C2475     1.0  0.44270  0.93505  0.73650  1.0000
  C   C2476     1.0  0.43937  0.95108  0.72984  1.0000
  C   C2477     1.0  0.42554  0.95769  0.72415  1.0000
  C   C2478     1.0  0.42751  0.94084  0.68014  1.0000
  H   H2965     1.0  0.43470  0.91341  0.74297  1.0000
  H   H2966     1.0  0.45318  0.92988  0.74115  1.0000
  H   H2967     1.0  0.57127  0.95569  0.64415  1.0000
  C   C2479     1.0  0.46028  0.49851  0.91699  1.0000
  H   H2968     1.0  0.50776  0.96151  0.52109  1.0000
  Fe  Fe342     1.0  0.41402  0.55381  0.97038  1.0000
  C   C2480     1.0  0.55903  0.90537  0.71901  1.0000
  C   C2481     1.0  0.45170  0.91686  0.49180  1.0000
  C   C2482     1.0  0.44117  0.90733  0.49368  1.0000
  C   C2483     1.0  0.42696  0.91368  0.48863  1.0000
  H   H2969     1.0  0.41616  0.94488  0.67697  1.0000
  H   H2970     1.0  0.56340  0.59702  0.97411  1.0000
  H   H2971     1.0  0.46248  0.91192  0.49593  1.0000
  H   H2972     1.0  0.56582  0.91694  0.67028  1.0000
  H   H2973     1.0  0.57915  0.69012  0.90290  1.0000
  N   N164      1.0  0.53642  0.87829  0.52606  1.0000
  C   C2484     1.0  0.52445  0.92814  0.53979  1.0000
  C   C2485     1.0  0.52273  0.92744  0.55579  1.0000
  C   C2486     1.0  0.53563  0.92708  0.56173  1.0000
  C   C2487     1.0  0.55043  0.92710  0.55173  1.0000
  C   C2488     1.0  0.55201  0.92830  0.53565  1.0000
  C   C2489     1.0  0.53903  0.92908  0.52964  1.0000
  H   H2974     1.0  0.51150  0.92667  0.56374  1.0000
  H   H2975     1.0  0.53430  0.92603  0.57415  1.0000
  H   H2976     1.0  0.56343  0.92833  0.52784  1.0000
  H   H2977     1.0  0.54052  0.92979  0.51727  1.0000
  C   C2490     1.0  0.55497  0.94707  0.67220  1.0000
  H   H2978     1.0  0.56733  0.90252  0.73934  1.0000
  H   H2979     1.0  0.54843  0.73723  0.89898  1.0000
  H   H2980     1.0  0.47045  0.56180  0.97201  1.0000
  C   C2491     1.0  0.55830  0.73733  0.88851  1.0000
  H   H2981     1.0  0.51305  0.97351  0.58399  1.0000
  H   H2982     1.0  0.44097  0.97002  0.49456  1.0000
  C   C2492     1.0  0.52019  0.88099  0.53571  1.0000
  C   C2493     1.0  0.57039  0.89937  0.72810  1.0000
  H   H2983     1.0  0.56469  0.66718  0.97510  1.0000
  H   H2984     1.0  0.52391  0.96356  0.55953  1.0000
  S   S684      1.0  0.40527  0.92039  0.73366  1.0000
  H   H2985     1.0  0.49744  0.52866  0.95509  1.0000
  H   H2986     1.0  0.51126  0.88295  0.52868  1.0000
  C   C2494     1.0  0.41501  0.94843  0.72530  1.0000
  H   H2987     1.0  0.48739  0.56919  0.96113  1.0000
  C   C2495     1.0  0.41515  0.49633  0.94500  1.0000
  C   C2496     1.0  0.57573  0.89160  0.69917  1.0000
  H   H2988     1.0  0.53044  0.89485  0.50538  1.0000
  H   H2989     1.0  0.41012  0.50878  0.94297  1.0000
  C   C2497     1.0  0.50887  0.54328  0.96971  1.0000
  C   C2498     1.0  0.46884  0.58170  0.93869  1.0000
  C   C2499     1.0  0.45813  0.58924  0.95008  1.0000
  C   C2500     1.0  0.46230  0.60036  0.95536  1.0000
  C   C2501     1.0  0.47724  0.60390  0.94942  1.0000
  C   C2502     1.0  0.48789  0.59649  0.93790  1.0000
  C   C2503     1.0  0.48363  0.58553  0.93246  1.0000
  H   H2990     1.0  0.44673  0.58636  0.95496  1.0000
  H   H2991     1.0  0.45397  0.60611  0.96419  1.0000
  H   H2992     1.0  0.49936  0.59924  0.93315  1.0000
  H   H2993     1.0  0.49195  0.57979  0.92359  1.0000
  H   H2994     1.0  0.46031  0.94709  0.53141  1.0000
  C   C2504     1.0  0.56746  0.73794  0.86108  1.0000
  H   H2995     1.0  0.56821  0.71053  0.85890  1.0000
  H   H2996     1.0  0.53962  0.97584  0.63555  1.0000
  H   H2997     1.0  0.55418  0.95800  0.67586  1.0000
  H   H2998     1.0  0.57851  0.72934  0.86315  1.0000
  C   C2505     1.0  0.42338  0.92962  0.48170  1.0000
  H   H2999     1.0  0.58576  0.84968  0.89924  1.0000
  H   H3000     1.0  0.58607  0.55605  0.95524  1.0000
  H   H3001     1.0  0.53666  0.85431  0.52690  1.0000
  C   C2506     1.0  0.57512  0.93693  0.69393  1.0000
  H   H3002     1.0  0.58962  0.68217  0.95209  1.0000
  H   H3003     1.0  0.56151  0.85225  0.53114  1.0000
  C   C2507     1.0  0.56167  0.90146  0.70461  1.0000
  H   H3004     1.0  0.44393  0.89502  0.49917  1.0000
  C   C2508     1.0  0.47516  0.96237  0.53022  1.0000
  N   N165      1.0  0.58792  0.86733  0.86813  1.0000
  C   C2509     1.0  0.53365  0.96793  0.48841  1.0000
  H   H3005     1.0  0.58669  0.67773  0.93504  1.0000
  C   C2510     1.0  0.57322  0.57688  0.96374  1.0000
  C   C2511     1.0  0.57861  0.95070  0.65308  1.0000
  C   C2512     1.0  0.54792  0.87513  0.53597  1.0000
  H   H3006     1.0  0.56652  0.86402  0.88516  1.0000
  H   H3007     1.0  0.57766  0.88834  0.68807  1.0000
  H   H3008     1.0  0.56308  0.94266  0.69794  1.0000
  H   H3009     1.0  0.39731  0.97197  0.75877  1.0000
  H   H3010     1.0  0.53634  0.74655  0.86118  1.0000
  C   C2513     1.0  0.57351  0.65345  0.95025  1.0000
  H   H3011     1.0  0.57833  0.84660  0.87814  1.0000
  H   H3012     1.0  0.53543  0.90317  0.51847  1.0000
  H   H3013     1.0  0.57003  0.74972  0.85898  1.0000
  H   H3014     1.0  0.52936  0.86821  0.51088  1.0000
  C   C2514     1.0  0.47686  0.97799  0.52760  1.0000
  C   C2515     1.0  0.53831  0.89253  0.51361  1.0000
  H   H3015     1.0  0.50149  0.95972  0.54207  1.0000
  C   C2516     1.0  0.40808  0.97533  0.75917  1.0000
  H   H3016     1.0  0.54989  0.86336  0.51002  1.0000
  C   C2517     1.0  0.55843  0.88392  0.55343  1.0000
  C   C2518     1.0  0.55897  0.69417  0.92161  1.0000
  H   H3017     1.0  0.51847  0.87085  0.54571  1.0000
  H   H3018     1.0  0.53145  0.72345  0.89843  1.0000
  S   S685      1.0  0.41404  0.90149  0.49075  1.0000
  C   C2519     1.0  0.55029  0.71988  0.87788  1.0000
  Fe  Fe343     1.0  0.58259  0.86184  0.79447  1.0000
  H   H3019     1.0  0.56426  0.92931  0.65139  1.0000
  H   H3020     1.0  0.48534  0.90868  0.70976  1.0000
  S   S686      1.0  0.55815  0.95497  0.58409  1.0000
  H   H3021     1.0  0.41065  0.96959  0.77096  1.0000
  C   C2520     1.0  0.48505  0.92073  0.67977  1.0000
  C   C2521     1.0  0.58711  0.88541  0.70824  1.0000
  C   C2522     1.0  0.55848  0.70857  0.86865  1.0000
  C   C2523     1.0  0.57673  0.65962  0.97315  1.0000
  S   S687      1.0  0.54774  0.65078  0.91481  1.0000
  C   C2524     1.0  0.57438  0.85958  0.87481  1.0000
  Fe  Fe344     1.0  0.54069  0.60204  0.95472  1.0000
  C   C2525     1.0  0.47351  0.91211  0.70687  1.0000
  C   C2526     1.0  0.56894  0.68599  0.91037  1.0000
  C   C2527     1.0  0.58105  0.93407  0.67854  1.0000
  H   H3022     1.0  0.53923  0.67902  0.88731  1.0000
  C   C2528     1.0  0.54082  0.97811  0.55031  1.0000
  C   C2529     1.0  0.51741  0.55283  0.95697  1.0000
  H   H3023     1.0  0.49369  0.54908  0.94568  1.0000
  H   H3024     1.0  0.57806  0.65351  0.93754  1.0000
  H   H3025     1.0  0.39798  0.49090  0.93622  1.0000
  C   C2530     1.0  0.54211  0.69043  0.88450  1.0000
  C   C2531     1.0  0.55227  0.66705  0.91809  1.0000
  H   H3026     1.0  0.52478  0.69802  0.90388  1.0000
  C   C2532     1.0  0.56010  0.86137  0.53717  1.0000
  C   C2533     1.0  0.53396  0.70117  0.89383  1.0000
  C   C2534     1.0  0.46121  0.95913  0.52953  1.0000
  H   H3027     1.0  0.39882  0.59720  0.96954  1.0000
  C   C2535     1.0  0.54086  0.54260  0.96749  1.0000
  C   C2536     1.0  0.58151  0.88433  0.86292  1.0000
  Fe  Fe345     1.0  0.53500  0.63543  0.93577  1.0000
  H   H3028     1.0  0.44472  0.91425  0.70784  1.0000
  C   C2537     1.0  0.53795  0.71567  0.89063  1.0000
  C   C2538     1.0  0.53784  0.97382  0.49898  1.0000
  H   H3029     1.0  0.53973  0.96638  0.51015  1.0000
  Fe  Fe346     1.0  0.58068  0.95272  0.59079  1.0000
  C   C2539     1.0  0.47595  0.93877  0.69706  1.0000
  C   C2540     1.0  0.57104  0.85910  0.54627  1.0000
  H   H3030     1.0  0.54803  0.95043  0.66296  1.0000
  C   C2541     1.0  0.57024  0.87038  0.55432  1.0000
  S   S688      1.0  0.55627  0.57790  0.95745  1.0000
  H   H3031     1.0  0.46374  0.94875  0.66857  1.0000
  H   H3032     1.0  0.48240  0.91146  0.67576  1.0000
  C   C2542     1.0  0.58260  0.67649  0.94796  1.0000
  C   C2543     1.0  0.57370  0.58805  0.97140  1.0000
  C   C2544     1.0  0.54740  0.88625  0.54448  1.0000
  H   H3033     1.0  0.47675  0.94895  0.68698  1.0000
  H   H3034     1.0  0.41982  0.92339  0.70006  1.0000
  H   H3035     1.0  0.48731  0.93537  0.70081  1.0000
  N   N166      1.0  0.47256  0.92549  0.69313  1.0000
  C   C2545     1.0  0.45451  0.94280  0.67561  1.0000
  C   C2546     1.0  0.44785  0.49453  0.91398  1.0000
  H   H3036     1.0  0.54889  0.93910  0.68224  1.0000
  S   S689      1.0  0.39226  0.57625  0.92288  1.0000
  H   H3037     1.0  0.53801  0.69486  0.93999  1.0000
  H   H3038     1.0  0.55299  0.54264  0.96673  1.0000
  H   H3039     1.0  0.51535  0.97137  0.53080  1.0000
  H   H3040     1.0  0.39120  0.95533  0.49238  1.0000
  H   H3041     1.0  0.48664  0.93067  0.66954  1.0000
  C   C2547     1.0  0.44413  0.92351  0.69745  1.0000
  C   C2548     1.0  0.42962  0.92868  0.69310  1.0000
  C   C2549     1.0  0.52248  0.97805  0.57521  1.0000
  H   H3042     1.0  0.43698  0.50320  0.91323  1.0000
  H   H3043     1.0  0.56500  0.73722  0.85002  1.0000
  H   H3044     1.0  0.56088  0.68549  0.86500  1.0000
  H   H3045     1.0  0.53006  0.74775  0.88143  1.0000
  C   C2550     1.0  0.57116  0.92574  0.66066  1.0000
  H   H3046     1.0  0.46499  0.91514  0.71760  1.0000
  N   N167      1.0  0.57151  0.93933  0.66645  1.0000
  Fe  Fe347     1.0  0.51748  0.91446  0.47963  1.0000
  H   H3047     1.0  0.51721  0.89159  0.54067  1.0000
  H   H3048     1.0  0.53236  0.95600  0.49154  1.0000
  C   C2551     1.0  0.54247  0.67503  0.92957  1.0000
  H   H3049     1.0  0.56704  0.86176  0.86610  1.0000
  S   S690      1.0  0.57149  0.94480  0.61642  1.0000
  C   C2552     1.0  0.52855  0.97245  0.56147  1.0000
  C   C2553     1.0  0.55437  0.69409  0.87199  1.0000
  H   H3050     1.0  0.47131  0.90157  0.70466  1.0000
  H   H3051     1.0  0.55261  0.90581  0.69786  1.0000
  Fe  Fe348     1.0  0.52582  0.62890  0.97116  1.0000
  H   H3052     1.0  0.57308  0.66647  0.89958  1.0000
  H   H3053     1.0  0.53853  0.89697  0.54413  1.0000
  N   N168      1.0  0.58349  0.65983  0.95626  1.0000
  H   H3054     1.0  0.54280  0.75979  0.86826  1.0000
  C   C2554     1.0  0.50451  0.96798  0.53068  1.0000
  H   H3055     1.0  0.53934  0.56016  0.94630  1.0000
  H   H3056     1.0  0.55792  0.89277  0.55959  1.0000
  C   C2555     1.0  0.44817  0.93276  0.48463  1.0000
  H   H3057     1.0  0.57466  0.88971  0.87304  1.0000
  C   C2556     1.0  0.43004  0.97867  0.49239  1.0000
  H   H3058     1.0  0.57274  0.64125  0.95650  1.0000
  H   H3059     1.0  0.40027  0.90260  0.64419  1.0000
  C   C2557     1.0  0.42868  0.49037  0.95110  1.0000
  H   H3060     1.0  0.43761  0.96871  0.52616  1.0000
  N   N169      1.0  0.49145  0.98186  0.52827  1.0000
  C   C2558     1.0  0.44846  0.97129  0.52648  1.0000
  H   H3061     1.0  0.57882  0.86869  0.56123  1.0000
  C   C2559     1.0  0.48314  0.56046  0.97146  1.0000
  C   C2560     1.0  0.58485  0.88919  0.72296  1.0000
  H   H3062     1.0  0.58164  0.86535  0.74657  1.0000
  H   H3063     1.0  0.48368  0.98227  0.55277  1.0000
  C   C2561     1.0  0.47415  0.48735  0.91834  1.0000
  H   H3064     1.0  0.39283  0.60502  0.95126  1.0000
  H   H3065     1.0  0.42231  0.97210  0.49047  1.0000
  H   H3066     1.0  0.46395  0.97930  0.48107  1.0000
  C   C2562     1.0  0.58472  0.93231  0.70480  1.0000
  S   S691      1.0  0.58811  0.74308  0.90383  1.0000
  S   S692      1.0  0.59015  0.82454  0.84820  1.0000
  C   C2563     1.0  0.53314  0.55249  0.95595  1.0000
  N   N170      1.0  0.49207  0.54429  0.97073  1.0000
  C   C2564     1.0  0.58753  0.58751  0.97574  1.0000
  H   H3067     1.0  0.58029  0.84858  0.54700  1.0000
  H   H3068     1.0  0.58339  0.88859  0.75475  1.0000
  H   H3069     1.0  0.59040  0.94524  0.64687  1.0000
  H   H3070     1.0  0.59006  0.86287  0.84555  1.0000
  H   H3071     1.0  0.58418  0.66383  0.97828  1.0000
  H   H3072     1.0  0.39066  0.61782  0.96392  1.0000
  C   C2565     1.0  0.64883  0.16808  0.98992  1.0000
  Fe  Fe349     1.0  0.67680  0.42061  0.05496  1.0000
  S   S693      1.0  0.65370  0.43073  0.06928  1.0000
  S   S694      1.0  0.67961  0.42730  0.02859  1.0000
  Fe  Fe350     1.0  0.69010  0.40331  0.08409  1.0000
  S   S695      1.0  0.66794  0.41212  0.10046  1.0000
  S   S696      1.0  0.71086  0.38544  0.09197  1.0000
  Fe  Fe351     1.0  0.65582  0.40676  0.08483  1.0000
  Fe  Fe352     1.0  0.66813  0.43531  0.08331  1.0000
  S   S697      1.0  0.65992  0.45803  0.09174  1.0000
  S   S698      1.0  0.67803  0.39622  0.06962  1.0000
  S   S699      1.0  0.69127  0.42694  0.06785  1.0000
  H   H3073     1.0  0.72750  0.23555  0.08860  1.0000
  C   C2566     1.0  0.68930  0.11469  0.37291  1.0000
  C   C2567     1.0  0.61744  0.40558  0.05338  1.0000
  C   C2568     1.0  0.67104  0.14621  0.39163  1.0000
  H   H3074     1.0  0.63833  0.42984  0.01503  1.0000
  N   N171      1.0  0.68041  0.08268  0.16937  1.0000
  H   H3075     1.0  0.78279  0.25740  0.28638  1.0000
  C   C2569     1.0  0.78944  0.30312  0.17586  1.0000
  S   S700      1.0  0.74335  0.24289  0.00872  1.0000
  C   C2570     1.0  0.63373  0.11990  0.18629  1.0000
  H   H3076     1.0  0.70540  0.20358  0.10318  1.0000
  C   C2571     1.0  0.76244  0.14159  0.30358  1.0000
  H   H3077     1.0  0.62563  0.22587  0.09430  1.0000
  H   H3078     1.0  0.71992  0.24155  0.03870  1.0000
  N   N172      1.0  0.73971  0.15279  0.00018  1.0000
  H   H3079     1.0  0.77272  0.33680  0.21727  1.0000
  H   H3080     1.0  0.77478  0.13249  0.34076  1.0000
  Fe  Fe353     1.0  0.76555  0.18160  0.34952  1.0000
  S   S701      1.0  0.77094  0.19558  0.32493  1.0000
  S   S702      1.0  0.75742  0.15886  0.35523  1.0000
  H   H3081     1.0  0.64292  0.13171  0.99340  1.0000
  H   H3082     1.0  0.78772  0.27152  0.21303  1.0000
  Fe  Fe354     1.0  0.76167  0.21658  0.33572  1.0000
  S   S703      1.0  0.74626  0.23855  0.32502  1.0000
  C   C2572     1.0  0.77214  0.32461  0.22189  1.0000
  S   S704      1.0  0.75403  0.20275  0.35999  1.0000
  C   C2573     1.0  0.62350  0.31750  0.11463  1.0000
  H   H3083     1.0  0.62291  0.25321  0.10953  1.0000
  H   H3084     1.0  0.65483  0.27148  0.14509  1.0000
  H   H3085     1.0  0.72185  0.21783  0.00447  1.0000
  C   C2574     1.0  0.60826  0.02537  0.31186  1.0000
  C   C2575     1.0  0.64523  0.37890  0.07174  1.0000
  S   S705      1.0  0.60435  0.03432  0.37400  1.0000
  H   H3086     1.0  0.60572  0.14063  0.18686  1.0000
  C   C2576     1.0  0.67168  0.47638  0.01698  1.0000
  S   S706      1.0  0.77002  0.29919  0.31861  1.0000
  C   C2577     1.0  0.62436  0.41239  0.02501  1.0000
  H   H3087     1.0  0.66215  0.30615  0.09869  1.0000
  H   H3088     1.0  0.70986  0.47521  0.07796  1.0000
  C   C2578     1.0  0.68524  0.46524  0.99438  1.0000
  C   C2579     1.0  0.61652  0.24361  0.11549  1.0000
  Fe  Fe355     1.0  0.76423  0.22986  0.09958  1.0000
  H   H3089     1.0  0.61826  0.14963  0.00505  1.0000
  S   S707      1.0  0.74728  0.25243  0.10293  1.0000
  H   H3090     1.0  0.59485  0.98675  0.40178  1.0000
  Fe  Fe356     1.0  0.76308  0.19581  0.10707  1.0000
  S   S708      1.0  0.74356  0.18286  0.11807  1.0000
  C   C2580     1.0  0.64441  0.14673  0.01346  1.0000
  S   S709      1.0  0.75776  0.21551  0.08703  1.0000
  Fe  Fe357     1.0  0.72224  0.13275  0.07652  1.0000
  S   S710      1.0  0.70091  0.15189  0.07404  1.0000
  S   S711      1.0  0.74551  0.13652  0.07679  1.0000
  Fe  Fe358     1.0  0.70617  0.10783  0.07662  1.0000
  S   S712      1.0  0.68309  0.12454  0.07444  1.0000
  S   S713      1.0  0.71135  0.08211  0.07780  1.0000
  Fe  Fe359     1.0  0.69802  0.14010  0.05665  1.0000
  S   S714      1.0  0.69289  0.15417  0.03329  1.0000
  Fe  Fe360     1.0  0.68789  0.13478  0.09201  1.0000
  C   C2581     1.0  0.64779  0.14238  0.98786  1.0000
  S   S715      1.0  0.72073  0.12252  0.05740  1.0000
  S   S716      1.0  0.70961  0.11651  0.09589  1.0000
  Fe  Fe361     1.0  0.72353  0.32643  0.16949  1.0000
  S   S717      1.0  0.72272  0.30863  0.15711  1.0000
  S   S718      1.0  0.71039  0.35152  0.16306  1.0000
  Fe  Fe362     1.0  0.73979  0.30217  0.19430  1.0000
  S   S719      1.0  0.73952  0.28244  0.18408  1.0000
  S   S720      1.0  0.75065  0.29345  0.21588  1.0000
  Fe  Fe363     1.0  0.74715  0.29782  0.16086  1.0000
  S   S721      1.0  0.76690  0.28535  0.14454  1.0000
  Fe  Fe364     1.0  0.71515  0.29471  0.18125  1.0000
  S   S722      1.0  0.69496  0.28254  0.18753  1.0000
  S   S723      1.0  0.74899  0.31697  0.17100  1.0000
  S   S724      1.0  0.71440  0.31309  0.19370  1.0000
  Fe  Fe365     1.0  0.70784  0.99245  0.15882  1.0000
  S   S725      1.0  0.71462  0.01400  0.14203  1.0000
  H   H3091     1.0  0.63937  0.15483  0.02166  1.0000
  Fe  Fe366     1.0  0.69411  0.00871  0.18606  1.0000
  S   S726      1.0  0.70029  0.03113  0.17158  1.0000
  S   S727      1.0  0.68241  0.01087  0.21080  1.0000
  Fe  Fe367     1.0  0.69106  0.02663  0.15336  1.0000
  S   S728      1.0  0.67568  0.04875  0.14290  1.0000
  Fe  Fe368     1.0  0.72305  0.01667  0.16173  1.0000
  S   S729      1.0  0.74627  0.02301  0.15709  1.0000
  S   S730      1.0  0.68325  0.00483  0.16842  1.0000
  S   S731      1.0  0.71797  0.99436  0.17795  1.0000
  C   C2582     1.0  0.60925  0.13276  0.17842  1.0000
  Fe  Fe369     1.0  0.76250  0.03642  0.24938  1.0000
  S   S732      1.0  0.76432  0.06077  0.23599  1.0000
  S   S733      1.0  0.74458  0.03326  0.27187  1.0000
  Fe  Fe370     1.0  0.76273  0.05242  0.21573  1.0000
  S   S734      1.0  0.74566  0.06629  0.20064  1.0000
  S   S735      1.0  0.63550  0.39476  0.09557  1.0000
  S   S736      1.0  0.75894  0.02881  0.22953  1.0000
  C   C2583     1.0  0.66868  0.36745  0.10938  1.0000
  Fe  Fe371     1.0  0.72010  0.09762  0.31327  1.0000
  S   S737      1.0  0.71589  0.12142  0.29756  1.0000
  S   S738      1.0  0.74442  0.08272  0.30845  1.0000
  Fe  Fe372     1.0  0.68702  0.10264  0.33305  1.0000
  S   S739      1.0  0.68011  0.12697  0.31903  1.0000
  S   S740      1.0  0.67060  0.09172  0.35431  1.0000
  Fe  Fe373     1.0  0.69286  0.11643  0.29823  1.0000
  S   S741      1.0  0.68398  0.12294  0.27602  1.0000
  Fe  Fe374     1.0  0.70378  0.12974  0.31974  1.0000
  S   S742      1.0  0.70658  0.15257  0.32281  1.0000
  S   S743      1.0  0.69805  0.09180  0.31214  1.0000
  S   S744      1.0  0.70970  0.10625  0.33553  1.0000
  H   H3092     1.0  0.66244  0.29244  0.12591  1.0000
  H   H3093     1.0  0.60910  0.09321  0.31097  1.0000
  C   C2584     1.0  0.66318  0.11673  0.26312  1.0000
  C   C2585     1.0  0.67012  0.11283  0.27606  1.0000
  H   H3094     1.0  0.66553  0.12668  0.25374  1.0000
  C   C2586     1.0  0.74495  0.04634  0.28257  1.0000
  C   C2587     1.0  0.75800  0.05297  0.27915  1.0000
  C   C2588     1.0  0.75800  0.06383  0.28746  1.0000
  C   C2589     1.0  0.74481  0.06832  0.29890  1.0000
  C   C2590     1.0  0.73186  0.06153  0.30242  1.0000
  C   C2591     1.0  0.73196  0.05050  0.29429  1.0000
  H   H3095     1.0  0.76817  0.04962  0.27023  1.0000
  H   H3096     1.0  0.76814  0.06885  0.28484  1.0000
  H   H3097     1.0  0.72193  0.06449  0.31167  1.0000
  H   H3098     1.0  0.72196  0.04529  0.29701  1.0000
  C   C2592     1.0  0.66782  0.02826  0.20928  1.0000
  C   C2593     1.0  0.66202  0.03632  0.22151  1.0000
  C   C2594     1.0  0.65122  0.05083  0.21957  1.0000
  C   C2595     1.0  0.66250  0.03457  0.19533  1.0000
  H   H3099     1.0  0.66605  0.03148  0.23235  1.0000
  H   H3100     1.0  0.60434  0.12227  0.18483  1.0000
  C   C2596     1.0  0.74601  0.03529  0.16899  1.0000
  C   C2597     1.0  0.75968  0.03425  0.17378  1.0000
  C   C2598     1.0  0.75959  0.04383  0.18349  1.0000
  C   C2599     1.0  0.74598  0.05481  0.18799  1.0000
  C   C2600     1.0  0.73242  0.05619  0.18284  1.0000
  C   C2601     1.0  0.73239  0.04629  0.17350  1.0000
  H   H3101     1.0  0.77027  0.02582  0.17026  1.0000
  H   H3102     1.0  0.77011  0.04277  0.18738  1.0000
  H   H3103     1.0  0.72193  0.06473  0.18629  1.0000
  H   H3104     1.0  0.72200  0.04757  0.16939  1.0000
  C   C2602     1.0  0.69263  0.27387  0.17349  1.0000
  C   C2603     1.0  0.70310  0.27414  0.15893  1.0000
  C   C2604     1.0  0.68021  0.26622  0.17717  1.0000
  H   H3105     1.0  0.71287  0.27978  0.15607  1.0000
  H   H3106     1.0  0.67220  0.26582  0.18850  1.0000
  C   C2605     1.0  0.70113  0.07285  0.09568  1.0000
  C   C2606     1.0  0.70472  0.05652  0.10032  1.0000
  C   C2607     1.0  0.69692  0.04905  0.11486  1.0000
  C   C2608     1.0  0.68540  0.05790  0.12467  1.0000
  C   C2609     1.0  0.68172  0.07424  0.11998  1.0000
  C   C2610     1.0  0.68971  0.08173  0.10556  1.0000
  H   H3107     1.0  0.71349  0.04965  0.09264  1.0000
  H   H3108     1.0  0.69950  0.03642  0.11827  1.0000
  H   H3109     1.0  0.67273  0.08110  0.12747  1.0000
  H   H3110     1.0  0.68683  0.09436  0.10197  1.0000
  C   C2611     1.0  0.67880  0.10402  0.18334  1.0000
  C   C2612     1.0  0.66608  0.17156  0.09602  1.0000
  C   C2613     1.0  0.66281  0.18788  0.09416  1.0000
  H   H3111     1.0  0.66880  0.16652  0.08589  1.0000
  H   H3112     1.0  0.66327  0.19535  0.08257  1.0000
  C   C2614     1.0  0.75142  0.26055  0.11628  1.0000
  C   C2615     1.0  0.74243  0.27504  0.11923  1.0000
  C   C2616     1.0  0.74667  0.28238  0.12862  1.0000
  C   C2617     1.0  0.75998  0.27528  0.13493  1.0000
  C   C2618     1.0  0.76858  0.26049  0.13251  1.0000
  C   C2619     1.0  0.76423  0.25306  0.12330  1.0000
  H   H3113     1.0  0.73247  0.28083  0.11387  1.0000
  H   H3114     1.0  0.74007  0.29387  0.13033  1.0000
  C   C2620     1.0  0.62549  0.41639  0.05397  1.0000
  C   C2621     1.0  0.61741  0.23735  0.09134  1.0000
  C   C2622     1.0  0.74410  0.16950  0.10712  1.0000
  C   C2623     1.0  0.73051  0.16439  0.10832  1.0000
  C   C2624     1.0  0.73081  0.15414  0.09912  1.0000
  C   C2625     1.0  0.74478  0.14880  0.08894  1.0000
  C   C2626     1.0  0.75839  0.15370  0.08799  1.0000
  C   C2627     1.0  0.75800  0.16417  0.09690  1.0000
  H   H3115     1.0  0.71973  0.16846  0.11624  1.0000
  H   H3116     1.0  0.72027  0.15034  0.09997  1.0000
  H   H3117     1.0  0.76925  0.14951  0.08021  1.0000
  H   H3118     1.0  0.76855  0.16794  0.09599  1.0000
  H   H3119     1.0  0.72537  0.12937  0.99904  1.0000
  H   H3120     1.0  0.78523  0.14710  0.29658  1.0000
  C   C2628     1.0  0.76341  0.31791  0.21589  1.0000
  C   C2629     1.0  0.76222  0.30231  0.22211  1.0000
  C   C2630     1.0  0.77021  0.29338  0.23400  1.0000
  N   N173      1.0  0.68591  0.34442  0.98095  1.0000
  H   H3121     1.0  0.75901  0.16458  0.98867  1.0000
  H   H3122     1.0  0.75734  0.32491  0.20672  1.0000
  H   H3123     1.0  0.70127  0.31646  0.99859  1.0000
  C   C2631     1.0  0.71137  0.30301  0.98129  1.0000
  H   H3124     1.0  0.71457  0.23964  0.10629  1.0000
  C   C2632     1.0  0.68497  0.31861  0.15056  1.0000
  S   S745      1.0  0.67039  0.14138  0.11333  1.0000
  N   N174      1.0  0.67009  0.47417  0.00200  1.0000
  Fe  Fe375     1.0  0.62793  0.09137  0.25247  1.0000
  C   C2633     1.0  0.66408  0.18654  0.98994  1.0000
  C   C2634     1.0  0.77843  0.25921  0.17977  1.0000
  C   C2635     1.0  0.63415  0.35772  0.07121  1.0000
  S   S746      1.0  0.63441  0.21486  0.14889  1.0000
  Fe  Fe376     1.0  0.78341  0.20975  0.07641  1.0000
  C   C2636     1.0  0.74378  0.15717  0.34557  1.0000
  C   C2637     1.0  0.73582  0.17026  0.33633  1.0000
  C   C2638     1.0  0.72461  0.16862  0.32923  1.0000
  C   C2639     1.0  0.72155  0.15387  0.33100  1.0000
  C   C2640     1.0  0.72980  0.14070  0.33993  1.0000
  C   C2641     1.0  0.74071  0.14240  0.34737  1.0000
  H   H3125     1.0  0.73802  0.18170  0.33494  1.0000
  H   H3126     1.0  0.71819  0.17886  0.32241  1.0000
  H   H3127     1.0  0.72746  0.12930  0.34146  1.0000
  H   H3128     1.0  0.74668  0.13225  0.35467  1.0000
  S   S747      1.0  0.61672  0.07458  0.24785  1.0000
  C   C2642     1.0  0.61662  0.40327  0.03881  1.0000
  H   H3129     1.0  0.71513  0.01516  0.20695  1.0000
  H   H3130     1.0  0.78982  0.28640  0.47645  1.0000
  H   H3131     1.0  0.77503  0.25629  0.17061  1.0000
  H   H3132     1.0  0.75704  0.15103  0.30977  1.0000
  C   C2643     1.0  0.75306  0.25510  0.32392  1.0000
  C   C2644     1.0  0.76904  0.25519  0.31857  1.0000
  C   C2645     1.0  0.77430  0.26878  0.31688  1.0000
  C   C2646     1.0  0.76360  0.28214  0.32093  1.0000
  C   C2647     1.0  0.74766  0.28198  0.32657  1.0000
  C   C2648     1.0  0.74235  0.26854  0.32781  1.0000
  H   H3133     1.0  0.77731  0.24492  0.31538  1.0000
  H   H3134     1.0  0.78668  0.30213  0.16503  1.0000
  H   H3135     1.0  0.73937  0.29234  0.32966  1.0000
  H   H3136     1.0  0.72997  0.26851  0.33187  1.0000
  C   C2649     1.0  0.60739  0.12805  0.28514  1.0000
  S   S748      1.0  0.65585  0.38586  0.99809  1.0000
  H   H3137     1.0  0.65330  0.34559  0.11023  1.0000
  H   H3138     1.0  0.69409  0.08392  0.14556  1.0000
  H   H3139     1.0  0.63947  0.43325  0.04069  1.0000
  H   H3140     1.0  0.71303  0.21207  0.11411  1.0000
  H   H3141     1.0  0.77535  0.27657  0.08836  1.0000
  H   H3142     1.0  0.77118  0.24185  0.12109  1.0000
  H   H3143     1.0  0.62617  0.19128  0.18243  1.0000
  C   C2650     1.0  0.65119  0.09425  0.27383  1.0000
  C   C2651     1.0  0.71490  0.23912  0.09410  1.0000
  S   S749      1.0  0.65542  0.21487  0.10480  1.0000
  C   C2652     1.0  0.62322  0.15551  0.20664  1.0000
  N   N175      1.0  0.64151  0.15440  0.99750  1.0000
  H   H3144     1.0  0.66574  0.37518  0.09829  1.0000
  H   H3145     1.0  0.74697  0.23475  0.15155  1.0000
  C   C2653     1.0  0.68960  0.12505  0.00108  1.0000
  C   C2654     1.0  0.69026  0.14084  0.99539  1.0000
  C   C2655     1.0  0.69120  0.14967  0.00538  1.0000
  C   C2656     1.0  0.69159  0.14279  0.02110  1.0000
  C   C2657     1.0  0.69124  0.12693  0.02677  1.0000
  C   C2658     1.0  0.69015  0.11812  0.01679  1.0000
  H   H3146     1.0  0.67065  0.19046  0.99588  1.0000
  H   H3147     1.0  0.69171  0.16185  0.00088  1.0000
  H   H3148     1.0  0.69169  0.12146  0.03887  1.0000
  H   H3149     1.0  0.68973  0.10589  0.02129  1.0000
  H   H3150     1.0  0.66533  0.08861  0.15295  1.0000
  C   C2659     1.0  0.75809  0.23441  0.01946  1.0000
  C   C2660     1.0  0.78415  0.27353  0.39860  1.0000
  H   H3151     1.0  0.61078  0.23598  0.08336  1.0000
  H   H3152     1.0  0.62908  0.10922  0.19249  1.0000
  C   C2661     1.0  0.76669  0.23024  0.04363  1.0000
  C   C2662     1.0  0.75595  0.23804  0.03401  1.0000
  C   C2663     1.0  0.66543  0.47161  0.04577  1.0000
  C   C2664     1.0  0.72538  0.00647  0.20995  1.0000
  H   H3153     1.0  0.76493  0.23303  0.05487  1.0000
  H   H3154     1.0  0.74586  0.24675  0.03795  1.0000
  C   C2665     1.0  0.67519  0.15787  0.39596  1.0000
  S   S750      1.0  0.61663  0.07076  0.33872  1.0000
  C   C2666     1.0  0.76134  0.27370  0.36261  1.0000
  H   H3155     1.0  0.62650  0.38355  0.01844  1.0000
  C   C2667     1.0  0.63068  0.07732  0.34384  1.0000
  C   C2668     1.0  0.63387  0.07231  0.35885  1.0000
  C   C2669     1.0  0.64601  0.07695  0.36206  1.0000
  C   C2670     1.0  0.65505  0.08650  0.35026  1.0000
  C   C2671     1.0  0.65178  0.09157  0.33530  1.0000
  C   C2672     1.0  0.63961  0.08703  0.33213  1.0000
  H   H3156     1.0  0.65856  0.09907  0.32619  1.0000
  H   H3157     1.0  0.63718  0.09099  0.32051  1.0000
  H   H3158     1.0  0.69557  0.06476  0.15741  1.0000
  H   H3159     1.0  0.69195  0.11004  0.38479  1.0000
  C   C2673     1.0  0.62370  0.35955  0.08545  1.0000
  H   H3160     1.0  0.61570  0.36929  0.03071  1.0000
  C   C2674     1.0  0.70997  0.37553  0.11173  1.0000
  C   C2675     1.0  0.72167  0.36221  0.11545  1.0000
  C   C2676     1.0  0.72159  0.35437  0.13114  1.0000
  C   C2677     1.0  0.71004  0.36009  0.14322  1.0000
  C   C2678     1.0  0.69825  0.37332  0.13949  1.0000
  C   C2679     1.0  0.69807  0.38086  0.12378  1.0000
  H   H3161     1.0  0.73090  0.35800  0.10617  1.0000
  H   H3162     1.0  0.73074  0.34420  0.13392  1.0000
  H   H3163     1.0  0.68923  0.37770  0.14882  1.0000
  H   H3164     1.0  0.68888  0.39094  0.12104  1.0000
  H   H3165     1.0  0.73887  0.06104  0.09647  1.0000
  C   C2680     1.0  0.68805  0.46775  0.08300  1.0000
  H   H3166     1.0  0.61536  0.35212  0.09080  1.0000
  H   H3167     1.0  0.66752  0.41455  0.98483  1.0000
  H   H3168     1.0  0.77631  0.08710  0.29852  1.0000
  C   C2681     1.0  0.78798  0.25492  0.27449  1.0000
  H   H3169     1.0  0.69356  0.45666  0.07971  1.0000
  H   H3170     1.0  0.60632  0.17567  0.19798  1.0000
  Fe  Fe377     1.0  0.63247  0.23924  0.15145  1.0000
  H   H3171     1.0  0.62632  0.41762  0.06523  1.0000
  C   C2682     1.0  0.66301  0.39724  0.00618  1.0000
  C   C2683     1.0  0.66787  0.41091  0.99713  1.0000
  C   C2684     1.0  0.67324  0.41992  0.00402  1.0000
  C   C2685     1.0  0.67357  0.41541  0.02001  1.0000
  C   C2686     1.0  0.66875  0.40171  0.02899  1.0000
  C   C2687     1.0  0.66358  0.39262  0.02207  1.0000
  H   H3172     1.0  0.59120  0.23141  0.12598  1.0000
  H   H3173     1.0  0.67707  0.43042  0.99694  1.0000
  H   H3174     1.0  0.66890  0.39816  0.04128  1.0000
  H   H3175     1.0  0.65978  0.38211  0.02908  1.0000
  N   N176      1.0  0.74087  0.31674  0.27410  1.0000
  C   C2688     1.0  0.73839  0.32915  0.25988  1.0000
  C   C2689     1.0  0.72835  0.32121  0.28753  1.0000
  C   C2690     1.0  0.75624  0.31657  0.27694  1.0000
  C   C2691     1.0  0.74058  0.30099  0.27271  1.0000
  C   C2692     1.0  0.73683  0.29835  0.25961  1.0000
  C   C2693     1.0  0.74355  0.28775  0.28500  1.0000
  C   C2694     1.0  0.73611  0.28339  0.25898  1.0000
  C   C2695     1.0  0.74266  0.27287  0.28433  1.0000
  C   C2696     1.0  0.73893  0.27070  0.27134  1.0000
  H   H3176     1.0  0.72661  0.33070  0.25750  1.0000
  H   H3177     1.0  0.73917  0.34076  0.26105  1.0000
  H   H3178     1.0  0.74753  0.32645  0.24937  1.0000
  H   H3179     1.0  0.71662  0.32098  0.28612  1.0000
  H   H3180     1.0  0.72788  0.33319  0.28871  1.0000
  H   H3181     1.0  0.73022  0.31316  0.29887  1.0000
  H   H3182     1.0  0.75731  0.32844  0.27703  1.0000
  H   H3183     1.0  0.75837  0.30898  0.28837  1.0000
  H   H3184     1.0  0.76598  0.31237  0.26756  1.0000
  H   H3185     1.0  0.73456  0.30756  0.24953  1.0000
  H   H3186     1.0  0.74634  0.28887  0.29537  1.0000
  H   H3187     1.0  0.73335  0.28170  0.24877  1.0000
  S   S751      1.0  0.78868  0.04420  0.20816  1.0000
  C   C2697     1.0  0.61334  0.11436  0.29511  1.0000
  H   H3188     1.0  0.59674  0.36177  0.00337  1.0000
  C   C2698     1.0  0.74382  0.10364  0.13659  1.0000
  C   C2699     1.0  0.62429  0.15946  0.99885  1.0000
  C   C2700     1.0  0.72490  0.22767  0.16430  1.0000
  H   H3189     1.0  0.66664  0.02839  0.18592  1.0000
  H   H3190     1.0  0.62632  0.08395  0.15751  1.0000
  H   H3191     1.0  0.78346  0.34282  0.37499  1.0000
  C   C2701     1.0  0.78727  0.26873  0.08731  1.0000
  H   H3192     1.0  0.74458  0.26302  0.29407  1.0000
  N   N177      1.0  0.77086  0.25888  0.37010  1.0000
  C   C2702     1.0  0.77828  0.13934  0.29621  1.0000
  N   N178      1.0  0.60668  0.24225  0.10560  1.0000
  C   C2703     1.0  0.63983  0.12327  0.14559  1.0000
  H   H3193     1.0  0.62685  0.15118  0.15656  1.0000
  C   C2704     1.0  0.65139  0.30732  0.10761  1.0000
  C   C2705     1.0  0.73046  0.13597  0.98784  1.0000
  H   H3194     1.0  0.76689  0.23892  0.38874  1.0000
  H   H3195     1.0  0.71857  0.23711  0.13566  1.0000
  H   H3196     1.0  0.77890  0.27952  0.40821  1.0000
  C   C2706     1.0  0.72456  0.24709  0.18406  1.0000
  C   C2707     1.0  0.64904  0.29647  0.15734  1.0000
  C   C2708     1.0  0.63489  0.38070  0.08601  1.0000
  C   C2709     1.0  0.77899  0.30004  0.23990  1.0000
  H   H3197     1.0  0.63027  0.37397  0.03742  1.0000
  H   H3198     1.0  0.60369  0.26331  0.07653  1.0000
  H   H3199     1.0  0.74352  0.12941  0.01456  1.0000
  H   H3200     1.0  0.69595  0.18423  0.03522  1.0000
  C   C2710     1.0  0.75239  0.00000  0.21214  1.0000
  H   H3201     1.0  0.62847  0.15090  0.17574  1.0000
  Fe  Fe378     1.0  0.77807  0.20219  0.36276  1.0000
  C   C2711     1.0  0.78693  0.08949  0.28939  1.0000
  H   H3202     1.0  0.65316  0.36581  0.05353  1.0000
  C   C2712     1.0  0.70772  0.20158  0.01881  1.0000
  H   H3203     1.0  0.72247  0.24196  0.06443  1.0000
  H   H3204     1.0  0.69944  0.20514  0.01121  1.0000
  C   C2713     1.0  0.73872  0.20379  0.15555  1.0000
  H   H3205     1.0  0.75012  0.20731  0.15276  1.0000
  H   H3206     1.0  0.73984  0.19597  0.14759  1.0000
  H   H3207     1.0  0.73714  0.19668  0.16777  1.0000
  H   H3208     1.0  0.61609  0.37235  0.10394  1.0000
  H   H3209     1.0  0.77674  0.99242  0.24436  1.0000
  H   H3210     1.0  0.61329  0.29035  0.15926  1.0000
  H   H3211     1.0  0.78190  0.31703  0.39195  1.0000
  C   C2714     1.0  0.69724  0.47835  0.08186  1.0000
  H   H3212     1.0  0.78278  0.23318  0.15941  1.0000
  N   N179      1.0  0.72547  0.21751  0.15385  1.0000
  H   H3213     1.0  0.59843  0.29947  0.00894  1.0000
  C   C2715     1.0  0.63217  0.42332  0.02574  1.0000
  C   C2716     1.0  0.77468  0.27067  0.39037  1.0000
  C   C2717     1.0  0.75353  0.13160  0.30308  1.0000
  C   C2718     1.0  0.77137  0.22346  0.01421  1.0000
  C   C2719     1.0  0.64264  0.27485  0.15184  1.0000
  H   H3214     1.0  0.76265  0.99502  0.17689  1.0000
  C   C2720     1.0  0.62217  0.29457  0.16244  1.0000
  S   S752      1.0  0.68775  0.11388  0.98893  1.0000
  H   H3215     1.0  0.78367  0.09079  0.32413  1.0000
  N   N180      1.0  0.62656  0.12880  0.17276  1.0000
  C   C2721     1.0  0.65141  0.29955  0.12321  1.0000
  H   H3216     1.0  0.61768  0.30718  0.16278  1.0000
  N   N181      1.0  0.60876  0.39150  0.03769  1.0000
  H   H3217     1.0  0.74478  0.06484  0.14684  1.0000
  C   C2722     1.0  0.65905  0.19448  0.10726  1.0000
  H   H3218     1.0  0.69612  0.33914  0.09326  1.0000
  H   H3219     1.0  0.78369  0.33504  0.35375  1.0000
  H   H3220     1.0  0.64416  0.13394  0.14146  1.0000
  N   N182      1.0  0.70785  0.08027  0.25153  1.0000
  C   C2723     1.0  0.70265  0.09730  0.24533  1.0000
  C   C2724     1.0  0.70063  0.07650  0.26850  1.0000
  C   C2725     1.0  0.72510  0.07695  0.25001  1.0000
  C   C2726     1.0  0.70293  0.07131  0.24307  1.0000
  Fe  Fe379     1.0  0.62341  0.08674  0.22274  1.0000
  C   C2727     1.0  0.71380  0.06057  0.23431  1.0000
  C   C2728     1.0  0.70875  0.05254  0.22623  1.0000
  N   N183      1.0  0.63768  0.29186  0.15141  1.0000
  H   H3221     1.0  0.68971  0.10104  0.24694  1.0000
  H   H3222     1.0  0.70609  0.10448  0.25143  1.0000
  H   H3223     1.0  0.70779  0.10060  0.23257  1.0000
  H   H3224     1.0  0.68765  0.07878  0.27080  1.0000
  H   H3225     1.0  0.70345  0.08368  0.27507  1.0000
  H   H3226     1.0  0.70493  0.06398  0.27376  1.0000
  H   H3227     1.0  0.73133  0.08010  0.23754  1.0000
  H   H3228     1.0  0.72839  0.08374  0.25662  1.0000
  H   H3229     1.0  0.72982  0.06438  0.25485  1.0000
  H   H3230     1.0  0.72795  0.21909  0.12915  1.0000
  H   H3231     1.0  0.72632  0.05825  0.23334  1.0000
  C   C2729     1.0  0.67180  0.47149  0.08866  1.0000
  C   C2730     1.0  0.59723  0.39893  0.02752  1.0000
  N   N184      1.0  0.74110  0.18663  0.04874  1.0000
  C   C2731     1.0  0.74976  0.17050  0.04748  1.0000
  C   C2732     1.0  0.75282  0.19648  0.04469  1.0000
  C   C2733     1.0  0.73281  0.18661  0.06530  1.0000
  C   C2734     1.0  0.72969  0.19211  0.03843  1.0000
  C   C2735     1.0  0.71667  0.18505  0.04189  1.0000
  C   C2736     1.0  0.73137  0.20400  0.02452  1.0000
  C   C2737     1.0  0.70579  0.18984  0.03230  1.0000
  C   C2738     1.0  0.72047  0.20863  0.01495  1.0000
  H   H3232     1.0  0.59774  0.07424  0.31074  1.0000
  H   H3233     1.0  0.74177  0.16222  0.05107  1.0000
  H   H3234     1.0  0.75632  0.17006  0.03526  1.0000
  H   H3235     1.0  0.75842  0.16581  0.05516  1.0000
  H   H3236     1.0  0.76052  0.19601  0.03288  1.0000
  H   H3237     1.0  0.76093  0.19250  0.05296  1.0000
  H   H3238     1.0  0.74699  0.20889  0.04506  1.0000
  H   H3239     1.0  0.72557  0.17763  0.07028  1.0000
  H   H3240     1.0  0.74118  0.18386  0.07311  1.0000
  H   H3241     1.0  0.72507  0.19825  0.06643  1.0000
  H   H3242     1.0  0.71492  0.17561  0.05195  1.0000
  H   H3243     1.0  0.74094  0.20999  0.02075  1.0000
  H   H3244     1.0  0.76518  0.11218  0.33587  1.0000
  S   S753      1.0  0.78841  0.18850  0.09548  1.0000
  H   H3245     1.0  0.65722  0.14237  0.01319  1.0000
  N   N185      1.0  0.70339  0.42690  0.11994  1.0000
  C   C2739     1.0  0.69856  0.42716  0.10558  1.0000
  C   C2740     1.0  0.71889  0.41584  0.12004  1.0000
  C   C2741     1.0  0.69201  0.42059  0.13390  1.0000
  C   C2742     1.0  0.70352  0.44307  0.12015  1.0000
  C   C2743     1.0  0.68927  0.45454  0.12178  1.0000
  C   C2744     1.0  0.71759  0.44804  0.11829  1.0000
  H   H3246     1.0  0.66076  0.13858  0.98630  1.0000
  H   H3247     1.0  0.67807  0.47853  0.12286  1.0000
  Fe  Fe380     1.0  0.61348  0.11909  0.22924  1.0000
  H   H3248     1.0  0.70664  0.43219  0.09487  1.0000
  H   H3249     1.0  0.69872  0.41518  0.10467  1.0000
  H   H3250     1.0  0.68652  0.43437  0.10514  1.0000
  H   H3251     1.0  0.72776  0.41910  0.10919  1.0000
  H   H3252     1.0  0.71824  0.40369  0.12036  1.0000
  H   H3253     1.0  0.72334  0.41524  0.13047  1.0000
  H   H3254     1.0  0.67962  0.42650  0.13339  1.0000
  H   H3255     1.0  0.69275  0.40795  0.13510  1.0000
  H   H3256     1.0  0.69422  0.42188  0.14487  1.0000
  H   H3257     1.0  0.67818  0.45191  0.12237  1.0000
  H   H3258     1.0  0.72902  0.44032  0.11659  1.0000
  H   H3259     1.0  0.72938  0.08025  0.09931  1.0000
  H   H3260     1.0  0.61201  0.31093  0.13824  1.0000
  C   C2745     1.0  0.73923  0.01110  0.20828  1.0000
  C   C2746     1.0  0.71304  0.23530  0.04910  1.0000
  H   H3261     1.0  0.68829  0.21247  0.08549  1.0000
  C   C2747     1.0  0.73712  0.23574  0.16139  1.0000
  H   H3262     1.0  0.70896  0.20365  0.16910  1.0000
  C   C2748     1.0  0.68678  0.07334  0.24327  1.0000
  C   C2749     1.0  0.76038  0.11947  0.29505  1.0000
  C   C2750     1.0  0.66552  0.16182  0.11099  1.0000
  H   H3263     1.0  0.64282  0.13756  0.21326  1.0000
  C   C2751     1.0  0.70278  0.22731  0.04743  1.0000
  Fe  Fe381     1.0  0.59177  0.02433  0.36243  1.0000
  H   H3264     1.0  0.78627  0.23834  0.36256  1.0000
  S   S754      1.0  0.60928  0.25557  0.15806  1.0000
  H   H3265     1.0  0.59103  0.39268  0.05904  1.0000
  H   H3266     1.0  0.77966  0.26200  0.26687  1.0000
  C   C2752     1.0  0.60095  0.27237  0.14531  1.0000
  C   C2753     1.0  0.75594  0.05349  0.11837  1.0000
  H   H3267     1.0  0.72357  0.14053  0.01834  1.0000
  H   H3268     1.0  0.64893  0.29072  0.16989  1.0000
  S   S755      1.0  0.59582  0.30418  0.03977  1.0000
  H   H3269     1.0  0.66085  0.16103  0.13573  1.0000
  N   N186      1.0  0.67563  0.35102  0.10770  1.0000
  H   H3270     1.0  0.72807  0.46726  0.11642  1.0000
  H   H3271     1.0  0.74120  0.13330  0.30888  1.0000
  H   H3272     1.0  0.60953  0.24604  0.12705  1.0000
  C   C2754     1.0  0.61675  0.03688  0.30380  1.0000
  H   H3273     1.0  0.61838  0.05727  0.28508  1.0000
  H   H3274     1.0  0.74135  0.09789  0.10239  1.0000
  H   H3275     1.0  0.62495  0.41074  0.01352  1.0000
  H   H3276     1.0  0.77130  0.24772  0.35184  1.0000
  H   H3277     1.0  0.64500  0.14174  0.16308  1.0000
  C   C2755     1.0  0.78809  0.09983  0.32606  1.0000
  C   C2756     1.0  0.60011  0.38393  0.05307  1.0000
  C   C2757     1.0  0.59197  0.13108  0.28347  1.0000
  H   H3278     1.0  0.67763  0.35534  0.00091  1.0000
  S   S756      1.0  0.76801  0.21050  0.12043  1.0000
  H   H3279     1.0  0.71665  0.29304  0.98937  1.0000
  C   C2758     1.0  0.59534  0.26659  0.08675  1.0000
  H   H3280     1.0  0.60675  0.29497  0.10813  1.0000
  C   C2759     1.0  0.74265  0.10668  0.12103  1.0000
  H   H3281     1.0  0.76316  0.00365  0.21090  1.0000
  H   H3282     1.0  0.66436  0.33690  0.98522  1.0000
  H   H3283     1.0  0.60293  0.40322  0.01513  1.0000
  H   H3284     1.0  0.74439  0.11300  0.14148  1.0000
  C   C2760     1.0  0.63285  0.42523  0.04019  1.0000
  H   H3285     1.0  0.77801  0.09485  0.26142  1.0000
  C   C2761     1.0  0.62413  0.37099  0.09288  1.0000
  H   H3286     1.0  0.61258  0.32419  0.11119  1.0000
  H   H3287     1.0  0.75800  0.15646  0.00890  1.0000
  H   H3288     1.0  0.64665  0.11618  0.18253  1.0000
  S   S757      1.0  0.60059  0.10449  0.22327  1.0000
  H   H3289     1.0  0.78439  0.15425  0.33052  1.0000
  H   H3290     1.0  0.63739  0.32211  0.09119  1.0000
  C   C2762     1.0  0.78525  0.12721  0.28817  1.0000
  H   H3291     1.0  0.68101  0.33890  0.15997  1.0000
  C   C2763     1.0  0.62076  0.37907  0.03075  1.0000
  H   H3292     1.0  0.66136  0.29295  0.15096  1.0000
  C   C2764     1.0  0.64506  0.36723  0.06452  1.0000
  H   H3293     1.0  0.78113  0.32235  0.33464  1.0000
  H   H3294     1.0  0.59390  0.37557  0.05179  1.0000
  N   N187      1.0  0.70557  0.22817  0.09379  1.0000
  N   N188      1.0  0.78337  0.10451  0.27811  1.0000
  H   H3295     1.0  0.61920  0.16903  0.00540  1.0000
  C   C2765     1.0  0.70301  0.47438  0.12016  1.0000
  C   C2766     1.0  0.71266  0.22952  0.17779  1.0000
  H   H3296     1.0  0.76668  0.05809  0.11210  1.0000
  H   H3297     1.0  0.78501  0.29301  0.24904  1.0000
  C   C2767     1.0  0.67735  0.13100  0.16912  1.0000
  H   H3298     1.0  0.73145  0.17744  0.99113  1.0000
  C   C2768     1.0  0.63739  0.30056  0.13505  1.0000
  Fe  Fe382     1.0  0.74710  0.23626  0.98566  1.0000
  Fe  Fe383     1.0  0.79011  0.05049  0.22984  1.0000
  H   H3299     1.0  0.68900  0.04845  0.22048  1.0000
  C   C2769     1.0  0.77970  0.21888  0.03866  1.0000
  C   C2770     1.0  0.70247  0.31662  0.98641  1.0000
  H   H3300     1.0  0.76470  0.14369  0.99531  1.0000
  C   C2771     1.0  0.63199  0.14377  0.16668  1.0000
  C   C2772     1.0  0.67857  0.34008  0.12256  1.0000
  C   C2773     1.0  0.64578  0.17333  0.18898  1.0000
  C   C2774     1.0  0.71094  0.21153  0.15728  1.0000
  H   H3301     1.0  0.70159  0.22756  0.03583  1.0000
  H   H3302     1.0  0.64181  0.09212  0.13075  1.0000
  C   C2775     1.0  0.74204  0.09465  0.11458  1.0000
  S   S758      1.0  0.65009  0.23171  0.16680  1.0000
  H   H3303     1.0  0.76945  0.28127  0.23881  1.0000
  C   C2776     1.0  0.72788  0.22628  0.13727  1.0000
  C   C2777     1.0  0.68939  0.23334  0.10268  1.0000
  C   C2778     1.0  0.78222  0.21577  0.02379  1.0000
  H   H3304     1.0  0.65062  0.11714  0.12316  1.0000
  C   C2779     1.0  0.66459  0.34621  0.10150  1.0000
  C   C2780     1.0  0.68185  0.06518  0.23521  1.0000
  N   N189      1.0  0.67084  0.04428  0.32071  1.0000
  C   C2781     1.0  0.65340  0.04806  0.32493  1.0000
  C   C2782     1.0  0.67618  0.02978  0.33208  1.0000
  C   C2783     1.0  0.67650  0.05723  0.32273  1.0000
  C   C2784     1.0  0.67721  0.04221  0.30437  1.0000
  C   C2785     1.0  0.69329  0.03529  0.29934  1.0000
  C   C2786     1.0  0.66795  0.04763  0.29282  1.0000
  C   C2787     1.0  0.69953  0.03330  0.28395  1.0000
  C   C2788     1.0  0.67433  0.04568  0.27744  1.0000
  C   C2789     1.0  0.69004  0.03841  0.27305  1.0000
  H   H3305     1.0  0.64841  0.03920  0.32276  1.0000
  H   H3306     1.0  0.64881  0.04849  0.33754  1.0000
  H   H3307     1.0  0.64831  0.05983  0.31842  1.0000
  H   H3308     1.0  0.67362  0.01941  0.32985  1.0000
  H   H3309     1.0  0.67028  0.03058  0.34442  1.0000
  H   H3310     1.0  0.68893  0.02739  0.33174  1.0000
  H   H3311     1.0  0.67255  0.06843  0.31462  1.0000
  H   H3312     1.0  0.67197  0.05929  0.33487  1.0000
  H   H3313     1.0  0.68954  0.05487  0.32033  1.0000
  H   H3314     1.0  0.70127  0.03143  0.30719  1.0000
  H   H3315     1.0  0.65574  0.05355  0.29528  1.0000
  H   H3316     1.0  0.71188  0.02794  0.28040  1.0000
  H   H3317     1.0  0.66698  0.04995  0.26888  1.0000
  H   H3318     1.0  0.69494  0.03690  0.26111  1.0000
  S   S759      1.0  0.63673  0.10190  0.22708  1.0000
  H   H3319     1.0  0.68884  0.45367  0.00222  1.0000
  C   C2790     1.0  0.71432  0.23548  0.06402  1.0000
  H   H3320     1.0  0.72456  0.20786  0.09567  1.0000
  H   H3321     1.0  0.62710  0.06475  0.36792  1.0000
  C   C2791     1.0  0.75604  0.15443  0.99814  1.0000
  S   S760      1.0  0.64957  0.24570  0.12912  1.0000
  H   H3322     1.0  0.75150  0.25604  0.39020  1.0000
  S   S761      1.0  0.64126  0.08126  0.27173  1.0000
  C   C2792     1.0  0.68905  0.46987  0.12199  1.0000
  C   C2793     1.0  0.69409  0.21903  0.06064  1.0000
  H   H3323     1.0  0.69938  0.35423  0.10034  1.0000
  H   H3324     1.0  0.68752  0.31044  0.16123  1.0000
  H   H3325     1.0  0.67779  0.08123  0.24973  1.0000
  C   C2794     1.0  0.69070  0.35088  0.09599  1.0000
  C   C2795     1.0  0.62986  0.17955  0.18902  1.0000
  H   H3326     1.0  0.68331  0.24467  0.09626  1.0000
  S   S762      1.0  0.66018  0.18425  0.17832  1.0000
  H   H3327     1.0  0.72404  0.25493  0.19133  1.0000
  H   H3328     1.0  0.65638  0.46110  0.03319  1.0000
  C   C2796     1.0  0.72773  0.05950  0.12676  1.0000
  C   C2797     1.0  0.73678  0.24549  0.17101  1.0000
  H   H3329     1.0  0.65318  0.38662  0.06609  1.0000
  Fe  Fe384     1.0  0.59975  0.05645  0.35584  1.0000
  C   C2798     1.0  0.77947  0.25003  0.35766  1.0000
  H   H3330     1.0  0.65651  0.46453  0.99238  1.0000
  H   H3331     1.0  0.67655  0.14318  0.16895  1.0000
  H   H3332     1.0  0.69655  0.34255  0.00005  1.0000
  H   H3333     1.0  0.61934  0.10040  0.17650  1.0000
  C   C2799     1.0  0.63746  0.31629  0.10333  1.0000
  H   H3334     1.0  0.62113  0.16388  0.98717  1.0000
  C   C2800     1.0  0.67769  0.11974  0.18305  1.0000
  H   H3335     1.0  0.68205  0.22470  0.10504  1.0000
  C   C2801     1.0  0.68610  0.31313  0.13735  1.0000
  C   C2802     1.0  0.66137  0.16846  0.12413  1.0000
  H   H3336     1.0  0.65899  0.16815  0.00925  1.0000
  Fe  Fe385     1.0  0.66741  0.23667  0.14408  1.0000
  H   H3337     1.0  0.76645  0.24343  0.19843  1.0000
  C   C2803     1.0  0.65830  0.18476  0.12225  1.0000
  H   H3338     1.0  0.66268  0.15330  0.19783  1.0000
  H   H3339     1.0  0.77303  0.25133  0.21933  1.0000
  C   C2804     1.0  0.65039  0.15811  0.19770  1.0000
  H   H3340     1.0  0.64695  0.05716  0.22890  1.0000
  C   C2805     1.0  0.65778  0.46550  0.00390  1.0000
  H   H3341     1.0  0.70280  0.22398  0.18097  1.0000
  C   C2806     1.0  0.77769  0.11184  0.33278  1.0000
  C   C2807     1.0  0.69529  0.21910  0.07561  1.0000
  H   H3342     1.0  0.68473  0.31884  0.11343  1.0000
  H   H3343     1.0  0.66945  0.33478  0.09804  1.0000
  H   H3344     1.0  0.67699  0.37267  0.11218  1.0000
  H   H3345     1.0  0.75708  0.04803  0.13068  1.0000
  C   C2808     1.0  0.63917  0.14919  0.20646  1.0000
  H   H3346     1.0  0.67902  0.09594  0.19454  1.0000
  Fe  Fe386     1.0  0.60977  0.33853  0.06574  1.0000
  H   H3347     1.0  0.64868  0.11029  0.25181  1.0000
  S   S763      1.0  0.63356  0.07563  0.20200  1.0000
  H   H3348     1.0  0.71734  0.04458  0.21948  1.0000
  C   C2809     1.0  0.65744  0.09083  0.28712  1.0000
  H   H3349     1.0  0.66173  0.35467  0.09070  1.0000
  C   C2810     1.0  0.61864  0.17070  0.19788  1.0000
  C   C2811     1.0  0.70512  0.22769  0.07779  1.0000
  H   H3350     1.0  0.65755  0.36837  0.11846  1.0000
  H   H3351     1.0  0.74585  0.25208  0.16816  1.0000
  S   S764      1.0  0.77963  0.20797  0.38484  1.0000
  H   H3352     1.0  0.75047  0.07518  0.09284  1.0000
  S   S765      1.0  0.60593  0.10996  0.25516  1.0000
  H   H3353     1.0  0.63479  0.27112  0.14681  1.0000
  C   C2812     1.0  0.72886  0.16806  0.00168  1.0000
  C   C2813     1.0  0.75169  0.98424  0.21777  1.0000
  C   C2814     1.0  0.62994  0.09504  0.15411  1.0000
  H   H3354     1.0  0.75371  0.28076  0.37117  1.0000
  H   H3355     1.0  0.71664  0.06857  0.12635  1.0000
  C   C2815     1.0  0.62337  0.30977  0.13026  1.0000
  C   C2816     1.0  0.71261  0.23905  0.18750  1.0000
  H   H3356     1.0  0.68451  0.46296  0.98322  1.0000
  H   H3357     1.0  0.76793  0.11480  0.26199  1.0000
  C   C2817     1.0  0.73609  0.14131  0.01516  1.0000
  H   H3358     1.0  0.64633  0.30937  0.15629  1.0000
  H   H3359     1.0  0.78755  0.25659  0.34826  1.0000
  H   H3360     1.0  0.61484  0.13620  0.27853  1.0000
  H   H3361     1.0  0.72665  0.04972  0.12226  1.0000
  H   H3362     1.0  0.78279  0.21024  0.14999  1.0000
  C   C2818     1.0  0.68478  0.34413  0.99765  1.0000
  C   C2819     1.0  0.66375  0.46905  0.03189  1.0000
  H   H3363     1.0  0.74569  0.08606  0.15782  1.0000
  C   C2820     1.0  0.68310  0.32366  0.12350  1.0000
  Fe  Fe387     1.0  0.78512  0.02112  0.22388  1.0000
  S   S766      1.0  0.75255  0.21193  0.98148  1.0000
  C   C2821     1.0  0.68133  0.07168  0.18475  1.0000
  C   C2822     1.0  0.66630  0.08165  0.16489  1.0000
  C   C2823     1.0  0.67889  0.11100  0.15559  1.0000
  C   C2824     1.0  0.67802  0.12661  0.15541  1.0000
  H   H3364     1.0  0.67064  0.07468  0.19392  1.0000
  H   H3365     1.0  0.68196  0.05944  0.18421  1.0000
  H   H3366     1.0  0.69192  0.07148  0.18873  1.0000
  H   H3367     1.0  0.65538  0.08584  0.17323  1.0000
  H   H3368     1.0  0.66646  0.06938  0.16484  1.0000
  H   H3369     1.0  0.67913  0.10832  0.14464  1.0000
  H   H3370     1.0  0.67789  0.13535  0.14451  1.0000
  N   N190      1.0  0.67578  0.12831  0.37283  1.0000
  C   C2825     1.0  0.66172  0.12264  0.38312  1.0000
  C   C2826     1.0  0.67286  0.13410  0.35673  1.0000
  C   C2827     1.0  0.67950  0.14083  0.37774  1.0000
  C   C2828     1.0  0.69222  0.14782  0.36860  1.0000
  C   C2829     1.0  0.69629  0.15942  0.37302  1.0000
  C   C2830     1.0  0.68780  0.16444  0.38669  1.0000
  H   H3371     1.0  0.65102  0.13227  0.38335  1.0000
  H   H3372     1.0  0.65926  0.11335  0.37888  1.0000
  H   H3373     1.0  0.66336  0.11728  0.39529  1.0000
  H   H3374     1.0  0.66358  0.14506  0.35586  1.0000
  H   H3375     1.0  0.66901  0.12532  0.35306  1.0000
  H   H3376     1.0  0.68351  0.13667  0.34779  1.0000
  H   H3377     1.0  0.68700  0.10495  0.36927  1.0000
  H   H3378     1.0  0.69914  0.14434  0.35791  1.0000
  H   H3379     1.0  0.70613  0.16451  0.36576  1.0000
  H   H3380     1.0  0.69102  0.17345  0.39007  1.0000
  C   C2831     1.0  0.62598  0.10459  0.16492  1.0000
  H   H3381     1.0  0.73807  0.25921  0.27090  1.0000
  H   H3382     1.0  0.65544  0.18976  0.13244  1.0000
  H   H3383     1.0  0.64220  0.26778  0.16403  1.0000
  C   C2832     1.0  0.63074  0.11905  0.16098  1.0000
  S   S767      1.0  0.60181  0.00012  0.35768  1.0000
  C   C2833     1.0  0.63870  0.09959  0.13908  1.0000
  C   C2834     1.0  0.64368  0.11365  0.13485  1.0000
  H   H3384     1.0  0.68972  0.30067  0.13775  1.0000
  H   H3385     1.0  0.73975  0.02333  0.20413  1.0000
  C   C2835     1.0  0.77976  0.31580  0.23410  1.0000
  H   H3386     1.0  0.68625  0.21264  0.05932  1.0000
  C   C2836     1.0  0.74007  0.07088  0.10080  1.0000
  H   H3387     1.0  0.71031  0.25131  0.08804  1.0000
  H   H3388     1.0  0.66943  0.06691  0.23565  1.0000
  H   H3389     1.0  0.73919  0.23003  0.13306  1.0000
  H   H3390     1.0  0.67892  0.33476  0.00571  1.0000
  C   C2837     1.0  0.67514  0.48127  0.04524  1.0000
  C   C2838     1.0  0.69282  0.05480  0.22670  1.0000
  C   C2839     1.0  0.74450  0.08850  0.14576  1.0000
  H   H3391     1.0  0.63904  0.13633  0.01873  1.0000
  C   C2840     1.0  0.74389  0.07641  0.13940  1.0000
  C   C2841     1.0  0.72458  0.99071  0.21552  1.0000
  H   H3392     1.0  0.63128  0.12697  0.19522  1.0000
  S   S768      1.0  0.60630  0.31395  0.07483  1.0000
  S   S769      1.0  0.63344  0.34413  0.06117  1.0000
  C   C2842     1.0  0.68113  0.33465  0.14987  1.0000
  H   H3393     1.0  0.75297  0.11194  0.29534  1.0000
  H   H3394     1.0  0.64611  0.47150  0.00984  1.0000
  H   H3395     1.0  0.77803  0.30599  0.18423  1.0000
  C   C2843     1.0  0.78124  0.26235  0.37812  1.0000
  C   C2844     1.0  0.77635  0.11721  0.28687  1.0000
  C   C2845     1.0  0.60100  0.29103  0.12016  1.0000
  H   H3396     1.0  0.69489  0.47155  0.99156  1.0000
  C   C2846     1.0  0.65727  0.17364  0.99752  1.0000
  N   N191      1.0  0.74157  0.06607  0.11740  1.0000
  C   C2847     1.0  0.68871  0.25914  0.15182  1.0000
  H   H3397     1.0  0.67529  0.35754  0.13639  1.0000
  C   C2848     1.0  0.60860  0.27769  0.12980  1.0000
  H   H3398     1.0  0.62029  0.27160  0.12522  1.0000
  S   S770      1.0  0.67278  0.21218  0.14048  1.0000
  S   S771      1.0  0.78856  0.02665  0.24515  1.0000
  Fe  Fe388     1.0  0.59233  0.31982  0.05628  1.0000
  H   H3399     1.0  0.78627  0.25789  0.09654  1.0000
  H   H3400     1.0  0.76737  0.23775  0.27501  1.0000
  H   H3401     1.0  0.72842  0.05450  0.13923  1.0000
  H   H3402     1.0  0.75594  0.04374  0.11320  1.0000
  H   H3403     1.0  0.62539  0.11196  0.29628  1.0000
  H   H3404     1.0  0.71149  0.20449  0.14881  1.0000
  H   H3405     1.0  0.72959  0.17200  0.01192  1.0000
  C   C2849     1.0  0.71724  0.46352  0.11826  1.0000
  H   H3406     1.0  0.60329  0.13878  0.16851  1.0000
  C   C2850     1.0  0.74244  0.07911  0.12368  1.0000
  Fe  Fe389     1.0  0.65377  0.20776  0.16204  1.0000
  H   H3407     1.0  0.68918  0.35935  0.08474  1.0000
  S   S772      1.0  0.68650  0.25021  0.13793  1.0000
  H   H3408     1.0  0.64850  0.07298  0.37366  1.0000
  Fe  Fe390     1.0  0.65319  0.22077  0.12775  1.0000
  C   C2851     1.0  0.71242  0.21227  0.10201  1.0000
  S   S773      1.0  0.59800  0.34336  0.04577  1.0000
  C   C2852     1.0  0.67944  0.09915  0.16954  1.0000
  H   H3409     1.0  0.70042  0.22131  0.15656  1.0000
  H   H3410     1.0  0.62280  0.28803  0.17465  1.0000
  H   H3411     1.0  0.67182  0.09733  0.29845  1.0000
  C   C2853     1.0  0.67832  0.25877  0.16642  1.0000
  S   S774      1.0  0.78960  0.22615  0.08705  1.0000
  C   C2854     1.0  0.59489  0.02499  0.30729  1.0000
  H   H3412     1.0  0.77770  0.21983  0.28552  1.0000
  C   C2855     1.0  0.67794  0.34529  0.13613  1.0000
  C   C2856     1.0  0.65165  0.04887  0.19346  1.0000
  C   C2857     1.0  0.70109  0.26685  0.14810  1.0000
  H   H3413     1.0  0.65517  0.08087  0.29641  1.0000
  H   H3414     1.0  0.71338  0.98806  0.21668  1.0000
  H   H3415     1.0  0.70293  0.24072  0.19746  1.0000
  H   H3416     1.0  0.73796  0.14471  0.02524  1.0000
  H   H3417     1.0  0.76213  0.27468  0.39393  1.0000
  S   S775      1.0  0.60864  0.14476  0.21711  1.0000
  C   C2858     1.0  0.66682  0.10017  0.28830  1.0000
  C   C2859     1.0  0.64610  0.05711  0.20547  1.0000
  H   H3418     1.0  0.64759  0.05355  0.18262  1.0000
  H   H3419     1.0  0.67709  0.12326  0.19370  1.0000
  C   C2860     1.0  0.69452  0.07716  0.15771  1.0000
  H   H3420     1.0  0.70017  0.11773  0.36472  1.0000
  H   H3421     1.0  0.66120  0.14161  0.39935  1.0000
  H   H3422     1.0  0.66862  0.16185  0.40659  1.0000
  H   H3423     1.0  0.77314  0.22072  0.00292  1.0000
  C   C2861     1.0  0.65369  0.10745  0.26201  1.0000
  H   H3424     1.0  0.75338  0.27140  0.35656  1.0000
  C   C2862     1.0  0.77236  0.10323  0.26930  1.0000
  S   S776      1.0  0.78929  0.32509  0.24238  1.0000
  H   H3425     1.0  0.74234  0.11844  0.11383  1.0000
  H   H3426     1.0  0.70927  0.26708  0.13687  1.0000
  H   H3427     1.0  0.66890  0.25265  0.16952  1.0000
  H   H3428     1.0  0.70543  0.07804  0.16042  1.0000
  H   H3429     1.0  0.68936  0.23491  0.11436  1.0000
  C   C2863     1.0  0.60390  0.10365  0.30342  1.0000
  C   C2864     1.0  0.73804  0.14820  0.98643  1.0000
  H   H3430     1.0  0.75331  0.24499  0.37610  1.0000
  C   C2865     1.0  0.77353  0.25208  0.19540  1.0000
  H   H3431     1.0  0.76898  0.28114  0.35369  1.0000
  H   H3432     1.0  0.71645  0.16740  0.00317  1.0000
  H   H3433     1.0  0.76209  0.09863  0.27714  1.0000
  H   H3434     1.0  0.62498  0.24586  0.08479  1.0000
  C   C2866     1.0  0.76015  0.24939  0.38177  1.0000
  H   H3435     1.0  0.69021  0.14626  0.98327  1.0000
  Fe  Fe391     1.0  0.59504  0.09378  0.24904  1.0000
  H   H3436     1.0  0.62699  0.03722  0.30748  1.0000
  H   H3437     1.0  0.61185  0.01681  0.32193  1.0000
  H   H3438     1.0  0.78806  0.13802  0.35615  1.0000
  H   H3439     1.0  0.77888  0.25500  0.13736  1.0000
  C   C2867     1.0  0.77615  0.23276  0.28253  1.0000
  C   C2868     1.0  0.59532  0.25730  0.10219  1.0000
  H   H3440     1.0  0.65929  0.46596  0.05706  1.0000
  C   C2869     1.0  0.59845  0.04796  0.28663  1.0000
  H   H3441     1.0  0.59481  0.05742  0.27726  1.0000
  S   S777      1.0  0.78476  0.21759  0.33921  1.0000
  H   H3442     1.0  0.66198  0.35762  0.98306  1.0000
  C   C2870     1.0  0.61188  0.04815  0.29120  1.0000
  H   H3443     1.0  0.77078  0.23639  0.29394  1.0000
  H   H3444     1.0  0.78665  0.26886  0.31255  1.0000
  H   H3445     1.0  0.61234  0.39892  0.06453  1.0000
  C   C2871     1.0  0.59816  0.22957  0.11422  1.0000
  H   H3446     1.0  0.62544  0.23261  0.11803  1.0000
  C   C2872     1.0  0.77730  0.25651  0.20715  1.0000
  C   C2873     1.0  0.78329  0.12348  0.33545  1.0000
  H   H3447     1.0  0.60818  0.37696  0.06093  1.0000
  H   H3448     1.0  0.78675  0.21839  0.40857  1.0000
  H   H3449     1.0  0.60641  0.21795  0.11634  1.0000
  C   C2874     1.0  0.78719  0.27068  0.17582  1.0000
  H   H3450     1.0  0.66072  0.45327  0.01070  1.0000
  C   C2875     1.0  0.78889  0.31613  0.34262  1.0000
  C   C2876     1.0  0.66971  0.34712  0.97876  1.0000
  H   H3451     1.0  0.78006  0.28965  0.10355  1.0000
  C   C2877     1.0  0.78587  0.26816  0.20332  1.0000
  S   S778      1.0  0.78908  0.17981  0.35437  1.0000
  H   H3452     1.0  0.59540  0.38591  0.98289  1.0000
  H   H3453     1.0  0.78999  0.26567  0.07569  1.0000
  H   H3454     1.0  0.69793  0.18250  0.97882  1.0000
  H   H3455     1.0  0.79041  0.27605  0.16354  1.0000
  C   C2878     1.0  0.79053  0.32328  0.35368  1.0000
  Fe  Fe392     1.0  0.66425  0.38737  0.94086  1.0000
  S   S779      1.0  0.65052  0.41030  0.92937  1.0000
  S   S780      1.0  0.67677  0.36469  0.93287  1.0000
  S   S781      1.0  0.60467  0.13233  0.76533  1.0000
  H   H3456     1.0  0.69171  0.25192  0.88732  1.0000
  H   H3457     1.0  0.63230  0.23864  0.91911  1.0000
  H   H3458     1.0  0.66267  0.10946  0.75707  1.0000
  H   H3459     1.0  0.72514  0.10928  0.71305  1.0000
  C   C2879     1.0  0.68027  0.12384  0.73009  1.0000
  H   H3460     1.0  0.75056  0.27614  0.67013  1.0000
  C   C2880     1.0  0.76278  0.99322  0.71337  1.0000
  H   H3461     1.0  0.63643  0.12207  0.82750  1.0000
  H   H3462     1.0  0.69462  0.05262  0.92281  1.0000
  C   C2881     1.0  0.63053  0.07612  0.63851  1.0000
  C   C2882     1.0  0.61592  0.08917  0.61807  1.0000
  Fe  Fe393     1.0  0.76864  0.20694  0.65522  1.0000
  S   S782      1.0  0.75735  0.20823  0.63568  1.0000
  S   S783      1.0  0.77446  0.22851  0.65791  1.0000
  Fe  Fe394     1.0  0.77599  0.17139  0.66310  1.0000
  S   S784      1.0  0.76599  0.16945  0.64395  1.0000
  H   H3463     1.0  0.75400  0.08851  0.77148  1.0000
  Fe  Fe395     1.0  0.77795  0.18908  0.62926  1.0000
  H   H3464     1.0  0.59124  0.23913  0.81975  1.0000
  Fe  Fe396     1.0  0.74625  0.18866  0.65203  1.0000
  S   S785      1.0  0.72020  0.18881  0.65817  1.0000
  H   H3465     1.0  0.78679  0.10759  0.70081  1.0000
  S   S786      1.0  0.75568  0.18929  0.67227  1.0000
  H   H3466     1.0  0.73554  0.27381  0.69751  1.0000
  S   S787      1.0  0.77127  0.26473  0.75022  1.0000
  S   S788      1.0  0.71384  0.20620  0.97634  1.0000
  C   C2883     1.0  0.68671  0.07953  0.95338  1.0000
  S   S789      1.0  0.77265  0.29078  0.71651  1.0000
  H   H3467     1.0  0.73790  0.99346  0.79207  1.0000
  Fe  Fe397     1.0  0.77358  0.28969  0.74142  1.0000
  S   S790      1.0  0.75856  0.30828  0.75476  1.0000
  Fe  Fe398     1.0  0.77233  0.26519  0.72517  1.0000
  S   S791      1.0  0.75672  0.25179  0.72120  1.0000
  C   C2884     1.0  0.73123  0.99487  0.80368  1.0000
  H   H3468     1.0  0.71184  0.04981  0.93759  1.0000
  Fe  Fe399     1.0  0.74142  0.25166  0.95311  1.0000
  S   S792      1.0  0.74589  0.22892  0.94598  1.0000
  S   S793      1.0  0.73632  0.27506  0.93699  1.0000
  S   S794      1.0  0.61963  0.25342  0.86939  1.0000
  H   H3469     1.0  0.62323  0.26817  0.93114  1.0000
  Fe  Fe400     1.0  0.76610  0.22201  0.95782  1.0000
  H   H3470     1.0  0.63509  0.11468  0.88776  1.0000
  S   S795      1.0  0.63221  0.27035  0.82424  1.0000
  S   S796      1.0  0.76283  0.24550  0.96311  1.0000
  Fe  Fe401     1.0  0.68682  0.12623  0.96391  1.0000
  Fe  Fe402     1.0  0.69918  0.15022  0.93603  1.0000
  S   S797      1.0  0.71460  0.16789  0.92765  1.0000
  Fe  Fe403     1.0  0.69277  0.12095  0.93100  1.0000
  S   S798      1.0  0.70211  0.10316  0.91575  1.0000
  Fe  Fe404     1.0  0.66585  0.14635  0.94183  1.0000
  S   S799      1.0  0.64135  0.16040  0.94153  1.0000
  S   S800      1.0  0.68565  0.14651  0.92057  1.0000
  Fe  Fe405     1.0  0.67564  0.31693  0.84886  1.0000
  S   S801      1.0  0.68999  0.29261  0.85387  1.0000
  S   S802      1.0  0.65343  0.32358  0.84004  1.0000
  Fe  Fe406     1.0  0.69666  0.33081  0.85936  1.0000
  S   S803      1.0  0.71322  0.30750  0.86503  1.0000
  S   S804      1.0  0.69685  0.35429  0.86312  1.0000
  Fe  Fe407     1.0  0.71086  0.30357  0.84246  1.0000
  S   S805      1.0  0.73053  0.28847  0.82792  1.0000
  Fe  Fe408     1.0  0.69113  0.29847  0.87575  1.0000
  S   S806      1.0  0.68639  0.28096  0.89841  1.0000
  S   S807      1.0  0.69625  0.32775  0.83568  1.0000
  S   S808      1.0  0.67488  0.32192  0.87174  1.0000
  Fe  Fe409     1.0  0.66515  0.06295  0.87645  1.0000
  S   S809      1.0  0.65456  0.08104  0.89138  1.0000
  Fe  Fe410     1.0  0.69344  0.04932  0.85384  1.0000
  S   S810      1.0  0.68127  0.03349  0.84905  1.0000
  S   S811      1.0  0.71860  0.04791  0.84136  1.0000
  Fe  Fe411     1.0  0.67143  0.02865  0.87486  1.0000
  C   C2885     1.0  0.67173  0.46939  0.94302  1.0000
  S   S812      1.0  0.67413  0.07071  0.85058  1.0000
  S   S813      1.0  0.68557  0.04266  0.87998  1.0000
  Fe  Fe412     1.0  0.76075  0.04003  0.75091  1.0000
  S   S814      1.0  0.76600  0.05830  0.75992  1.0000
  S   S815      1.0  0.76528  0.01442  0.76267  1.0000
  Fe  Fe413     1.0  0.74809  0.06366  0.72437  1.0000
  S   S816      1.0  0.75161  0.08398  0.73112  1.0000
  S   S817      1.0  0.73975  0.06764  0.70241  1.0000
  Fe  Fe414     1.0  0.77492  0.06866  0.73461  1.0000
  C   C2886     1.0  0.64669  0.07571  0.81631  1.0000
  Fe  Fe415     1.0  0.74231  0.07209  0.75562  1.0000
  S   S818      1.0  0.72404  0.08628  0.77153  1.0000
  S   S819      1.0  0.77209  0.04906  0.72592  1.0000
  S   S820      1.0  0.73639  0.05313  0.74861  1.0000
  Fe  Fe416     1.0  0.64830  0.11029  0.65969  1.0000
  Fe  Fe417     1.0  0.65985  0.11192  0.68763  1.0000
  S   S821      1.0  0.65800  0.13790  0.68044  1.0000
  S   S822      1.0  0.66728  0.09844  0.71014  1.0000
  Fe  Fe418     1.0  0.66891  0.13361  0.65625  1.0000
  S   S823      1.0  0.69023  0.14230  0.64007  1.0000
  H   H3471     1.0  0.64878  0.37725  0.85985  1.0000
  S   S824      1.0  0.67223  0.10750  0.66384  1.0000
  C   C2887     1.0  0.71355  0.30213  0.96576  1.0000
  H   H3472     1.0  0.75315  0.23245  0.87233  1.0000
  H   H3473     1.0  0.69812  0.16733  0.96019  1.0000
  C   C2888     1.0  0.69549  0.32984  0.97598  1.0000
  S   S825      1.0  0.70833  0.12451  0.94454  1.0000
  C   C2889     1.0  0.63495  0.08104  0.80768  1.0000
  H   H3474     1.0  0.62804  0.24884  0.94302  1.0000
  S   S826      1.0  0.64437  0.38292  0.96142  1.0000
  H   H3475     1.0  0.66106  0.35820  0.86511  1.0000
  C   C2890     1.0  0.69237  0.05188  0.96493  1.0000
  H   H3476     1.0  0.63928  0.30286  0.87885  1.0000
  C   C2891     1.0  0.74155  0.26934  0.67432  1.0000
  C   C2892     1.0  0.71955  0.07578  0.70482  1.0000
  C   C2893     1.0  0.71287  0.08109  0.69168  1.0000
  C   C2894     1.0  0.69686  0.08805  0.69327  1.0000
  C   C2895     1.0  0.68735  0.08946  0.70802  1.0000
  C   C2896     1.0  0.69399  0.08385  0.72124  1.0000
  C   C2897     1.0  0.71012  0.07719  0.71962  1.0000
  H   H3477     1.0  0.72009  0.07989  0.68024  1.0000
  H   H3478     1.0  0.69191  0.09209  0.68307  1.0000
  H   H3479     1.0  0.68674  0.08497  0.73269  1.0000
  H   H3480     1.0  0.71520  0.07327  0.72980  1.0000
  C   C2898     1.0  0.72020  0.05889  0.82210  1.0000
  C   C2899     1.0  0.73128  0.05266  0.81005  1.0000
  C   C2900     1.0  0.73228  0.06098  0.79449  1.0000
  C   C2901     1.0  0.72257  0.07578  0.79098  1.0000
  C   C2902     1.0  0.71159  0.08214  0.80303  1.0000
  C   C2903     1.0  0.71030  0.07361  0.81860  1.0000
  H   H3481     1.0  0.73893  0.04127  0.81273  1.0000
  H   H3482     1.0  0.74051  0.05583  0.78526  1.0000
  H   H3483     1.0  0.70400  0.09356  0.80036  1.0000
  H   H3484     1.0  0.70188  0.07856  0.82791  1.0000
  C   C2904     1.0  0.64742  0.30845  0.83639  1.0000
  C   C2905     1.0  0.65099  0.29295  0.84480  1.0000
  C   C2906     1.0  0.64584  0.28118  0.84158  1.0000
  C   C2907     1.0  0.63746  0.28489  0.82972  1.0000
  C   C2908     1.0  0.63389  0.30039  0.82144  1.0000
  C   C2909     1.0  0.63861  0.31216  0.82496  1.0000
  H   H3485     1.0  0.65759  0.29006  0.85382  1.0000
  H   H3486     1.0  0.64868  0.26919  0.84795  1.0000
  H   H3487     1.0  0.62742  0.30330  0.81228  1.0000
  H   H3488     1.0  0.63571  0.32414  0.81854  1.0000
  C   C2910     1.0  0.68869  0.09734  0.90894  1.0000
  C   C2911     1.0  0.67248  0.10276  0.91357  1.0000
  C   C2912     1.0  0.66208  0.09774  0.90808  1.0000
  C   C2913     1.0  0.66784  0.08734  0.89791  1.0000
  C   C2914     1.0  0.68405  0.08199  0.89323  1.0000
  C   C2915     1.0  0.69444  0.08695  0.89877  1.0000
  H   H3489     1.0  0.64955  0.10185  0.91180  1.0000
  H   H3490     1.0  0.68860  0.07401  0.88536  1.0000
  H   H3491     1.0  0.70697  0.08275  0.89510  1.0000
  C   C2916     1.0  0.64294  0.17834  0.92845  1.0000
  C   C2917     1.0  0.65963  0.19498  0.90998  1.0000
  C   C2918     1.0  0.65767  0.18211  0.92240  1.0000
  H   H3492     1.0  0.67120  0.19742  0.90490  1.0000
  H   H3493     1.0  0.66767  0.17497  0.92709  1.0000
  C   C2919     1.0  0.72127  0.27723  0.92752  1.0000
  C   C2920     1.0  0.71284  0.26550  0.93105  1.0000
  C   C2921     1.0  0.70182  0.26685  0.92229  1.0000
  C   C2922     1.0  0.69910  0.27999  0.91021  1.0000
  C   C2923     1.0  0.70701  0.29201  0.90720  1.0000
  C   C2924     1.0  0.71814  0.29060  0.91580  1.0000
  H   H3494     1.0  0.71510  0.25524  0.94025  1.0000
  H   H3495     1.0  0.69580  0.25752  0.92454  1.0000
  H   H3496     1.0  0.70460  0.30241  0.89825  1.0000
  H   H3497     1.0  0.72450  0.29978  0.91318  1.0000
  C   C2925     1.0  0.71497  0.19505  0.96297  1.0000
  C   C2926     1.0  0.72491  0.19697  0.94809  1.0000
  C   C2927     1.0  0.72479  0.18850  0.93737  1.0000
  C   C2928     1.0  0.71482  0.17803  0.94149  1.0000
  H   H3498     1.0  0.73254  0.20507  0.94475  1.0000
  H   H3499     1.0  0.73257  0.18988  0.92596  1.0000
  C   C2929     1.0  0.75106  0.30277  0.77517  1.0000
  C   C2930     1.0  0.75554  0.28747  0.78357  1.0000
  C   C2931     1.0  0.74905  0.28329  0.79969  1.0000
  C   C2932     1.0  0.73819  0.29439  0.80762  1.0000
  C   C2933     1.0  0.73385  0.30975  0.79931  1.0000
  C   C2934     1.0  0.74025  0.31390  0.78313  1.0000
  H   H3500     1.0  0.76389  0.27883  0.77761  1.0000
  H   H3501     1.0  0.75240  0.27136  0.80601  1.0000
  H   H3502     1.0  0.72566  0.31846  0.80532  1.0000
  H   H3503     1.0  0.73680  0.32578  0.77673  1.0000
  S   S827      1.0  0.60092  0.00851  0.62718  1.0000
  H   H3504     1.0  0.59422  0.10058  0.69854  1.0000
  C   C2935     1.0  0.59671  0.37307  0.92897  1.0000
  H   H3505     1.0  0.61840  0.18553  0.92780  1.0000
  C   C2936     1.0  0.67995  0.02340  0.80501  1.0000
  C   C2937     1.0  0.60910  0.15689  0.72508  1.0000
  C   C2938     1.0  0.72435  0.21570  0.89810  1.0000
  H   H3506     1.0  0.59566  0.40232  0.89741  1.0000
  H   H3507     1.0  0.67094  0.02940  0.81329  1.0000
  S   S828      1.0  0.63864  0.41915  0.96457  1.0000
  C   C2939     1.0  0.71239  0.17538  0.65328  1.0000
  C   C2940     1.0  0.72053  0.16753  0.64118  1.0000
  C   C2941     1.0  0.71360  0.15749  0.63720  1.0000
  C   C2942     1.0  0.69862  0.15495  0.64547  1.0000
  C   C2943     1.0  0.69064  0.16257  0.65775  1.0000
  C   C2944     1.0  0.69743  0.17284  0.66152  1.0000
  H   H3508     1.0  0.73202  0.16942  0.63467  1.0000
  H   H3509     1.0  0.71988  0.15167  0.62768  1.0000
  H   H3510     1.0  0.67907  0.16087  0.66413  1.0000
  H   H3511     1.0  0.69100  0.17890  0.67084  1.0000
  H   H3512     1.0  0.76765  0.12095  0.78852  1.0000
  Fe  Fe419     1.0  0.65369  0.39593  0.97306  1.0000
  N   N192      1.0  0.64544  0.25386  0.92187  1.0000
  C   C2945     1.0  0.65834  0.24164  0.92784  1.0000
  H   H3513     1.0  0.78306  0.12427  0.76307  1.0000
  H   H3514     1.0  0.78333  0.21577  0.83517  1.0000
  N   N193      1.0  0.79022  0.98675  0.71880  1.0000
  H   H3515     1.0  0.64247  0.27675  0.90656  1.0000
  H   H3516     1.0  0.66155  0.26424  0.90214  1.0000
  C   C2946     1.0  0.63987  0.47670  0.95677  1.0000
  C   C2947     1.0  0.77087  0.23334  0.67623  1.0000
  C   C2948     1.0  0.77752  0.24510  0.67727  1.0000
  C   C2949     1.0  0.77388  0.25028  0.69130  1.0000
  C   C2950     1.0  0.76323  0.24398  0.70425  1.0000
  C   C2951     1.0  0.75691  0.23191  0.70336  1.0000
  C   C2952     1.0  0.76088  0.22644  0.68944  1.0000
  H   H3517     1.0  0.70531  0.35598  0.97177  1.0000
  H   H3518     1.0  0.77880  0.25959  0.69190  1.0000
  H   H3519     1.0  0.74864  0.22702  0.71335  1.0000
  H   H3520     1.0  0.75578  0.21729  0.68880  1.0000
  C   C2953     1.0  0.77604  0.01426  0.70882  1.0000
  S   S829      1.0  0.60482  0.08892  0.60497  1.0000
  C   C2954     1.0  0.62550  0.09679  0.84631  1.0000
  C   C2955     1.0  0.77805  0.08996  0.68726  1.0000
  H   H3521     1.0  0.67251  0.00167  0.81597  1.0000
  H   H3522     1.0  0.64435  0.31641  0.91824  1.0000
  H   H3523     1.0  0.64643  0.24519  0.90173  1.0000
  C   C2956     1.0  0.70097  0.05508  0.77815  1.0000
  S   S830      1.0  0.64690  0.05810  0.83027  1.0000
  C   C2957     1.0  0.65532  0.10468  0.58732  1.0000
  H   H3524     1.0  0.66025  0.11518  0.62905  1.0000
  H   H3525     1.0  0.61699  0.23156  0.80480  1.0000
  H   H3526     1.0  0.63759  0.26385  0.94249  1.0000
  C   C2958     1.0  0.60984  0.29612  0.88184  1.0000
  H   H3527     1.0  0.77248  0.13906  0.71780  1.0000
  H   H3528     1.0  0.61096  0.16564  0.81120  1.0000
  H   H3529     1.0  0.71016  0.02764  0.77278  1.0000
  H   H3530     1.0  0.62837  0.25813  0.90776  1.0000
  H   H3531     1.0  0.64113  0.17299  0.96797  1.0000
  C   C2959     1.0  0.76889  0.10857  0.78807  1.0000
  H   H3532     1.0  0.67402  0.04929  0.91276  1.0000
  C   C2960     1.0  0.65166  0.26764  0.91186  1.0000
  C   C2961     1.0  0.63785  0.24866  0.91225  1.0000
  H   H3533     1.0  0.65408  0.12828  0.71762  1.0000
  C   C2962     1.0  0.69035  0.03149  0.79279  1.0000
  H   H3534     1.0  0.75700  0.21028  0.89491  1.0000
  H   H3535     1.0  0.65615  0.27342  0.91848  1.0000
  H   H3536     1.0  0.65751  0.14711  0.71704  1.0000
  C   C2963     1.0  0.76982  0.13271  0.72989  1.0000
  C   C2964     1.0  0.73534  0.00091  0.74582  1.0000
  C   C2965     1.0  0.74315  0.01017  0.74965  1.0000
  C   C2966     1.0  0.75478  0.00314  0.75832  1.0000
  Fe  Fe420     1.0  0.59247  0.03395  0.61664  1.0000
  H   H3537     1.0  0.59913  0.10755  0.83727  1.0000
  H   H3538     1.0  0.72646  0.00644  0.73897  1.0000
  H   H3539     1.0  0.74035  0.02268  0.74557  1.0000
  C   C2967     1.0  0.75476  0.13144  0.67495  1.0000
  H   H3540     1.0  0.77236  0.26485  0.84395  1.0000
  H   H3541     1.0  0.69297  0.33799  0.95165  1.0000
  H   H3542     1.0  0.73721  0.15153  0.66733  1.0000
  C   C2968     1.0  0.73309  0.26805  0.68976  1.0000
  C   C2969     1.0  0.66108  0.14023  0.74663  1.0000
  H   H3543     1.0  0.65865  0.01278  0.85915  1.0000
  H   H3544     1.0  0.69462  0.09833  0.63161  1.0000
  N   N194      1.0  0.59612  0.22915  0.79945  1.0000
  H   H3545     1.0  0.61585  0.32818  0.92425  1.0000
  C   C2970     1.0  0.68242  0.36219  0.91336  1.0000
  C   C2971     1.0  0.68328  0.37488  0.90053  1.0000
  C   C2972     1.0  0.68807  0.37230  0.88516  1.0000
  C   C2973     1.0  0.69168  0.35707  0.88253  1.0000
  C   C2974     1.0  0.69071  0.34440  0.89538  1.0000
  C   C2975     1.0  0.68628  0.34695  0.91072  1.0000
  H   H3546     1.0  0.68050  0.38665  0.90244  1.0000
  H   H3547     1.0  0.68890  0.38214  0.87528  1.0000
  H   H3548     1.0  0.69357  0.33262  0.89350  1.0000
  H   H3549     1.0  0.68576  0.33706  0.92059  1.0000
  C   C2976     1.0  0.66225  0.45897  0.94447  1.0000
  C   C2977     1.0  0.64635  0.46255  0.95168  1.0000
  C   C2978     1.0  0.78390  0.22627  0.82598  1.0000
  C   C2979     1.0  0.65712  0.11502  0.74684  1.0000
  H   H3550     1.0  0.78753  0.10923  0.65948  1.0000
  H   H3551     1.0  0.66615  0.15051  0.73969  1.0000
  H   H3552     1.0  0.63890  0.45472  0.95275  1.0000
  C   C2980     1.0  0.61944  0.13611  0.87942  1.0000
  C   C2981     1.0  0.69429  0.11104  0.60174  1.0000
  C   C2982     1.0  0.66873  0.08429  0.61170  1.0000
  H   H3553     1.0  0.78156  0.10352  0.78379  1.0000
  C   C2983     1.0  0.65689  0.09905  0.80316  1.0000
  H   H3554     1.0  0.62385  0.09125  0.83758  1.0000
  N   N195      1.0  0.77479  0.10736  0.68346  1.0000
  H   H3555     1.0  0.66794  0.11082  0.92136  1.0000
  H   H3556     1.0  0.62681  0.38299  0.93697  1.0000
  H   H3557     1.0  0.62172  0.36416  0.92491  1.0000
  C   C2984     1.0  0.67346  0.48263  0.90199  1.0000
  H   H3558     1.0  0.59961  0.09198  0.65802  1.0000
  C   C2985     1.0  0.70168  0.02261  0.78240  1.0000
  H   H3559     1.0  0.70861  0.31406  0.94316  1.0000
  H   H3560     1.0  0.68636  0.36897  0.97531  1.0000
  C   C2986     1.0  0.74059  0.13883  0.67027  1.0000
  C   C2987     1.0  0.68374  0.21898  0.93882  1.0000
  H   H3561     1.0  0.62446  0.09987  0.79086  1.0000
  C   C2988     1.0  0.66276  0.19425  0.97468  1.0000
  H   H3562     1.0  0.63842  0.09538  0.84452  1.0000
  C   C2989     1.0  0.59861  0.00552  0.59891  1.0000
  C   C2990     1.0  0.71410  0.99870  0.83354  1.0000
  H   H3563     1.0  0.74740  0.21289  0.91468  1.0000
  H   H3564     1.0  0.66828  0.20408  0.96884  1.0000
  C   C2991     1.0  0.59367  0.20546  0.77195  1.0000
  C   C2992     1.0  0.59108  0.26094  0.90666  1.0000
  H   H3565     1.0  0.77352  0.08522  0.77383  1.0000
  H   H3566     1.0  0.65925  0.06855  0.96183  1.0000
  C   C2993     1.0  0.66005  0.00026  0.86344  1.0000
  H   H3567     1.0  0.66932  0.34922  0.96621  1.0000
  C   C2994     1.0  0.60700  0.18967  0.83569  1.0000
  H   H3568     1.0  0.71095  0.00019  0.77596  1.0000
  C   C2995     1.0  0.65442  0.18923  0.96697  1.0000
  H   H3569     1.0  0.62173  0.29166  0.87509  1.0000
  C   C2996     1.0  0.70685  0.31483  0.95526  1.0000
  H   H3570     1.0  0.70672  0.07015  0.92787  1.0000
  H   H3571     1.0  0.68342  0.08851  0.94305  1.0000
  H   H3572     1.0  0.76200  0.13889  0.67535  1.0000
  C   C2997     1.0  0.77548  0.12416  0.75583  1.0000
  H   H3573     1.0  0.68687  0.22524  0.89289  1.0000
  C   C2998     1.0  0.78594  0.23715  0.90291  1.0000
  H   H3574     1.0  0.73298  0.20510  0.90083  1.0000
  H   H3575     1.0  0.59586  0.25387  0.79380  1.0000
  H   H3576     1.0  0.59682  0.00332  0.57658  1.0000
  C   C2999     1.0  0.60834  0.39897  0.89572  1.0000
  H   H3577     1.0  0.78594  0.01880  0.70850  1.0000
  C   C3000     1.0  0.67325  0.05705  0.78749  1.0000
  H   H3578     1.0  0.74405  0.25183  0.87553  1.0000
  H   H3579     1.0  0.73919  0.10782  0.79772  1.0000
  H   H3580     1.0  0.61962  0.14166  0.88844  1.0000
  H   H3581     1.0  0.69354  0.21041  0.94281  1.0000
  S   S831      1.0  0.60136  0.24524  0.84676  1.0000
  C   C3001     1.0  0.77624  0.99799  0.71388  1.0000
  H   H3582     1.0  0.64840  0.14459  0.75156  1.0000
  H   H3583     1.0  0.77556  0.23836  0.92703  1.0000
  H   H3584     1.0  0.76615  0.10824  0.70777  1.0000
  H   H3585     1.0  0.78908  0.21742  0.61825  1.0000
  C   C3002     1.0  0.77875  0.13235  0.74023  1.0000
  H   H3586     1.0  0.61343  0.14933  0.73507  1.0000
  H   H3587     1.0  0.74850  0.16652  0.96894  1.0000
  C   C3003     1.0  0.63365  0.09035  0.63866  1.0000
  S   S832      1.0  0.60709  0.15838  0.78304  1.0000
  C   C3004     1.0  0.69808  0.22678  0.89352  1.0000
  C   C3005     1.0  0.65988  0.47673  0.90769  1.0000
  H   H3588     1.0  0.75057  0.12515  0.72704  1.0000
  N   N196      1.0  0.69218  0.29111  0.80458  1.0000
  C   C3006     1.0  0.67704  0.29256  0.80052  1.0000
  C   C3007     1.0  0.69400  0.27750  0.81798  1.0000
  C   C3008     1.0  0.69139  0.30525  0.81010  1.0000
  C   C3009     1.0  0.70501  0.28968  0.79050  1.0000
  C   C3010     1.0  0.70544  0.30218  0.77706  1.0000
  C   C3011     1.0  0.71694  0.27583  0.78939  1.0000
  C   C3012     1.0  0.71716  0.30096  0.76347  1.0000
  C   C3013     1.0  0.72845  0.27467  0.77562  1.0000
  C   C3014     1.0  0.72857  0.28721  0.76272  1.0000
  H   H3589     1.0  0.67730  0.28242  0.79581  1.0000
  H   H3590     1.0  0.66715  0.29298  0.81093  1.0000
  H   H3591     1.0  0.67402  0.30342  0.79163  1.0000
  H   H3592     1.0  0.69362  0.26652  0.81513  1.0000
  H   H3593     1.0  0.68433  0.27911  0.82845  1.0000
  H   H3594     1.0  0.70520  0.27586  0.82166  1.0000
  H   H3595     1.0  0.68860  0.31631  0.80142  1.0000
  H   H3596     1.0  0.68207  0.30641  0.82090  1.0000
  H   H3597     1.0  0.70274  0.30477  0.81284  1.0000
  H   H3598     1.0  0.69676  0.31304  0.77696  1.0000
  H   H3599     1.0  0.71780  0.26579  0.79902  1.0000
  H   H3600     1.0  0.71763  0.31082  0.75352  1.0000
  H   H3601     1.0  0.73760  0.26413  0.77505  1.0000
  H   H3602     1.0  0.73779  0.28645  0.75224  1.0000
  C   C3015     1.0  0.71282  0.11360  0.71779  1.0000
  C   C3016     1.0  0.59820  0.17097  0.72670  1.0000
  N   N197      1.0  0.60722  0.31277  0.88261  1.0000
  C   C3017     1.0  0.74348  0.15648  0.97100  1.0000
  C   C3018     1.0  0.63687  0.31594  0.91099  1.0000
  H   H3603     1.0  0.71503  0.10566  0.74179  1.0000
  H   H3604     1.0  0.73967  0.02855  0.70077  1.0000
  C   C3019     1.0  0.63309  0.25886  0.93520  1.0000
  S   S833      1.0  0.59740  0.12495  0.80367  1.0000
  H   H3605     1.0  0.65913  0.10592  0.74004  1.0000
  C   C3020     1.0  0.67170  0.09964  0.60641  1.0000
  H   H3606     1.0  0.67299  0.07599  0.62146  1.0000
  Fe  Fe421     1.0  0.61435  0.22015  0.85262  1.0000
  C   C3021     1.0  0.65779  0.08461  0.81393  1.0000
  H   H3607     1.0  0.63514  0.06546  0.64625  1.0000
  C   C3022     1.0  0.61722  0.31423  0.89231  1.0000
  H   H3608     1.0  0.66700  0.08044  0.82039  1.0000
  S   S834      1.0  0.64562  0.09013  0.65112  1.0000
  C   C3023     1.0  0.77394  0.27350  0.83261  1.0000
  C   C3024     1.0  0.66474  0.10966  0.59396  1.0000
  S   S835      1.0  0.64992  0.21964  0.88753  1.0000
  H   H3609     1.0  0.68008  0.04894  0.81559  1.0000
  C   C3025     1.0  0.64155  0.98817  0.65900  1.0000
  H   H3610     1.0  0.59450  0.10910  0.85739  1.0000
  C   C3026     1.0  0.70709  0.11151  0.73394  1.0000
  H   H3611     1.0  0.62744  0.47958  0.96185  1.0000
  Fe  Fe422     1.0  0.63530  0.13847  0.67475  1.0000
  H   H3612     1.0  0.65572  0.30355  0.89578  1.0000
  C   C3027     1.0  0.70255  0.12074  0.70772  1.0000
  Fe  Fe423     1.0  0.63126  0.40630  0.95086  1.0000
  H   H3613     1.0  0.62381  0.31817  0.86080  1.0000
  C   C3028     1.0  0.66707  0.24498  0.93682  1.0000
  H   H3614     1.0  0.70686  0.12191  0.69521  1.0000
  H   H3615     1.0  0.60828  0.28850  0.89381  1.0000
  C   C3029     1.0  0.68075  0.00749  0.80664  1.0000
  H   H3616     1.0  0.76245  0.24202  0.88091  1.0000
  C   C3030     1.0  0.60369  0.11087  0.66435  1.0000
  H   H3617     1.0  0.73952  0.00022  0.70877  1.0000
  C   C3031     1.0  0.62761  0.11347  0.86772  1.0000
  H   H3618     1.0  0.60962  0.33473  0.86654  1.0000
  N   N198      1.0  0.61715  0.11353  0.84442  1.0000
  C   C3032     1.0  0.64326  0.30879  0.89827  1.0000
  S   S836      1.0  0.67028  0.44246  0.93585  1.0000
  H   H3619     1.0  0.67702  0.12308  0.62702  1.0000
  C   C3033     1.0  0.61136  0.32215  0.86651  1.0000
  C   C3034     1.0  0.63384  0.09560  0.79718  1.0000
  C   C3035     1.0  0.68766  0.09355  0.62642  1.0000
  H   H3620     1.0  0.69030  0.12113  0.59253  1.0000
  H   H3621     1.0  0.77989  0.24889  0.89835  1.0000
  H   H3622     1.0  0.70764  0.00106  0.84486  1.0000
  C   C3036     1.0  0.76306  0.11597  0.76152  1.0000
  C   C3037     1.0  0.74986  0.02005  0.70412  1.0000
  H   H3623     1.0  0.72176  0.22253  0.67869  1.0000
  H   H3624     1.0  0.65685  0.06782  0.60943  1.0000
  H   H3625     1.0  0.69562  0.08322  0.62205  1.0000
  C   C3038     1.0  0.61897  0.10343  0.61825  1.0000
  H   H3626     1.0  0.71078  0.24351  0.69075  1.0000
  H   H3627     1.0  0.61443  0.10389  0.66793  1.0000
  H   H3628     1.0  0.70168  0.11515  0.60705  1.0000
  C   C3039     1.0  0.70535  0.17575  0.95658  1.0000
  C   C3040     1.0  0.65366  0.13646  0.72490  1.0000
  N   N199      1.0  0.72488  0.24291  0.65993  1.0000
  C   C3041     1.0  0.73423  0.24567  0.64356  1.0000
  C   C3042     1.0  0.72904  0.22594  0.66680  1.0000
  C   C3043     1.0  0.70805  0.24723  0.65917  1.0000
  H   H3629     1.0  0.74708  0.24175  0.64316  1.0000
  H   H3630     1.0  0.73171  0.23894  0.63635  1.0000
  H   H3631     1.0  0.73335  0.13739  0.94936  1.0000
  H   H3632     1.0  0.74152  0.22242  0.66783  1.0000
  H   H3633     1.0  0.72741  0.21871  0.65952  1.0000
  H   H3634     1.0  0.70025  0.24396  0.67077  1.0000
  H   H3635     1.0  0.70427  0.26007  0.65471  1.0000
  H   H3636     1.0  0.74647  0.26239  0.65286  1.0000
  H   H3637     1.0  0.60676  0.22214  0.77024  1.0000
  C   C3044     1.0  0.75847  0.98679  0.76324  1.0000
  H   H3638     1.0  0.60142  0.29430  0.87596  1.0000
  H   H3639     1.0  0.63566  0.48094  0.91955  1.0000
  C   C3045     1.0  0.75956  0.11486  0.67883  1.0000
  H   H3640     1.0  0.77879  0.19269  0.74309  1.0000
  C   C3046     1.0  0.74927  0.10616  0.67768  1.0000
  N   N200      1.0  0.78818  0.26787  0.82117  1.0000
  C   C3047     1.0  0.73518  0.11368  0.67286  1.0000
  C   C3048     1.0  0.73086  0.12997  0.66915  1.0000
  S   S837      1.0  0.67039  0.00385  0.88776  1.0000
  C   C3049     1.0  0.61315  0.22414  0.79931  1.0000
  H   H3641     1.0  0.68405  0.46669  0.93744  1.0000
  H   H3642     1.0  0.65347  0.19516  0.95505  1.0000
  H   H3643     1.0  0.74006  0.12639  0.78413  1.0000
  C   C3050     1.0  0.69186  0.99918  0.79617  1.0000
  H   H3644     1.0  0.60577  0.13177  0.66955  1.0000
  H   H3645     1.0  0.76407  0.22094  0.90405  1.0000
  H   H3646     1.0  0.64510  0.14665  0.97599  1.0000
  N   N201      1.0  0.74250  0.23334  0.89641  1.0000
  H   H3647     1.0  0.75182  0.09352  0.68035  1.0000
  H   H3648     1.0  0.69190  0.98396  0.85616  1.0000
  H   H3649     1.0  0.72752  0.10684  0.67199  1.0000
  H   H3650     1.0  0.71992  0.13572  0.66544  1.0000
  N   N202      1.0  0.75906  0.10736  0.77802  1.0000
  H   H3651     1.0  0.59883  0.32686  0.90875  1.0000
  C   C3051     1.0  0.70082  0.24177  0.89038  1.0000
  C   C3052     1.0  0.72740  0.23085  0.89534  1.0000
  H   H3652     1.0  0.67861  0.20359  0.92778  1.0000
  C   C3053     1.0  0.72884  0.13214  0.97459  1.0000
  H   H3653     1.0  0.73375  0.25644  0.90182  1.0000
  H   H3654     1.0  0.78864  0.18184  0.68003  1.0000
  H   H3655     1.0  0.67663  0.08089  0.96349  1.0000
  C   C3054     1.0  0.68999  0.05164  0.80570  1.0000
  C   C3055     1.0  0.75426  0.11649  0.75061  1.0000
  H   H3656     1.0  0.62584  0.18120  0.81756  1.0000
  H   H3657     1.0  0.68109  0.05297  0.97377  1.0000
  C   C3056     1.0  0.62394  0.12196  0.82861  1.0000
  H   H3658     1.0  0.66448  0.25639  0.93952  1.0000
  H   H3659     1.0  0.76883  0.08544  0.69708  1.0000
  H   H3660     1.0  0.62641  0.07412  0.80944  1.0000
  S   S838      1.0  0.60889  0.21916  0.87866  1.0000
  C   C3057     1.0  0.74983  0.00414  0.70856  1.0000
  N   N203      1.0  0.66333  0.12884  0.73686  1.0000
  H   H3661     1.0  0.68436  0.47517  0.89730  1.0000
  H   H3662     1.0  0.59334  0.18409  0.68911  1.0000
  C   C3058     1.0  0.67079  0.11878  0.62063  1.0000
  C   C3059     1.0  0.62086  0.32248  0.91439  1.0000
  C   C3060     1.0  0.65262  0.08958  0.59281  1.0000
  H   H3663     1.0  0.76294  0.03749  0.70062  1.0000
  S   S839      1.0  0.67465  0.39857  0.95353  1.0000
  H   H3664     1.0  0.71579  0.25749  0.70762  1.0000
  C   C3061     1.0  0.70537  0.18427  0.96724  1.0000
  H   H3665     1.0  0.66294  0.37425  0.87132  1.0000
  H   H3666     1.0  0.65680  0.22268  0.91822  1.0000
  C   C3062     1.0  0.65938  0.07940  0.60489  1.0000
  H   H3667     1.0  0.63904  0.06535  0.95071  1.0000
  H   H3668     1.0  0.71929  0.02168  0.82645  1.0000
  C   C3063     1.0  0.60857  0.16237  0.69748  1.0000
  C   C3064     1.0  0.78773  0.11222  0.67047  1.0000
  H   H3669     1.0  0.70572  0.24109  0.65129  1.0000
  C   C3065     1.0  0.76299  0.02508  0.70414  1.0000
  S   S840      1.0  0.67868  0.15212  0.95630  1.0000
  S   S841      1.0  0.63605  0.11288  0.68425  1.0000
  H   H3670     1.0  0.63006  0.11508  0.62856  1.0000
  H   H3671     1.0  0.64426  0.11821  0.75173  1.0000
  C   C3066     1.0  0.70983  0.21377  0.89739  1.0000
  N   N204      1.0  0.64764  0.17019  0.87710  1.0000
  C   C3067     1.0  0.65690  0.18232  0.87373  1.0000
  C   C3068     1.0  0.63650  0.17587  0.86645  1.0000
  C   C3069     1.0  0.63828  0.16884  0.89341  1.0000
  C   C3070     1.0  0.65825  0.15485  0.87543  1.0000
  C   C3071     1.0  0.65660  0.14558  0.86594  1.0000
  C   C3072     1.0  0.67031  0.14845  0.88400  1.0000
  C   C3073     1.0  0.66646  0.13082  0.86522  1.0000
  C   C3074     1.0  0.68024  0.13381  0.88300  1.0000
  C   C3075     1.0  0.67828  0.12500  0.87367  1.0000
  H   H3672     1.0  0.66402  0.18029  0.88255  1.0000
  H   H3673     1.0  0.66499  0.18289  0.86198  1.0000
  H   H3674     1.0  0.64919  0.19420  0.87385  1.0000
  H   H3675     1.0  0.64279  0.17717  0.85392  1.0000
  H   H3676     1.0  0.62899  0.18761  0.86773  1.0000
  H   H3677     1.0  0.62824  0.16805  0.86896  1.0000
  H   H3678     1.0  0.64577  0.16612  0.90207  1.0000
  H   H3679     1.0  0.62958  0.17992  0.89504  1.0000
  H   H3680     1.0  0.63172  0.15935  0.89672  1.0000
  H   H3681     1.0  0.64773  0.14937  0.85906  1.0000
  H   H3682     1.0  0.67203  0.15464  0.89174  1.0000
  H   H3683     1.0  0.66489  0.12377  0.85816  1.0000
  H   H3684     1.0  0.68935  0.12914  0.88971  1.0000
  H   H3685     1.0  0.68585  0.11353  0.87313  1.0000
  S   S842      1.0  0.78867  0.20867  0.94551  1.0000
  H   H3686     1.0  0.67926  0.13079  0.70515  1.0000
  H   H3687     1.0  0.66621  0.12159  0.58952  1.0000
  C   C3076     1.0  0.73953  0.24430  0.90684  1.0000
  H   H3688     1.0  0.67824  0.08952  0.63633  1.0000
  Fe  Fe424     1.0  0.63095  0.22793  0.87380  1.0000
  Fe  Fe425     1.0  0.59345  0.15728  0.76644  1.0000
  C   C3077     1.0  0.68653  0.12583  0.71368  1.0000
  C   C3078     1.0  0.66275  0.22631  0.92487  1.0000
  C   C3079     1.0  0.78658  0.25366  0.81737  1.0000
  H   H3689     1.0  0.69958  0.06783  0.77725  1.0000
  N   N205      1.0  0.68880  0.04849  0.79097  1.0000
  H   H3690     1.0  0.70195  0.10152  0.59585  1.0000
  S   S843      1.0  0.61813  0.20130  0.83888  1.0000
  H   H3691     1.0  0.68974  0.06420  0.80445  1.0000
  H   H3692     1.0  0.66659  0.13497  0.75693  1.0000
  Fe  Fe426     1.0  0.61639  0.13283  0.78370  1.0000
  H   H3693     1.0  0.71298  0.04932  0.78021  1.0000
  H   H3694     1.0  0.62107  0.08976  0.85807  1.0000
  H   H3695     1.0  0.75761  0.08371  0.79069  1.0000
  S   S844      1.0  0.61305  0.15652  0.67962  1.0000
  H   H3696     1.0  0.65739  0.34389  0.89286  1.0000
  N   N206      1.0  0.68100  0.10550  0.61372  1.0000
  C   C3080     1.0  0.73903  0.26133  0.66447  1.0000
  H   H3697     1.0  0.62172  0.20896  0.90633  1.0000
  S   S845      1.0  0.64200  0.12369  0.78370  1.0000
  C   C3081     1.0  0.74215  0.15228  0.95786  1.0000
  H   H3698     1.0  0.61933  0.06450  0.62833  1.0000
  C   C3082     1.0  0.65696  0.99123  0.85483  1.0000
  H   H3699     1.0  0.64489  0.08590  0.58801  1.0000
  H   H3700     1.0  0.66656  0.12904  0.61170  1.0000
  H   H3701     1.0  0.64978  0.11264  0.57811  1.0000
  C   C3083     1.0  0.67955  0.23376  0.94224  1.0000
  C   C3084     1.0  0.62160  0.07553  0.62837  1.0000
  C   C3085     1.0  0.76113  0.09051  0.77854  1.0000
  C   C3086     1.0  0.64469  0.10468  0.79508  1.0000
  S   S846      1.0  0.65020  0.04830  0.87372  1.0000
  H   H3702     1.0  0.78845  0.13829  0.73607  1.0000
  H   H3703     1.0  0.62257  0.14159  0.70929  1.0000
  Fe  Fe427     1.0  0.66114  0.05419  0.84812  1.0000
  H   H3704     1.0  0.66339  0.05355  0.79711  1.0000
  C   C3087     1.0  0.67529  0.21519  0.93030  1.0000
  S   S847      1.0  0.78629  0.15091  0.68026  1.0000
  H   H3705     1.0  0.59886  0.20396  0.76002  1.0000
  H   H3706     1.0  0.61460  0.11404  0.61032  1.0000
  C   C3088     1.0  0.62771  0.10406  0.62858  1.0000
  H   H3707     1.0  0.68715  0.11444  0.75266  1.0000
  H   H3708     1.0  0.70108  0.04464  0.80930  1.0000
  Fe  Fe428     1.0  0.62410  0.25169  0.84448  1.0000
  H   H3709     1.0  0.63936  0.34557  0.87697  1.0000
  S   S848      1.0  0.63748  0.22689  0.84849  1.0000
  H   H3710     1.0  0.77983  0.28502  0.80181  1.0000
  C   C3089     1.0  0.61491  0.38329  0.93666  1.0000
  S   S849      1.0  0.60586  0.40849  0.95080  1.0000
  C   C3090     1.0  0.61203  0.37262  0.92979  1.0000
  C   C3091     1.0  0.70231  0.00671  0.78410  1.0000
  H   H3711     1.0  0.59362  0.12634  0.84180  1.0000
  H   H3712     1.0  0.63454  0.10164  0.86826  1.0000
  H   H3713     1.0  0.72271  0.12300  0.97595  1.0000
  H   H3714     1.0  0.70029  0.05393  0.76650  1.0000
  H   H3715     1.0  0.60237  0.26249  0.92392  1.0000
  H   H3716     1.0  0.71673  0.25573  0.88863  1.0000
  C   C3092     1.0  0.64744  0.17644  0.97449  1.0000
  Fe  Fe429     1.0  0.73196  0.22074  0.96996  1.0000
  C   C3093     1.0  0.61438  0.15261  0.71045  1.0000
  N   N207      1.0  0.64205  0.36539  0.88389  1.0000
  C   C3094     1.0  0.64992  0.35481  0.89643  1.0000
  C   C3095     1.0  0.63221  0.35663  0.88053  1.0000
  C   C3096     1.0  0.63304  0.38012  0.88888  1.0000
  C   C3097     1.0  0.64080  0.38967  0.89270  1.0000
  C   C3098     1.0  0.61652  0.38535  0.89031  1.0000
  C   C3099     1.0  0.63251  0.40327  0.89808  1.0000
  C   C3100     1.0  0.69794  0.32848  0.96025  1.0000
  C   C3101     1.0  0.61629  0.40783  0.89974  1.0000
  H   H3717     1.0  0.65779  0.36029  0.89955  1.0000
  H   H3718     1.0  0.64122  0.35143  0.90734  1.0000
  H   H3719     1.0  0.62638  0.36365  0.87076  1.0000
  H   H3720     1.0  0.62304  0.35327  0.89109  1.0000
  H   H3721     1.0  0.65334  0.38655  0.89183  1.0000
  H   H3722     1.0  0.60949  0.37885  0.88790  1.0000
  H   H3723     1.0  0.63865  0.41014  0.90130  1.0000
  H   H3724     1.0  0.69230  0.36029  0.95872  1.0000
  H   H3725     1.0  0.75057  0.24535  0.90918  1.0000
  C   C3102     1.0  0.61833  0.12113  0.85635  1.0000
  C   C3103     1.0  0.73965  0.98456  0.74996  1.0000
  N   N208      1.0  0.69116  0.06359  0.95006  1.0000
  C   C3104     1.0  0.70701  0.06195  0.93948  1.0000
  H   H3726     1.0  0.78526  0.25049  0.66709  1.0000
  H   H3727     1.0  0.69646  0.08268  0.95621  1.0000
  C   C3105     1.0  0.67906  0.06121  0.94341  1.0000
  C   C3106     1.0  0.68278  0.05537  0.92954  1.0000
  C   C3107     1.0  0.66296  0.06441  0.95107  1.0000
  C   C3108     1.0  0.67102  0.05332  0.92360  1.0000
  C   C3109     1.0  0.65129  0.06248  0.94490  1.0000
  C   C3110     1.0  0.65532  0.05704  0.93113  1.0000
  S   S850      1.0  0.59358  0.36091  0.91857  1.0000
  C   C3111     1.0  0.78614  0.25303  0.80204  1.0000
  C   C3112     1.0  0.78528  0.23988  0.82927  1.0000
  H   H3728     1.0  0.78701  0.12504  0.66786  1.0000
  C   C3113     1.0  0.72070  0.01081  0.82296  1.0000
  C   C3114     1.0  0.59905  0.99805  0.61449  1.0000
  H   H3729     1.0  0.77814  0.22880  0.73619  1.0000
  C   C3115     1.0  0.78543  0.19918  0.73218  1.0000
  H   H3730     1.0  0.72047  0.29157  0.96183  1.0000
  C   C3116     1.0  0.73477  0.14021  0.95964  1.0000
  H   H3731     1.0  0.60983  0.41806  0.90446  1.0000
  H   H3732     1.0  0.60414  0.32130  0.85879  1.0000
  H   H3733     1.0  0.66028  0.46477  0.90747  1.0000
  H   H3734     1.0  0.64629  0.05588  0.92610  1.0000
  H   H3735     1.0  0.67178  0.05480  0.77662  1.0000
  Fe  Fe430     1.0  0.59371  0.06866  0.60691  1.0000
  Fe  Fe431     1.0  0.65910  0.42129  0.94407  1.0000
  H   H3736     1.0  0.67161  0.06994  0.78592  1.0000
  C   C3117     1.0  0.65416  0.36894  0.86945  1.0000
  C   C3118     1.0  0.75756  0.12483  0.73508  1.0000
  H   H3737     1.0  0.62365  0.11632  0.81935  1.0000
  H   H3738     1.0  0.64108  0.14024  0.73040  1.0000
  C   C3119     1.0  0.72200  0.25878  0.69545  1.0000
  C   C3120     1.0  0.61112  0.32165  0.90527  1.0000
  C   C3121     1.0  0.69107  0.11654  0.74004  1.0000
  C   C3122     1.0  0.72770  0.25184  0.66987  1.0000
  C   C3123     1.0  0.63369  0.30818  0.88885  1.0000
  S   S851      1.0  0.67189  0.12044  0.95122  1.0000
  C   C3124     1.0  0.62987  0.18828  0.92296  1.0000
  C   C3125     1.0  0.64676  0.20442  0.90387  1.0000
  C   C3126     1.0  0.61391  0.18095  0.82401  1.0000
  C   C3127     1.0  0.71524  0.24383  0.89121  1.0000
  C   C3128     1.0  0.74241  0.11353  0.78509  1.0000
  C   C3129     1.0  0.60248  0.39461  0.94263  1.0000
  H   H3739     1.0  0.66527  0.10610  0.80155  1.0000
  H   H3740     1.0  0.70771  0.20206  0.89987  1.0000
  S   S852      1.0  0.64589  0.13620  0.64977  1.0000
  C   C3130     1.0  0.71928  0.25080  0.68569  1.0000
  C   C3131     1.0  0.63178  0.20139  0.91067  1.0000
  C   C3132     1.0  0.78549  0.21983  0.74382  1.0000
  H   H3741     1.0  0.61741  0.13431  0.82570  1.0000
  H   H3742     1.0  0.74636  0.15877  0.94618  1.0000
  H   H3743     1.0  0.76319  0.27585  0.82797  1.0000
  C   C3133     1.0  0.59805  0.21583  0.77791  1.0000
  H   H3744     1.0  0.73164  0.25824  0.63759  1.0000
  H   H3745     1.0  0.78469  0.99365  0.74080  1.0000
  C   C3134     1.0  0.59301  0.24503  0.78927  1.0000
  C   C3135     1.0  0.60040  0.11418  0.84530  1.0000
  H   H3746     1.0  0.69559  0.03974  0.96295  1.0000
  C   C3136     1.0  0.75311  0.21868  0.90279  1.0000
  C   C3137     1.0  0.59292  0.26789  0.91784  1.0000
  H   H3747     1.0  0.60301  0.14345  0.84829  1.0000
  H   H3748     1.0  0.77884  0.08525  0.67695  1.0000
  C   C3138     1.0  0.62806  0.12090  0.87908  1.0000
  H   H3749     1.0  0.73187  0.24030  0.91833  1.0000
  H   H3750     1.0  0.70142  0.05323  0.97030  1.0000
  C   C3139     1.0  0.66493  0.99307  0.87755  1.0000
  H   H3751     1.0  0.77434  0.28456  0.83531  1.0000
  H   H3752     1.0  0.59243  0.13092  0.73101  1.0000
  H   H3753     1.0  0.74476  0.11041  0.75401  1.0000
  C   C3140     1.0  0.59691  0.99744  0.58868  1.0000
  C   C3141     1.0  0.59887  0.12656  0.66524  1.0000
  C   C3142     1.0  0.61059  0.14412  0.86816  1.0000
  H   H3754     1.0  0.76559  0.10200  0.80037  1.0000
  C   C3143     1.0  0.75088  0.24022  0.88061  1.0000
  H   H3755     1.0  0.73410  0.11130  0.77941  1.0000
  H   H3756     1.0  0.78247  0.21549  0.80829  1.0000
  H   H3757     1.0  0.69232  0.98690  0.79735  1.0000
  H   H3758     1.0  0.65324  0.99686  0.84392  1.0000
  H   H3759     1.0  0.77637  0.20746  0.72599  1.0000
  C   C3144     1.0  0.59788  0.17653  0.69909  1.0000
  Fe  Fe432     1.0  0.59788  0.24497  0.87238  1.0000
  C   C3145     1.0  0.59141  0.21793  0.79350  1.0000
  C   C3146     1.0  0.59161  0.18915  0.84400  1.0000
  C   C3147     1.0  0.78344  0.23117  0.91916  1.0000
  H   H3760     1.0  0.59916  0.25028  0.90410  1.0000
  H   H3761     1.0  0.62891  0.99559  0.64045  1.0000
  S   S853      1.0  0.60313  0.04884  0.59416  1.0000
  H   H3762     1.0  0.60015  0.24558  0.77712  1.0000
  H   H3763     1.0  0.61608  0.21187  0.80601  1.0000
  S   S854      1.0  0.72535  0.24431  0.97595  1.0000
  H   H3764     1.0  0.78446  0.23913  0.78712  1.0000
  H   H3765     1.0  0.59981  0.01754  0.59460  1.0000
  C   C3148     1.0  0.60547  0.17214  0.82032  1.0000
  H   H3766     1.0  0.71569  0.06472  0.94428  1.0000
  C   C3149     1.0  0.61007  0.13679  0.85675  1.0000
  C   C3150     1.0  0.78453  0.23941  0.79895  1.0000
  C   C3151     1.0  0.78348  0.22606  0.81085  1.0000
  H   H3767     1.0  0.59309  0.12262  0.70942  1.0000
  H   H3768     1.0  0.62053  0.22464  0.78727  1.0000
  H   H3769     1.0  0.78558  0.23946  0.84119  1.0000
  H   H3770     1.0  0.73457  0.01820  0.79997  1.0000
  C   C3152     1.0  0.72930  0.00887  0.80809  1.0000
  H   H3771     1.0  0.68618  0.23659  0.94895  1.0000
  H   H3772     1.0  0.78877  0.26359  0.93627  1.0000
  H   H3773     1.0  0.64003  0.00002  0.66034  1.0000
  C   C3153     1.0  0.77516  0.11234  0.69753  1.0000
  H   H3774     1.0  0.77306  0.12521  0.69577  1.0000
  C   C3154     1.0  0.63527  0.98572  0.64777  1.0000
  C   C3155     1.0  0.59496  0.10413  0.65861  1.0000
  C   C3156     1.0  0.71606  0.98414  0.82950  1.0000
  H   H3775     1.0  0.78717  0.26281  0.79216  1.0000
  C   C3157     1.0  0.69279  0.35795  0.97127  1.0000
  H   H3776     1.0  0.77753  0.21496  0.75470  1.0000
  H   H3777     1.0  0.60392  0.15601  0.86830  1.0000
  C   C3158     1.0  0.59287  0.18090  0.71358  1.0000
  S   S855      1.0  0.78980  0.18894  0.64771  1.0000
  H   H3778     1.0  0.78937  0.08475  0.69113  1.0000
  C   C3159     1.0  0.79023  0.28097  0.80728  1.0000
  H   H3779     1.0  0.59672  0.35965  0.97827  1.0000
  H   H3780     1.0  0.66563  0.55923  0.99664  1.0000
  H   H3781     1.0  0.77937  0.93155  0.15908  1.0000
  S   S856      1.0  0.68112  0.52644  0.99819  1.0000
  Fe  Fe433     1.0  0.69931  0.56086  0.08862  1.0000
  S   S857      1.0  0.67686  0.57527  0.08208  1.0000
  S   S858      1.0  0.71549  0.57469  0.09119  1.0000
  Fe  Fe434     1.0  0.66587  0.55614  0.09865  1.0000
  S   S859      1.0  0.64292  0.56551  0.11377  1.0000
  Fe  Fe435     1.0  0.68158  0.56108  0.06413  1.0000
  S   S860      1.0  0.67539  0.57315  0.04075  1.0000
  H   H3782     1.0  0.75639  0.62810  0.98395  1.0000
  C   C3160     1.0  0.68484  0.54448  0.03271  1.0000
  C   C3161     1.0  0.69006  0.93914  0.11409  1.0000
  H   H3783     1.0  0.74245  0.94473  0.18737  1.0000
  C   C3162     1.0  0.74005  0.84343  0.32795  1.0000
  S   S861      1.0  0.61509  0.89856  0.35826  1.0000
  H   H3784     1.0  0.66369  0.57741  0.01326  1.0000
  S   S862      1.0  0.77484  0.93755  0.25279  1.0000
  S   S863      1.0  0.66479  0.78727  0.98916  1.0000
  Fe  Fe436     1.0  0.71864  0.87050  0.16632  1.0000
  S   S864      1.0  0.69768  0.87777  0.18464  1.0000
  S   S865      1.0  0.74252  0.86609  0.17129  1.0000
  Fe  Fe437     1.0  0.69901  0.87175  0.14356  1.0000
  S   S866      1.0  0.67645  0.87981  0.15996  1.0000
  S   S867      1.0  0.69744  0.87010  0.11962  1.0000
  Fe  Fe438     1.0  0.68902  0.89543  0.16458  1.0000
  S   S868      1.0  0.67602  0.91968  0.16778  1.0000
  Fe  Fe439     1.0  0.68718  0.86142  0.17842  1.0000
  S   S869      1.0  0.67471  0.84496  0.19797  1.0000
  S   S870      1.0  0.71078  0.88922  0.14646  1.0000
  S   S871      1.0  0.70905  0.85228  0.16186  1.0000
  Fe  Fe440     1.0  0.76590  0.90594  0.22080  1.0000
  S   S872      1.0  0.75817  0.90767  0.24590  1.0000
  S   S873      1.0  0.74728  0.91493  0.20653  1.0000
  C   C3163     1.0  0.60298  0.56218  0.04180  1.0000
  C   C3164     1.0  0.59532  0.85204  0.39668  1.0000
  Fe  Fe441     1.0  0.77401  0.88406  0.25106  1.0000
  S   S874      1.0  0.76731  0.86341  0.26979  1.0000
  Fe  Fe442     1.0  0.77967  0.91710  0.24151  1.0000
  H   H3785     1.0  0.63452  0.59729  0.11929  1.0000
  C   C3165     1.0  0.62385  0.79063  0.16635  1.0000
  C   C3166     1.0  0.62070  0.78359  0.15615  1.0000
  S   S875      1.0  0.62504  0.79057  0.21070  1.0000
  H   H3786     1.0  0.60577  0.68739  0.06472  1.0000
  S   S876      1.0  0.66862  0.54306  0.08015  1.0000
  S   S877      1.0  0.61496  0.83237  0.18518  1.0000
  Fe  Fe443     1.0  0.61317  0.79204  0.23553  1.0000
  S   S878      1.0  0.62612  0.78718  0.25489  1.0000
  Fe  Fe444     1.0  0.66239  0.83373  0.31612  1.0000
  S   S879      1.0  0.66643  0.81651  0.30111  1.0000
  S   S880      1.0  0.64394  0.83325  0.33857  1.0000
  Fe  Fe445     1.0  0.68425  0.85266  0.29208  1.0000
  S   S881      1.0  0.68969  0.83772  0.27462  1.0000
  S   S882      1.0  0.69351  0.87424  0.28734  1.0000
  Fe  Fe446     1.0  0.66392  0.83772  0.28156  1.0000
  S   S883      1.0  0.64862  0.84338  0.26406  1.0000
  Fe  Fe447     1.0  0.69188  0.81785  0.29559  1.0000
  S   S884      1.0  0.71162  0.79661  0.29275  1.0000
  S   S885      1.0  0.65835  0.85481  0.29690  1.0000
  S   S886      1.0  0.68805  0.83290  0.31271  1.0000
  N   N209      1.0  0.75895  0.94937  0.16547  1.0000
  C   C3167     1.0  0.77578  0.81965  0.26009  1.0000
  H   H3787     1.0  0.61909  0.86309  0.20568  1.0000
  S   S887      1.0  0.77493  0.78896  0.31406  1.0000
  C   C3168     1.0  0.74266  0.94974  0.17474  1.0000
  Fe  Fe448     1.0  0.68670  0.80115  0.05794  1.0000
  S   S888      1.0  0.70759  0.79052  0.06913  1.0000
  S   S889      1.0  0.69092  0.81345  0.03229  1.0000
  Fe  Fe449     1.0  0.66438  0.78698  0.08641  1.0000
  S   S890      1.0  0.68329  0.77519  0.09970  1.0000
  S   S891      1.0  0.64030  0.78309  0.09930  1.0000
  Fe  Fe450     1.0  0.69151  0.79777  0.09084  1.0000
  S   S892      1.0  0.69985  0.80291  0.10984  1.0000
  Fe  Fe451     1.0  0.69760  0.76908  0.07719  1.0000
  S   S893      1.0  0.71308  0.74554  0.07565  1.0000
  S   S894      1.0  0.67122  0.81034  0.07914  1.0000
  S   S895      1.0  0.67815  0.77894  0.06439  1.0000
  Fe  Fe452     1.0  0.72409  0.61536  0.15139  1.0000
  S   S896      1.0  0.72154  0.63694  0.13236  1.0000
  S   S897      1.0  0.71142  0.59647  0.15313  1.0000
  Fe  Fe453     1.0  0.74600  0.62666  0.16436  1.0000
  S   S898      1.0  0.74520  0.64896  0.14597  1.0000
  S   S899      1.0  0.76240  0.61927  0.18131  1.0000
  Fe  Fe454     1.0  0.71940  0.64988  0.15073  1.0000
  S   S900      1.0  0.70190  0.67297  0.14969  1.0000
  Fe  Fe455     1.0  0.74737  0.63400  0.12936  1.0000
  S   S901      1.0  0.59112  0.68742  0.16022  1.0000
  S   S902      1.0  0.71978  0.62853  0.17043  1.0000
  S   S903      1.0  0.75030  0.61144  0.14713  1.0000
  Fe  Fe456     1.0  0.61723  0.68153  0.15132  1.0000
  S   S904      1.0  0.61581  0.68102  0.12729  1.0000
  S   S905      1.0  0.63288  0.66248  0.16527  1.0000
  C   C3169     1.0  0.68120  0.96062  0.12810  1.0000
  Fe  Fe457     1.0  0.61604  0.70654  0.12190  1.0000
  S   S906      1.0  0.63134  0.71659  0.09962  1.0000
  C   C3170     1.0  0.60132  0.57418  0.10174  1.0000
  S   S907      1.0  0.61990  0.70636  0.14517  1.0000
  H   H3788     1.0  0.62763  0.73971  0.17615  1.0000
  C   C3171     1.0  0.72101  0.87045  0.22256  1.0000
  C   C3172     1.0  0.68291  0.66972  0.15376  1.0000
  C   C3173     1.0  0.67842  0.65732  0.16575  1.0000
  C   C3174     1.0  0.66299  0.65522  0.16930  1.0000
  C   C3175     1.0  0.65215  0.66526  0.16062  1.0000
  C   C3176     1.0  0.65680  0.67736  0.14833  1.0000
  C   C3177     1.0  0.67210  0.67971  0.14504  1.0000
  H   H3789     1.0  0.68675  0.64956  0.17252  1.0000
  H   H3790     1.0  0.65949  0.64578  0.17878  1.0000
  H   H3791     1.0  0.64874  0.68475  0.14115  1.0000
  H   H3792     1.0  0.67571  0.68896  0.13545  1.0000
  C   C3178     1.0  0.63329  0.73529  0.09933  1.0000
  C   C3179     1.0  0.64618  0.74092  0.08923  1.0000
  C   C3180     1.0  0.64835  0.75555  0.08924  1.0000
  C   C3181     1.0  0.63740  0.76488  0.09896  1.0000
  C   C3182     1.0  0.62435  0.75933  0.10895  1.0000
  C   C3183     1.0  0.62242  0.74443  0.10932  1.0000
  H   H3793     1.0  0.65466  0.73384  0.08156  1.0000
  H   H3794     1.0  0.65848  0.75956  0.08163  1.0000
  H   H3795     1.0  0.61581  0.76648  0.11652  1.0000
  H   H3796     1.0  0.61241  0.74014  0.11717  1.0000
  H   H3797     1.0  0.73135  0.87345  0.24591  1.0000
  C   C3184     1.0  0.75410  0.74154  0.09689  1.0000
  C   C3185     1.0  0.73872  0.74596  0.10524  1.0000
  C   C3186     1.0  0.72602  0.74753  0.09857  1.0000
  C   C3187     1.0  0.72875  0.74396  0.08391  1.0000
  C   C3188     1.0  0.74409  0.73950  0.07563  1.0000
  C   C3189     1.0  0.75673  0.73876  0.08192  1.0000
  H   H3798     1.0  0.73663  0.74811  0.11682  1.0000
  H   H3799     1.0  0.71412  0.75109  0.10493  1.0000
  H   H3800     1.0  0.74624  0.73692  0.06422  1.0000
  C   C3190     1.0  0.77354  0.65085  0.20665  1.0000
  H   H3801     1.0  0.66417  0.82900  0.11766  1.0000
  C   C3191     1.0  0.77162  0.82664  0.32074  1.0000
  C   C3192     1.0  0.76662  0.63183  0.19066  1.0000
  C   C3193     1.0  0.75901  0.64763  0.18915  1.0000
  C   C3194     1.0  0.76239  0.65705  0.19720  1.0000
  C   C3195     1.0  0.75140  0.84992  0.31540  1.0000
  C   C3196     1.0  0.75519  0.74063  0.99373  1.0000
  H   H3802     1.0  0.75033  0.65248  0.18200  1.0000
  H   H3803     1.0  0.75629  0.66920  0.19614  1.0000
  S   S908      1.0  0.59608  0.77769  0.23703  1.0000
  C   C3197     1.0  0.78115  0.98194  0.23968  1.0000
  H   H3804     1.0  0.61373  0.72935  0.16272  1.0000
  S   S909      1.0  0.71732  0.97014  0.14995  1.0000
  C   C3198     1.0  0.72930  0.79486  0.29833  1.0000
  C   C3199     1.0  0.73238  0.80730  0.30236  1.0000
  C   C3200     1.0  0.74651  0.80546  0.30690  1.0000
  C   C3201     1.0  0.75759  0.79114  0.30762  1.0000
  C   C3202     1.0  0.75462  0.77883  0.30330  1.0000
  C   C3203     1.0  0.74056  0.78072  0.29863  1.0000
  H   H3805     1.0  0.72388  0.81829  0.30197  1.0000
  H   H3806     1.0  0.74882  0.81516  0.30985  1.0000
  H   H3807     1.0  0.76297  0.76772  0.30388  1.0000
  H   H3808     1.0  0.73828  0.77106  0.29549  1.0000
  C   C3204     1.0  0.63123  0.80320  0.25802  1.0000
  C   C3205     1.0  0.62939  0.81773  0.24757  1.0000
  C   C3206     1.0  0.63463  0.83000  0.24962  1.0000
  C   C3207     1.0  0.64173  0.82785  0.26213  1.0000
  C   C3208     1.0  0.64323  0.81343  0.27281  1.0000
  C   C3209     1.0  0.63786  0.80119  0.27083  1.0000
  H   H3809     1.0  0.62421  0.81943  0.23775  1.0000
  H   H3810     1.0  0.63353  0.84101  0.24123  1.0000
  H   H3811     1.0  0.64854  0.81162  0.28257  1.0000
  H   H3812     1.0  0.63916  0.79002  0.27907  1.0000
  H   H3813     1.0  0.74577  0.62508  0.27383  1.0000
  C   C3210     1.0  0.77637  0.96803  0.24820  1.0000
  H   H3814     1.0  0.62279  0.88427  0.31521  1.0000
  H   H3815     1.0  0.64262  0.86869  0.20832  1.0000
  H   H3816     1.0  0.70805  0.94370  0.09278  1.0000
  C   C3211     1.0  0.64875  0.60649  0.12841  1.0000
  H   H3817     1.0  0.64560  0.72317  0.20312  1.0000
  H   H3818     1.0  0.66730  0.92087  0.12807  1.0000
  C   C3212     1.0  0.63505  0.60677  0.12406  1.0000
  H   H3819     1.0  0.66384  0.48839  0.98032  1.0000
  C   C3213     1.0  0.74682  0.86613  0.27510  1.0000
  C   C3214     1.0  0.73753  0.88110  0.27569  1.0000
  C   C3215     1.0  0.72115  0.88348  0.27937  1.0000
  C   C3216     1.0  0.71399  0.87087  0.28253  1.0000
  C   C3217     1.0  0.72323  0.85579  0.28221  1.0000
  C   C3218     1.0  0.73968  0.85339  0.27867  1.0000
  H   H3820     1.0  0.74295  0.89082  0.27371  1.0000
  H   H3821     1.0  0.71402  0.89510  0.27988  1.0000
  H   H3822     1.0  0.71772  0.84599  0.28476  1.0000
  H   H3823     1.0  0.74681  0.84172  0.27852  1.0000
  C   C3219     1.0  0.68781  0.93327  0.16387  1.0000
  C   C3220     1.0  0.68105  0.94803  0.16748  1.0000
  H   H3824     1.0  0.60445  0.70877  0.09586  1.0000
  C   C3221     1.0  0.70588  0.95598  0.15598  1.0000
  C   C3222     1.0  0.71268  0.94115  0.15259  1.0000
  C   C3223     1.0  0.70370  0.92977  0.15665  1.0000
  H   H3825     1.0  0.66873  0.95079  0.17305  1.0000
  C   C3224     1.0  0.77946  0.95052  0.17923  1.0000
  H   H3826     1.0  0.72489  0.93848  0.14667  1.0000
  H   H3827     1.0  0.70904  0.91842  0.15392  1.0000
  C   C3225     1.0  0.69773  0.85145  0.11702  1.0000
  C   C3226     1.0  0.70134  0.83790  0.12839  1.0000
  C   C3227     1.0  0.70196  0.82315  0.12595  1.0000
  C   C3228     1.0  0.69871  0.82180  0.11225  1.0000
  C   C3229     1.0  0.69491  0.83531  0.10090  1.0000
  C   C3230     1.0  0.69451  0.85009  0.10326  1.0000
  H   H3828     1.0  0.70385  0.83875  0.13901  1.0000
  H   H3829     1.0  0.70494  0.81275  0.13478  1.0000
  H   H3830     1.0  0.69246  0.83439  0.09024  1.0000
  H   H3831     1.0  0.69174  0.86051  0.09438  1.0000
  C   C3231     1.0  0.65837  0.84132  0.19402  1.0000
  C   C3232     1.0  0.64980  0.83112  0.20535  1.0000
  C   C3233     1.0  0.63655  0.82829  0.20253  1.0000
  C   C3234     1.0  0.63167  0.83582  0.18852  1.0000
  C   C3235     1.0  0.64015  0.84609  0.17722  1.0000
  C   C3236     1.0  0.65363  0.84865  0.17988  1.0000
  H   H3832     1.0  0.65334  0.82543  0.21633  1.0000
  H   H3833     1.0  0.63004  0.82037  0.21127  1.0000
  H   H3834     1.0  0.63635  0.85208  0.16642  1.0000
  H   H3835     1.0  0.66027  0.85632  0.17100  1.0000
  C   C3237     1.0  0.74443  0.88046  0.17973  1.0000
  C   C3238     1.0  0.73293  0.89431  0.18041  1.0000
  C   C3239     1.0  0.73417  0.90516  0.18813  1.0000
  C   C3240     1.0  0.74674  0.90206  0.19546  1.0000
  C   C3241     1.0  0.75849  0.88850  0.19427  1.0000
  C   C3242     1.0  0.75735  0.87774  0.18641  1.0000
  H   H3836     1.0  0.72301  0.89663  0.17509  1.0000
  H   H3837     1.0  0.72519  0.91578  0.18866  1.0000
  H   H3838     1.0  0.76850  0.88624  0.19937  1.0000
  H   H3839     1.0  0.76638  0.86715  0.18574  1.0000
  C   C3243     1.0  0.67288  0.79374  0.00107  1.0000
  C   C3244     1.0  0.68631  0.80003  0.99504  1.0000
  C   C3245     1.0  0.69165  0.80632  0.00460  1.0000
  C   C3246     1.0  0.68392  0.80583  0.02036  1.0000
  C   C3247     1.0  0.67073  0.79922  0.02642  1.0000
  C   C3248     1.0  0.66521  0.79325  0.01680  1.0000
  C   C3249     1.0  0.78594  0.95895  0.18561  1.0000
  H   H3840     1.0  0.70195  0.81131  0.99986  1.0000
  H   H3841     1.0  0.66448  0.79906  0.03843  1.0000
  H   H3842     1.0  0.65481  0.78841  0.02153  1.0000
  C   C3250     1.0  0.62275  0.88069  0.35212  1.0000
  C   C3251     1.0  0.61400  0.86911  0.35670  1.0000
  C   C3252     1.0  0.62060  0.85457  0.35253  1.0000
  C   C3253     1.0  0.63586  0.85166  0.34339  1.0000
  C   C3254     1.0  0.64448  0.86338  0.33837  1.0000
  C   C3255     1.0  0.63801  0.87779  0.34293  1.0000
  C   C3256     1.0  0.69022  0.49288  0.08602  1.0000
  H   H3843     1.0  0.60241  0.87112  0.36403  1.0000
  H   H3844     1.0  0.65627  0.86122  0.33129  1.0000
  H   H3845     1.0  0.64484  0.88670  0.33934  1.0000
  H   H3846     1.0  0.72730  0.87505  0.32502  1.0000
  C   C3257     1.0  0.71798  0.85172  0.34847  1.0000
  H   H3847     1.0  0.65964  0.51249  0.05893  1.0000
  C   C3258     1.0  0.71374  0.84316  0.32742  1.0000
  C   C3259     1.0  0.76083  0.81998  0.33312  1.0000
  C   C3260     1.0  0.71291  0.58145  0.10839  1.0000
  C   C3261     1.0  0.70483  0.57439  0.12296  1.0000
  C   C3262     1.0  0.70449  0.57903  0.13662  1.0000
  C   C3263     1.0  0.71207  0.59084  0.13580  1.0000
  C   C3264     1.0  0.71974  0.59820  0.12118  1.0000
  C   C3265     1.0  0.72014  0.59352  0.10755  1.0000
  H   H3848     1.0  0.63295  0.56666  0.01005  1.0000
  H   H3849     1.0  0.69856  0.57325  0.14790  1.0000
  H   H3850     1.0  0.72549  0.60737  0.12040  1.0000
  H   H3851     1.0  0.72632  0.59907  0.09631  1.0000
  H   H3852     1.0  0.77974  0.64210  0.24864  1.0000
  H   H3853     1.0  0.61104  0.69358  0.08528  1.0000
  C   C3266     1.0  0.61364  0.57534  0.10751  1.0000
  C   C3267     1.0  0.62704  0.56321  0.10790  1.0000
  C   C3268     1.0  0.62785  0.54967  0.10302  1.0000
  C   C3269     1.0  0.61524  0.54826  0.09781  1.0000
  H   H3854     1.0  0.77520  0.84668  0.30203  1.0000
  H   H3855     1.0  0.61292  0.58578  0.11137  1.0000
  H   H3856     1.0  0.63809  0.54016  0.10355  1.0000
  H   H3857     1.0  0.61578  0.53770  0.09425  1.0000
  C   C3270     1.0  0.67944  0.53958  0.00992  1.0000
  C   C3271     1.0  0.67678  0.56006  0.02915  1.0000
  C   C3272     1.0  0.66988  0.56536  0.01609  1.0000
  C   C3273     1.0  0.67107  0.55509  0.00659  1.0000
  H   H3858     1.0  0.69482  0.88322  0.25363  1.0000
  C   C3274     1.0  0.76661  0.95797  0.17176  1.0000
  C   C3275     1.0  0.61976  0.62246  0.02204  1.0000
  C   C3276     1.0  0.61058  0.62717  0.03567  1.0000
  C   C3277     1.0  0.69275  0.89554  0.21650  1.0000
  C   C3278     1.0  0.68341  0.48823  0.03088  1.0000
  H   H3859     1.0  0.66949  0.82343  0.14252  1.0000
  H   H3860     1.0  0.64171  0.60894  0.01163  1.0000
  H   H3861     1.0  0.60059  0.56161  0.05460  1.0000
  H   H3862     1.0  0.78453  0.79215  0.27864  1.0000
  C   C3279     1.0  0.77714  0.64630  0.10436  1.0000
  H   H3863     1.0  0.70575  0.85871  0.35125  1.0000
  H   H3864     1.0  0.62671  0.87616  0.39180  1.0000
  C   C3280     1.0  0.74524  0.82813  0.33661  1.0000
  C   C3281     1.0  0.69204  0.96866  0.11728  1.0000
  H   H3865     1.0  0.76758  0.62919  0.24978  1.0000
  H   H3866     1.0  0.65392  0.63137  0.15766  1.0000
  H   H3867     1.0  0.65751  0.60224  0.16216  1.0000
  H   H3868     1.0  0.73720  0.82208  0.34583  1.0000
  C   C3282     1.0  0.78330  0.64304  0.11769  1.0000
  C   C3283     1.0  0.62199  0.61900  0.12610  1.0000
  C   C3284     1.0  0.77411  0.62297  0.27733  1.0000
  C   C3285     1.0  0.72020  0.86809  0.32270  1.0000
  H   H3869     1.0  0.71462  0.83088  0.33430  1.0000
  H   H3870     1.0  0.74859  0.86132  0.30788  1.0000
  C   C3286     1.0  0.62257  0.63098  0.13256  1.0000
  H   H3871     1.0  0.69114  0.49557  0.03050  1.0000
  N   N210      1.0  0.64930  0.81819  0.13853  1.0000
  C   C3287     1.0  0.76691  0.84158  0.31189  1.0000
  H   H3872     1.0  0.68861  0.61793  0.12925  1.0000
  H   H3873     1.0  0.66139  0.64234  0.13840  1.0000
  H   H3874     1.0  0.71777  0.83983  0.35599  1.0000
  H   H3875     1.0  0.72274  0.86884  0.30990  1.0000
  C   C3288     1.0  0.68471  0.90895  0.20768  1.0000
  H   H3876     1.0  0.61230  0.64040  0.13429  1.0000
  H   H3877     1.0  0.65540  0.82181  0.97878  1.0000
  H   H3878     1.0  0.77198  0.63671  0.98350  1.0000
  N   N211      1.0  0.72333  0.85157  0.33152  1.0000
  C   C3289     1.0  0.63618  0.63078  0.13706  1.0000
  H   H3879     1.0  0.70282  0.48648  0.11963  1.0000
  H   H3880     1.0  0.67518  0.62784  0.11655  1.0000
  H   H3881     1.0  0.59445  0.57261  0.03695  1.0000
  H   H3882     1.0  0.76100  0.92656  0.16124  1.0000
  S   S910      1.0  0.70519  0.54815  0.06896  1.0000
  H   H3883     1.0  0.59213  0.69346  0.19184  1.0000
  C   C3290     1.0  0.76776  0.63976  0.25356  1.0000
  C   C3291     1.0  0.60651  0.75179  0.18937  1.0000
  H   H3884     1.0  0.78373  0.61344  0.20130  1.0000
  C   C3292     1.0  0.63032  0.54904  0.04056  1.0000
  H   H3885     1.0  0.60065  0.66383  0.11350  1.0000
  C   C3293     1.0  0.76215  0.57916  0.11097  1.0000
  S   S911      1.0  0.68806  0.54234  0.10659  1.0000
  C   C3294     1.0  0.65309  0.69046  0.18889  1.0000
  H   H3886     1.0  0.73656  0.94293  0.17079  1.0000
  H   H3887     1.0  0.71593  0.91315  0.22690  1.0000
  H   H3888     1.0  0.61631  0.83357  0.39133  1.0000
  C   C3295     1.0  0.68787  0.92350  0.20599  1.0000
  H   H3889     1.0  0.59804  0.66714  0.05749  1.0000
  H   H3890     1.0  0.78276  0.66312  0.29785  1.0000
  H   H3891     1.0  0.66838  0.50797  0.09437  1.0000
  C   C3296     1.0  0.63292  0.87305  0.23148  1.0000
  S   S912      1.0  0.77989  0.88145  0.22627  1.0000
  C   C3297     1.0  0.70580  0.91366  0.10990  1.0000
  H   H3892     1.0  0.75094  0.96895  0.14744  1.0000
  C   C3298     1.0  0.59404  0.87951  0.32542  1.0000
  H   H3893     1.0  0.67609  0.90806  0.20193  1.0000
  H   H3894     1.0  0.64508  0.84308  0.13674  1.0000
  Fe  Fe458     1.0  0.59369  0.71245  0.15223  1.0000
  H   H3895     1.0  0.76722  0.92600  0.17825  1.0000
  C   C3299     1.0  0.63228  0.86940  0.21782  1.0000
  N   N212      1.0  0.66428  0.61761  0.13998  1.0000
  H   H3896     1.0  0.71312  0.91755  0.09819  1.0000
  H   H3897     1.0  0.60212  0.90548  0.30602  1.0000
  H   H3898     1.0  0.65854  0.59669  0.12664  1.0000
  H   H3899     1.0  0.71198  0.91379  0.11885  1.0000
  H   H3900     1.0  0.76208  0.97621  0.22100  1.0000
  H   H3901     1.0  0.65892  0.51734  0.03096  1.0000
  C   C3300     1.0  0.78386  0.58416  0.08883  1.0000
  S   S913      1.0  0.70225  0.50510  0.08616  1.0000
  H   H3902     1.0  0.70107  0.84908  0.32949  1.0000
  H   H3903     1.0  0.69305  0.87076  0.24231  1.0000
  N   N213      1.0  0.68964  0.92356  0.11235  1.0000
  C   C3301     1.0  0.68304  0.92551  0.09859  1.0000
  C   C3302     1.0  0.74952  0.56559  0.13680  1.0000
  C   C3303     1.0  0.67993  0.91489  0.12623  1.0000
  H   H3904     1.0  0.77823  0.65911  0.08044  1.0000
  C   C3304     1.0  0.76814  0.78619  0.09983  1.0000
  H   H3905     1.0  0.59655  0.67747  0.21874  1.0000
  C   C3305     1.0  0.65690  0.82002  0.12159  1.0000
  C   C3306     1.0  0.62715  0.78740  0.14016  1.0000
  H   H3906     1.0  0.59614  0.87124  0.25248  1.0000
  C   C3307     1.0  0.77538  0.66414  0.28991  1.0000
  H   H3907     1.0  0.68252  0.91398  0.09696  1.0000
  H   H3908     1.0  0.72634  0.96556  0.24922  1.0000
  H   H3909     1.0  0.61801  0.55564  0.01388  1.0000
  H   H3910     1.0  0.78396  0.67925  0.13135  1.0000
  H   H3911     1.0  0.76948  0.60424  0.11780  1.0000
  H   H3912     1.0  0.76632  0.81465  0.26919  1.0000
  H   H3913     1.0  0.68048  0.90288  0.12502  1.0000
  H   H3914     1.0  0.64502  0.84321  0.00434  1.0000
  C   C3308     1.0  0.60044  0.70007  0.09227  1.0000
  C   C3309     1.0  0.77456  0.79073  0.11004  1.0000
  H   H3915     1.0  0.59116  0.58374  0.10121  1.0000
  H   H3916     1.0  0.67090  0.93289  0.09998  1.0000
  H   H3917     1.0  0.64121  0.80073  0.12176  1.0000
  N   N214      1.0  0.73924  0.69272  0.11007  1.0000
  C   C3310     1.0  0.74938  0.69754  0.09446  1.0000
  C   C3311     1.0  0.73465  0.67828  0.11029  1.0000
  C   C3312     1.0  0.72489  0.70544  0.11175  1.0000
  C   C3313     1.0  0.74727  0.68953  0.12314  1.0000
  C   C3314     1.0  0.76391  0.68586  0.12088  1.0000
  C   C3315     1.0  0.73856  0.68879  0.13883  1.0000
  C   C3316     1.0  0.77125  0.68216  0.13348  1.0000
  C   C3317     1.0  0.74600  0.68508  0.15136  1.0000
  C   C3318     1.0  0.76232  0.68177  0.14869  1.0000
  H   H3918     1.0  0.75921  0.68776  0.09115  1.0000
  H   H3919     1.0  0.74282  0.70137  0.08488  1.0000
  H   H3920     1.0  0.75429  0.70752  0.09423  1.0000
  H   H3921     1.0  0.72655  0.67436  0.12150  1.0000
  H   H3922     1.0  0.74510  0.66846  0.10903  1.0000
  H   H3923     1.0  0.72867  0.67993  0.10061  1.0000
  H   H3924     1.0  0.72754  0.71578  0.11389  1.0000
  H   H3925     1.0  0.71990  0.70956  0.10103  1.0000
  H   H3926     1.0  0.71521  0.70163  0.12139  1.0000
  H   H3927     1.0  0.77156  0.68545  0.10952  1.0000
  H   H3928     1.0  0.72595  0.69041  0.14166  1.0000
  H   H3929     1.0  0.61536  0.62645  0.01135  1.0000
  N   N215      1.0  0.71298  0.88182  0.23276  1.0000
  C   C3319     1.0  0.74048  0.76482  0.98086  1.0000
  H   H3930     1.0  0.72794  0.85960  0.22884  1.0000
  H   H3931     1.0  0.76714  0.79738  0.11856  1.0000
  C   C3320     1.0  0.64064  0.53829  0.03150  1.0000
  H   H3932     1.0  0.59854  0.88832  0.39811  1.0000
  C   C3321     1.0  0.73785  0.97903  0.21941  1.0000
  C   C3322     1.0  0.63328  0.80165  0.16063  1.0000
  H   H3933     1.0  0.77109  0.61992  0.29037  1.0000
  C   C3323     1.0  0.64973  0.61844  0.13514  1.0000
  H   H3934     1.0  0.68402  0.91352  0.13707  1.0000
  C   C3324     1.0  0.65137  0.52245  0.05390  1.0000
  H   H3935     1.0  0.61912  0.71956  0.20931  1.0000
  C   C3325     1.0  0.76768  0.67889  0.28303  1.0000
  H   H3936     1.0  0.71987  0.89254  0.24744  1.0000
  H   H3937     1.0  0.59759  0.82645  0.38427  1.0000
  H   H3938     1.0  0.75245  0.69175  0.26728  1.0000
  C   C3326     1.0  0.66342  0.63091  0.14688  1.0000
  H   H3939     1.0  0.76907  0.68929  0.28563  1.0000
  H   H3940     1.0  0.59710  0.72846  0.07235  1.0000
  H   H3941     1.0  0.63526  0.84875  0.38866  1.0000
  H   H3942     1.0  0.61392  0.84551  0.35644  1.0000
  N   N216      1.0  0.76365  0.63770  0.27088  1.0000
  C   C3327     1.0  0.60599  0.87060  0.24259  1.0000
  C   C3328     1.0  0.68180  0.48581  0.01696  1.0000
  H   H3943     1.0  0.63512  0.57785  0.03175  1.0000
  N   N217      1.0  0.69234  0.81271  0.23484  1.0000
  C   C3329     1.0  0.68012  0.82709  0.23668  1.0000
  C   C3330     1.0  0.70742  0.81537  0.23587  1.0000
  C   C3331     1.0  0.69446  0.81009  0.21888  1.0000
  C   C3332     1.0  0.68724  0.79942  0.24707  1.0000
  C   C3333     1.0  0.69310  0.79338  0.26104  1.0000
  C   C3334     1.0  0.67536  0.79278  0.24576  1.0000
  C   C3335     1.0  0.68783  0.78106  0.27258  1.0000
  C   C3336     1.0  0.67044  0.78023  0.25719  1.0000
  C   C3337     1.0  0.67662  0.77441  0.27060  1.0000
  H   H3944     1.0  0.68333  0.83755  0.22784  1.0000
  H   H3945     1.0  0.66864  0.82617  0.23527  1.0000
  H   H3946     1.0  0.67813  0.82942  0.24852  1.0000
  H   H3947     1.0  0.71676  0.80445  0.23584  1.0000
  H   H3948     1.0  0.70621  0.81961  0.24659  1.0000
  H   H3949     1.0  0.71166  0.82457  0.22585  1.0000
  H   H3950     1.0  0.68314  0.81096  0.21589  1.0000
  H   H3951     1.0  0.69977  0.81918  0.20956  1.0000
  H   H3952     1.0  0.70212  0.79843  0.21764  1.0000
  H   H3953     1.0  0.70160  0.79808  0.26353  1.0000
  H   H3954     1.0  0.66940  0.79747  0.23614  1.0000
  H   H3955     1.0  0.69237  0.77682  0.28321  1.0000
  H   H3956     1.0  0.66124  0.77546  0.25596  1.0000
  H   H3957     1.0  0.67241  0.76501  0.27965  1.0000
  N   N218      1.0  0.72480  0.75935  0.02528  1.0000
  C   C3338     1.0  0.71727  0.74592  0.03365  1.0000
  C   C3339     1.0  0.73534  0.76060  0.03455  1.0000
  C   C3340     1.0  0.71215  0.77377  0.02467  1.0000
  C   C3341     1.0  0.73405  0.75686  0.00963  1.0000
  C   C3342     1.0  0.74630  0.74333  0.00832  1.0000
  C   C3343     1.0  0.73134  0.76757  0.99540  1.0000
  N   N219      1.0  0.73732  0.96229  0.22580  1.0000
  H   H3958     1.0  0.78047  0.63970  0.29194  1.0000
  C   C3344     1.0  0.59900  0.89757  0.30051  1.0000
  H   H3959     1.0  0.72595  0.73489  0.03671  1.0000
  H   H3960     1.0  0.70916  0.74795  0.04494  1.0000
  H   H3961     1.0  0.71025  0.74384  0.02643  1.0000
  H   H3962     1.0  0.72873  0.76287  0.04628  1.0000
  H   H3963     1.0  0.74152  0.77032  0.02840  1.0000
  H   H3964     1.0  0.74447  0.74970  0.03671  1.0000
  H   H3965     1.0  0.71694  0.78449  0.01909  1.0000
  H   H3966     1.0  0.70346  0.77341  0.01828  1.0000
  H   H3967     1.0  0.70541  0.77532  0.03660  1.0000
  H   H3968     1.0  0.74913  0.73469  0.01859  1.0000
  H   H3969     1.0  0.72223  0.77813  0.99514  1.0000
  H   H3970     1.0  0.59628  0.69163  0.10307  1.0000
  H   H3971     1.0  0.67377  0.96554  0.13794  1.0000
  H   H3972     1.0  0.64374  0.87501  0.23265  1.0000
  H   H3973     1.0  0.64995  0.86997  0.98865  1.0000
  C   C3345     1.0  0.68018  0.94607  0.12665  1.0000
  C   C3346     1.0  0.78129  0.63511  0.20801  1.0000
  H   H3974     1.0  0.67539  0.49633  0.98769  1.0000
  H   H3975     1.0  0.69245  0.80020  0.98298  1.0000
  H   H3976     1.0  0.62345  0.86449  0.31525  1.0000
  H   H3977     1.0  0.62722  0.87859  0.29693  1.0000
  C   C3347     1.0  0.59382  0.71892  0.06931  1.0000
  H   H3978     1.0  0.60461  0.71324  0.06182  1.0000
  C   C3348     1.0  0.74725  0.63565  0.27668  1.0000
  H   H3979     1.0  0.60617  0.64462  0.09699  1.0000
  C   C3349     1.0  0.59374  0.68614  0.06906  1.0000
  C   C3350     1.0  0.65759  0.83869  0.99925  1.0000
  H   H3980     1.0  0.61271  0.57630  0.01205  1.0000
  H   H3981     1.0  0.67638  0.48327  0.05598  1.0000
  C   C3351     1.0  0.76028  0.60426  0.09281  1.0000
  H   H3982     1.0  0.61869  0.78776  0.17877  1.0000
  H   H3983     1.0  0.63622  0.67818  0.18912  1.0000
  H   H3984     1.0  0.73884  0.64582  0.27137  1.0000
  N   N220      1.0  0.61943  0.56320  0.03390  1.0000
  C   C3352     1.0  0.67389  0.49688  0.09102  1.0000
  C   C3353     1.0  0.61170  0.84529  0.39333  1.0000
  C   C3354     1.0  0.63678  0.79826  0.13430  1.0000
  C   C3355     1.0  0.60214  0.87619  0.39709  1.0000
  C   C3356     1.0  0.70724  0.91137  0.22193  1.0000
  H   H3985     1.0  0.66781  0.70464  0.19033  1.0000
  C   C3357     1.0  0.69011  0.95934  0.16369  1.0000
  H   H3986     1.0  0.59904  0.63477  0.03550  1.0000
  H   H3987     1.0  0.76853  0.73608  0.07508  1.0000
  C   C3358     1.0  0.70445  0.89628  0.22372  1.0000
  H   H3988     1.0  0.71223  0.96404  0.23078  1.0000
  H   H3989     1.0  0.74965  0.66857  0.26075  1.0000
  H   H3990     1.0  0.67810  0.60229  0.15642  1.0000
  C   C3359     1.0  0.62089  0.56547  0.01677  1.0000
  H   H3991     1.0  0.78353  0.81996  0.31780  1.0000
  C   C3360     1.0  0.76707  0.93269  0.16602  1.0000
  H   H3992     1.0  0.72929  0.87561  0.21215  1.0000
  H   H3993     1.0  0.65724  0.81506  0.15985  1.0000
  Fe  Fe459     1.0  0.60655  0.77818  0.21141  1.0000
  H   H3994     1.0  0.61313  0.84076  0.28185  1.0000
  H   H3995     1.0  0.73534  0.96182  0.17368  1.0000
  C   C3361     1.0  0.75836  0.68024  0.27267  1.0000
  H   H3996     1.0  0.67454  0.62991  0.15042  1.0000
  H   H3997     1.0  0.77886  0.63503  0.12821  1.0000
  C   C3362     1.0  0.66192  0.81469  0.14726  1.0000
  S   S914      1.0  0.61697  0.75736  0.19982  1.0000
  H   H3998     1.0  0.69287  0.52240  0.02563  1.0000
  C   C3363     1.0  0.76078  0.97426  0.17114  1.0000
  H   H3999     1.0  0.66965  0.80294  0.14651  1.0000
  C   C3364     1.0  0.59196  0.85697  0.21397  1.0000
  Fe  Fe460     1.0  0.60738  0.81249  0.20419  1.0000
  C   C3365     1.0  0.77782  0.62567  0.20006  1.0000
  H   H4000     1.0  0.64129  0.53983  0.01915  1.0000
  H   H4001     1.0  0.59841  0.70799  0.22242  1.0000
  H   H4002     1.0  0.75487  0.60048  0.08529  1.0000
  H   H4003     1.0  0.63570  0.64037  0.14214  1.0000
  N   N221      1.0  0.65865  0.73341  0.13897  1.0000
  C   C3366     1.0  0.65410  0.72126  0.15302  1.0000
  C   C3367     1.0  0.64512  0.74706  0.13863  1.0000
  C   C3368     1.0  0.66124  0.72734  0.12472  1.0000
  C   C3369     1.0  0.67332  0.73723  0.13945  1.0000
  C   C3370     1.0  0.68695  0.72516  0.14121  1.0000
  C   C3371     1.0  0.67469  0.75281  0.13788  1.0000
  C   C3372     1.0  0.70093  0.72848  0.14171  1.0000
  C   C3373     1.0  0.68881  0.75599  0.13818  1.0000
  C   C3374     1.0  0.70186  0.74386  0.14016  1.0000
  H   H4004     1.0  0.65307  0.72506  0.16394  1.0000
  H   H4005     1.0  0.64261  0.71881  0.15353  1.0000
  H   H4006     1.0  0.66261  0.70982  0.15328  1.0000
  H   H4007     1.0  0.64253  0.75226  0.14904  1.0000
  H   H4008     1.0  0.63419  0.74376  0.13861  1.0000
  H   H4009     1.0  0.64722  0.75632  0.12781  1.0000
  H   H4010     1.0  0.66457  0.73622  0.11391  1.0000
  H   H4011     1.0  0.67075  0.71664  0.12438  1.0000
  H   H4012     1.0  0.65049  0.72425  0.12390  1.0000
  H   H4013     1.0  0.68693  0.71305  0.14217  1.0000
  H   H4014     1.0  0.66511  0.76282  0.13619  1.0000
  H   H4015     1.0  0.71112  0.71907  0.14326  1.0000
  H   H4016     1.0  0.68967  0.76800  0.13667  1.0000
  H   H4017     1.0  0.71276  0.74641  0.14038  1.0000
  H   H4018     1.0  0.60569  0.70537  0.18032  1.0000
  C   C3375     1.0  0.73699  0.95852  0.24279  1.0000
  C   C3376     1.0  0.72333  0.95829  0.22370  1.0000
  C   C3377     1.0  0.75144  0.95207  0.21802  1.0000
  C   C3378     1.0  0.60211  0.56064  0.09687  1.0000
  H   H4019     1.0  0.62178  0.85683  0.29342  1.0000
  C   C3379     1.0  0.70157  0.96243  0.10460  1.0000
  S   S915      1.0  0.78620  0.91735  0.21577  1.0000
  H   H4020     1.0  0.67180  0.94036  0.13575  1.0000
  C   C3380     1.0  0.63780  0.68815  0.19230  1.0000
  C   C3381     1.0  0.60710  0.73658  0.17093  1.0000
  H   H4021     1.0  0.73725  0.94587  0.24809  1.0000
  H   H4022     1.0  0.61133  0.61913  0.12282  1.0000
  H   H4023     1.0  0.69308  0.97970  0.11881  1.0000
  H   H4024     1.0  0.72375  0.94547  0.22761  1.0000
  H   H4025     1.0  0.60027  0.55152  0.04041  1.0000
  H   H4026     1.0  0.76235  0.95204  0.22130  1.0000
  H   H4027     1.0  0.75056  0.93957  0.22139  1.0000
  H   H4028     1.0  0.75315  0.95579  0.20507  1.0000
  C   C3382     1.0  0.77991  0.97493  0.18476  1.0000
  C   C3383     1.0  0.75692  0.66686  0.26894  1.0000
  C   C3384     1.0  0.78296  0.65661  0.09077  1.0000
  H   H4029     1.0  0.73432  0.88948  0.22968  1.0000
  H   H4030     1.0  0.68168  0.93382  0.19903  1.0000
  N   N222      1.0  0.75095  0.79039  0.10083  1.0000
  C   C3385     1.0  0.74635  0.78657  0.08809  1.0000
  C   C3386     1.0  0.74316  0.78167  0.11599  1.0000
  C   C3387     1.0  0.74479  0.80745  0.10000  1.0000
  C   C3388     1.0  0.74389  0.55713  0.12977  1.0000
  C   C3389     1.0  0.76498  0.65166  0.27538  1.0000
  H   H4031     1.0  0.76639  0.61367  0.08524  1.0000
  H   H4032     1.0  0.78546  0.60608  0.10167  1.0000
  H   H4033     1.0  0.73650  0.54910  0.13691  1.0000
  H   H4034     1.0  0.72253  0.96176  0.21115  1.0000
  H   H4035     1.0  0.74929  0.77376  0.08875  1.0000
  H   H4036     1.0  0.73342  0.79029  0.08890  1.0000
  H   H4037     1.0  0.75216  0.79248  0.07633  1.0000
  H   H4038     1.0  0.74810  0.76883  0.11732  1.0000
  H   H4039     1.0  0.73027  0.78377  0.11698  1.0000
  H   H4040     1.0  0.74480  0.78509  0.12614  1.0000
  H   H4041     1.0  0.75132  0.81443  0.08938  1.0000
  H   H4042     1.0  0.73212  0.81106  0.09952  1.0000
  H   H4043     1.0  0.74545  0.81114  0.11041  1.0000
  C   C3390     1.0  0.65092  0.52518  0.03818  1.0000
  H   H4044     1.0  0.59753  0.88659  0.33159  1.0000
  C   C3391     1.0  0.62253  0.57734  0.03650  1.0000
  H   H4045     1.0  0.59610  0.71920  0.20310  1.0000
  H   H4046     1.0  0.74225  0.55338  0.10804  1.0000
  N   N223      1.0  0.63624  0.60427  0.06522  1.0000
  C   C3392     1.0  0.65172  0.60790  0.06324  1.0000
  C   C3393     1.0  0.62554  0.61022  0.07895  1.0000
  C   C3394     1.0  0.63796  0.58702  0.06913  1.0000
  C   C3395     1.0  0.63059  0.61105  0.05045  1.0000
  C   C3396     1.0  0.61596  0.62180  0.04963  1.0000
  C   C3397     1.0  0.63982  0.60686  0.03623  1.0000
  H   H4047     1.0  0.73907  0.68423  0.16326  1.0000
  C   C3398     1.0  0.63448  0.61252  0.02226  1.0000
  C   C3399     1.0  0.64347  0.71329  0.20015  1.0000
  H   H4048     1.0  0.65131  0.62062  0.05854  1.0000
  H   H4049     1.0  0.65556  0.60460  0.07454  1.0000
  H   H4050     1.0  0.66120  0.60139  0.05516  1.0000
  H   H4051     1.0  0.62370  0.62314  0.07710  1.0000
  H   H4052     1.0  0.63020  0.60489  0.08981  1.0000
  H   H4053     1.0  0.61391  0.60712  0.08162  1.0000
  H   H4054     1.0  0.64608  0.58135  0.05971  1.0000
  H   H4055     1.0  0.64277  0.58146  0.07986  1.0000
  H   H4056     1.0  0.62646  0.58380  0.07136  1.0000
  H   H4057     1.0  0.65512  0.49704  0.99708  1.0000
  H   H4058     1.0  0.65120  0.59901  0.03587  1.0000
  H   H4059     1.0  0.66934  0.86352  0.99242  1.0000
  H   H4060     1.0  0.77506  0.77218  0.08184  1.0000
  S   S916      1.0  0.64364  0.53297  0.98388  1.0000
  C   C3400     1.0  0.77845  0.59752  0.10961  1.0000
  C   C3401     1.0  0.65593  0.70295  0.19289  1.0000
  N   N224      1.0  0.66248  0.84768  0.98304  1.0000
  C   C3402     1.0  0.59827  0.87099  0.30125  1.0000
  H   H4061     1.0  0.63481  0.80718  0.16903  1.0000
  C   C3403     1.0  0.66597  0.48962  0.99135  1.0000
  H   H4062     1.0  0.68703  0.84002  0.98385  1.0000
  H   H4063     1.0  0.60168  0.84643  0.21307  1.0000
  C   C3404     1.0  0.60932  0.85920  0.29396  1.0000
  H   H4064     1.0  0.75308  0.95037  0.14371  1.0000
  C   C3405     1.0  0.78998  0.81917  0.27906  1.0000
  H   H4065     1.0  0.59623  0.86711  0.33199  1.0000
  H   H4066     1.0  0.77640  0.81652  0.24890  1.0000
  H   H4067     1.0  0.77035  0.95759  0.14157  1.0000
  H   H4068     1.0  0.74359  0.63438  0.28964  1.0000
  H   H4069     1.0  0.74643  0.56411  0.14946  1.0000
  C   C3406     1.0  0.66213  0.86374  0.98421  1.0000
  H   H4070     1.0  0.66489  0.80887  0.11900  1.0000
  H   H4071     1.0  0.78582  0.73205  0.00666  1.0000
  C   C3407     1.0  0.63085  0.54569  0.05664  1.0000
  C   C3408     1.0  0.62483  0.69833  0.19987  1.0000
  H   H4072     1.0  0.62442  0.78214  0.13218  1.0000
  C   C3409     1.0  0.74722  0.55950  0.11351  1.0000
  H   H4073     1.0  0.68479  0.97077  0.16633  1.0000
  H   H4074     1.0  0.76824  0.96785  0.25946  1.0000
  H   H4075     1.0  0.76444  0.80810  0.33958  1.0000
  H   H4076     1.0  0.61305  0.77535  0.16064  1.0000
  H   H4077     1.0  0.62899  0.83644  0.13457  1.0000
  H   H4078     1.0  0.65911  0.82605  0.99985  1.0000
  C   C3410     1.0  0.70165  0.87470  0.24614  1.0000
  C   C3411     1.0  0.61859  0.86613  0.21650  1.0000
  H   H4079     1.0  0.76802  0.67853  0.15848  1.0000
  H   H4080     1.0  0.70158  0.93606  0.21162  1.0000
  H   H4081     1.0  0.62051  0.87614  0.25458  1.0000
  C   C3412     1.0  0.64130  0.53263  0.06313  1.0000
  Fe  Fe461     1.0  0.69190  0.53077  0.08638  1.0000
  H   H4082     1.0  0.70765  0.86427  0.25380  1.0000
  C   C3413     1.0  0.69905  0.92473  0.21315  1.0000
  H   H4083     1.0  0.67020  0.59231  0.14722  1.0000
  H   H4084     1.0  0.75103  0.98077  0.16571  1.0000
  H   H4085     1.0  0.63307  0.83308  0.15347  1.0000
  C   C3414     1.0  0.67767  0.61754  0.12622  1.0000
  H   H4086     1.0  0.71272  0.86675  0.21809  1.0000
  H   H4087     1.0  0.68982  0.88455  0.21749  1.0000
  H   H4088     1.0  0.77330  0.61277  0.27334  1.0000
  C   C3415     1.0  0.61980  0.87368  0.24383  1.0000
  H   H4089     1.0  0.75742  0.57248  0.09167  1.0000
  H   H4090     1.0  0.64172  0.53044  0.07537  1.0000
  H   H4091     1.0  0.66474  0.83914  0.00724  1.0000
  C   C3416     1.0  0.77399  0.65068  0.28630  1.0000
  C   C3417     1.0  0.75839  0.95689  0.14885  1.0000
  H   H4092     1.0  0.75957  0.64959  0.24760  1.0000
  C   C3418     1.0  0.78186  0.95444  0.24214  1.0000
  C   C3419     1.0  0.70050  0.94798  0.10288  1.0000
  C   C3420     1.0  0.64009  0.80581  0.14440  1.0000
  N   N225      1.0  0.60282  0.88098  0.30887  1.0000
  H   H4093     1.0  0.70580  0.90121  0.11069  1.0000
  H   H4094     1.0  0.68861  0.49141  0.00615  1.0000
  C   C3421     1.0  0.75859  0.57640  0.12762  1.0000
  H   H4095     1.0  0.60824  0.62592  0.05971  1.0000
  S   S917      1.0  0.76179  0.63797  0.10483  1.0000
  C   C3422     1.0  0.68634  0.53433  0.02299  1.0000
  C   C3423     1.0  0.77883  0.77679  0.08957  1.0000
  S   S918      1.0  0.77007  0.73950  0.10500  1.0000
  C   C3424     1.0  0.61496  0.74252  0.17849  1.0000
  H   H4096     1.0  0.78496  0.98145  0.18970  1.0000
  H   H4097     1.0  0.60538  0.96773  0.35746  1.0000
  H   H4098     1.0  0.74731  0.96108  0.24513  1.0000
  H   H4099     1.0  0.70760  0.87403  0.32579  1.0000
  H   H4100     1.0  0.69931  0.56500  0.12376  1.0000
  N   N226      1.0  0.77108  0.59104  0.10084  1.0000
  H   H4101     1.0  0.75053  0.60975  0.10147  1.0000
  H   H4102     1.0  0.78980  0.63013  0.21532  1.0000
  H   H4103     1.0  0.72574  0.85684  0.35226  1.0000
  H   H4104     1.0  0.59419  0.86607  0.20306  1.0000
  H   H4105     1.0  0.78055  0.81497  0.28884  1.0000
  C   C3425     1.0  0.63869  0.83337  0.14089  1.0000
  C   C3426     1.0  0.72513  0.88452  0.23919  1.0000
  H   H4106     1.0  0.76235  0.58265  0.13388  1.0000
  S   S919      1.0  0.77735  0.66319  0.21654  1.0000
  C   C3427     1.0  0.62283  0.85389  0.39182  1.0000
  C   C3428     1.0  0.61806  0.86932  0.39361  1.0000
  H   H4107     1.0  0.68051  0.60681  0.12150  1.0000
  C   C3429     1.0  0.66762  0.60299  0.15194  1.0000
  H   H4108     1.0  0.62323  0.55319  0.06431  1.0000
  H   H4109     1.0  0.59599  0.84016  0.24359  1.0000
  C   C3430     1.0  0.66475  0.48616  0.09246  1.0000
  H   H4110     1.0  0.61971  0.57761  0.04911  1.0000
  C   C3431     1.0  0.75603  0.57047  0.10421  1.0000
  H   H4111     1.0  0.71763  0.84257  0.31482  1.0000
  H   H4112     1.0  0.78469  0.93817  0.18038  1.0000
  H   H4113     1.0  0.77182  0.83259  0.25843  1.0000
  H   H4114     1.0  0.69021  0.54031  0.04277  1.0000
  C   C3432     1.0  0.59296  0.97298  0.35993  1.0000
  H   H4115     1.0  0.61520  0.58831  0.03080  1.0000
  C   C3433     1.0  0.61981  0.87686  0.30901  1.0000
  H   H4116     1.0  0.64812  0.82396  0.11408  1.0000
  H   H4117     1.0  0.69018  0.93122  0.08755  1.0000
  C   C3434     1.0  0.60503  0.86646  0.22899  1.0000
  C   C3435     1.0  0.62815  0.71104  0.20369  1.0000
  H   H4118     1.0  0.60538  0.89919  0.28802  1.0000
  H   H4119     1.0  0.59630  0.82022  0.40525  1.0000
  S   S920      1.0  0.59701  0.81507  0.22894  1.0000
  H   H4120     1.0  0.70991  0.96880  0.09614  1.0000
  H   H4121     1.0  0.77934  0.58098  0.08023  1.0000
  C   C3436     1.0  0.60852  0.68000  0.21511  1.0000
  H   H4122     1.0  0.78640  0.58812  0.11633  1.0000
  C   C3437     1.0  0.75238  0.75139  0.98005  1.0000
  H   H4123     1.0  0.78666  0.62388  0.27343  1.0000
  H   H4124     1.0  0.76430  0.73010  0.99299  1.0000
  H   H4125     1.0  0.65217  0.48915  0.09679  1.0000
  H   H4126     1.0  0.66279  0.68242  0.18321  1.0000
  C   C3438     1.0  0.59421  0.64886  0.10279  1.0000
  H   H4127     1.0  0.78705  0.83214  0.27714  1.0000
  C   C3439     1.0  0.60450  0.84981  0.28716  1.0000
  S   S921      1.0  0.78811  0.70664  0.08215  1.0000
  N   N227      1.0  0.60883  0.69527  0.20385  1.0000
  H   H4128     1.0  0.61222  0.67982  0.22586  1.0000
  H   H4129     1.0  0.61191  0.68447  0.18441  1.0000
  H   H4130     1.0  0.61649  0.67007  0.21002  1.0000
  C   C3440     1.0  0.60452  0.69458  0.18952  1.0000
  C   C3441     1.0  0.59651  0.70741  0.21104  1.0000
  C   C3442     1.0  0.59090  0.86775  0.39859  1.0000
  Fe  Fe462     1.0  0.66832  0.53600  0.97847  1.0000
  C   C3443     1.0  0.59110  0.65983  0.11209  1.0000
  C   C3444     1.0  0.59070  0.73959  0.17445  1.0000
  C   C3445     1.0  0.76734  0.98256  0.17755  1.0000
  C   C3446     1.0  0.66908  0.52276  0.92089  1.0000
  C   C3447     1.0  0.76461  0.63654  0.93694  1.0000
  H   H4131     1.0  0.67034  0.89249  0.79786  1.0000
  S   S922      1.0  0.66072  0.79018  0.94698  1.0000
  H   H4132     1.0  0.67813  0.52760  0.88997  1.0000
  H   H4133     1.0  0.68013  0.82828  0.97554  1.0000
  H   H4134     1.0  0.62182  0.94979  0.60211  1.0000
  C   C3448     1.0  0.63628  0.86014  0.95323  1.0000
  C   C3449     1.0  0.63278  0.95288  0.59413  1.0000
  C   C3450     1.0  0.63049  0.63100  0.95164  1.0000
  H   H4135     1.0  0.75291  0.69615  0.75161  1.0000
  S   S923      1.0  0.64363  0.54936  0.94700  1.0000
  H   H4136     1.0  0.60195  0.62734  0.92453  1.0000
  Fe  Fe463     1.0  0.67540  0.79021  0.96326  1.0000
  H   H4137     1.0  0.60234  0.92361  0.66345  1.0000
  H   H4138     1.0  0.67478  0.95778  0.68311  1.0000
  Fe  Fe464     1.0  0.67013  0.81085  0.93174  1.0000
  H   H4139     1.0  0.75708  0.87343  0.69547  1.0000
  S   S924      1.0  0.65496  0.83016  0.91752  1.0000
  H   H4140     1.0  0.77443  0.80330  0.62088  1.0000
  S   S925      1.0  0.68228  0.75707  0.92325  1.0000
  H   H4141     1.0  0.78949  0.67267  0.89920  1.0000
  S   S926      1.0  0.69114  0.79673  0.91844  1.0000
  Fe  Fe465     1.0  0.72802  0.63007  0.89232  1.0000
  S   S927      1.0  0.72727  0.65388  0.89559  1.0000
  H   H4142     1.0  0.62226  0.83561  0.76397  1.0000
  S   S928      1.0  0.74881  0.66034  0.85998  1.0000
  Fe  Fe466     1.0  0.72332  0.66243  0.87120  1.0000
  S   S929      1.0  0.70648  0.68504  0.86456  1.0000
  S   S930      1.0  0.72204  0.63907  0.86854  1.0000
  H   H4143     1.0  0.66974  0.53461  0.92148  1.0000
  C   C3451     1.0  0.60040  0.92476  0.70073  1.0000
  C   C3452     1.0  0.64522  0.86102  0.96314  1.0000
  Fe  Fe467     1.0  0.60969  0.73525  0.91388  1.0000
  S   S931      1.0  0.62630  0.72970  0.89180  1.0000
  S   S932      1.0  0.61376  0.74963  0.92834  1.0000
  H   H4144     1.0  0.74082  0.65411  0.97612  1.0000
  H   H4145     1.0  0.76134  0.78992  0.60994  1.0000
  Fe  Fe468     1.0  0.62094  0.70568  0.90128  1.0000
  S   S933      1.0  0.63777  0.68217  0.90373  1.0000
  S   S934      1.0  0.69675  0.77396  0.95254  1.0000
  S   S935      1.0  0.60593  0.71083  0.92414  1.0000
  Fe  Fe469     1.0  0.67442  0.90759  0.87747  1.0000
  S   S936      1.0  0.65412  0.91779  0.86544  1.0000
  S   S937      1.0  0.67327  0.89537  0.90272  1.0000
  Fe  Fe470     1.0  0.69861  0.91670  0.84823  1.0000
  S   S938      1.0  0.68073  0.92745  0.83353  1.0000
  S   S939      1.0  0.72367  0.91836  0.83833  1.0000
  Fe  Fe471     1.0  0.66645  0.93786  0.85413  1.0000
  S   S940      1.0  0.65601  0.96380  0.84859  1.0000
  Fe  Fe472     1.0  0.67025  0.90650  0.84599  1.0000
  C   C3453     1.0  0.59810  0.86491  0.87919  1.0000
  S   S941      1.0  0.68529  0.92854  0.86788  1.0000
  S   S942      1.0  0.68963  0.89479  0.85897  1.0000
  Fe  Fe473     1.0  0.74581  0.94969  0.73962  1.0000
  S   S943      1.0  0.76333  0.93493  0.75391  1.0000
  Fe  Fe474     1.0  0.75190  0.92595  0.71969  1.0000
  S   S944      1.0  0.77003  0.90930  0.73228  1.0000
  S   S945      1.0  0.74783  0.91801  0.70003  1.0000
  Fe  Fe475     1.0  0.75321  0.91509  0.75407  1.0000
  S   S946      1.0  0.74886  0.89534  0.77480  1.0000
  Fe  Fe476     1.0  0.77859  0.93050  0.73095  1.0000
  C   C3454     1.0  0.67891  0.84048  0.97645  1.0000
  S   S947      1.0  0.73426  0.93011  0.74173  1.0000
  S   S948      1.0  0.76198  0.94690  0.71637  1.0000
  Fe  Fe477     1.0  0.66163  0.89545  0.66616  1.0000
  S   S949      1.0  0.66871  0.86973  0.66636  1.0000
  S   S950      1.0  0.64743  0.91535  0.65097  1.0000
  Fe  Fe478     1.0  0.67828  0.89165  0.69240  1.0000
  S   S951      1.0  0.68676  0.86563  0.69505  1.0000
  S   S952      1.0  0.68041  0.90602  0.70793  1.0000
  Fe  Fe479     1.0  0.69244  0.87097  0.66867  1.0000
  S   S953      1.0  0.71542  0.86173  0.65289  1.0000
  Fe  Fe480     1.0  0.66251  0.86644  0.69268  1.0000
  S   S954      1.0  0.64626  0.85096  0.70833  1.0000
  S   S955      1.0  0.68581  0.89712  0.66626  1.0000
  S   S956      1.0  0.65359  0.89202  0.69219  1.0000
  C   C3455     1.0  0.72438  0.82642  0.89324  1.0000
  H   H4146     1.0  0.69263  0.89020  0.80675  1.0000
  S   S957      1.0  0.76340  0.79904  0.67520  1.0000
  C   C3456     1.0  0.75702  0.63774  0.95264  1.0000
  S   S958      1.0  0.61409  0.85082  0.81894  1.0000
  H   H4147     1.0  0.78224  0.68885  0.91894  1.0000
  H   H4148     1.0  0.78233  0.89754  0.76288  1.0000
  H   H4149     1.0  0.70511  0.83389  0.91879  1.0000
  H   H4150     1.0  0.68215  0.94584  0.65960  1.0000
  C   C3457     1.0  0.72896  0.84479  0.65973  1.0000
  C   C3458     1.0  0.72502  0.83483  0.67428  1.0000
  C   C3459     1.0  0.73577  0.82092  0.67893  1.0000
  C   C3460     1.0  0.75061  0.81699  0.66920  1.0000
  C   C3461     1.0  0.75473  0.82719  0.65484  1.0000
  C   C3462     1.0  0.74388  0.84096  0.65007  1.0000
  H   H4151     1.0  0.71355  0.83763  0.68177  1.0000
  H   H4152     1.0  0.73250  0.81309  0.69005  1.0000
  H   H4153     1.0  0.76613  0.82439  0.64727  1.0000
  H   H4154     1.0  0.74698  0.84862  0.63879  1.0000
  C   C3463     1.0  0.64281  0.84453  0.76076  1.0000
  C   C3464     1.0  0.63170  0.84041  0.75556  1.0000
  C   C3465     1.0  0.63312  0.84199  0.73945  1.0000
  C   C3466     1.0  0.64526  0.84829  0.72847  1.0000
  C   C3467     1.0  0.65615  0.85275  0.73368  1.0000
  C   C3468     1.0  0.65510  0.85058  0.74981  1.0000
  H   H4155     1.0  0.65630  0.95600  0.69703  1.0000
  H   H4156     1.0  0.62475  0.83843  0.73546  1.0000
  H   H4157     1.0  0.66552  0.85765  0.72532  1.0000
  H   H4158     1.0  0.66374  0.85373  0.75379  1.0000
  C   C3469     1.0  0.72905  0.91471  0.70230  1.0000
  C   C3470     1.0  0.72683  0.90604  0.69283  1.0000
  C   C3471     1.0  0.71194  0.90322  0.69450  1.0000
  C   C3472     1.0  0.69921  0.90921  0.70556  1.0000
  C   C3473     1.0  0.70137  0.91806  0.71486  1.0000
  C   C3474     1.0  0.71627  0.92075  0.71328  1.0000
  H   H4159     1.0  0.73666  0.90146  0.68423  1.0000
  H   H4160     1.0  0.71033  0.89641  0.68726  1.0000
  H   H4161     1.0  0.69152  0.92284  0.72332  1.0000
  H   H4162     1.0  0.71778  0.92776  0.72033  1.0000
  S   S959      1.0  0.59733  0.83725  0.79960  1.0000
  H   H4163     1.0  0.65928  0.87987  0.78428  1.0000
  C   C3475     1.0  0.59779  0.77807  0.86785  1.0000
  C   C3476     1.0  0.76093  0.78059  0.62083  1.0000
  Fe  Fe481     1.0  0.79005  0.72889  0.94218  1.0000
  H   H4164     1.0  0.62231  0.81798  0.85225  1.0000
  Fe  Fe482     1.0  0.60445  0.73592  0.88232  1.0000
  H   H4165     1.0  0.78584  0.96525  0.71685  1.0000
  H   H4166     1.0  0.68540  0.92711  0.79889  1.0000
  C   C3477     1.0  0.73034  0.91196  0.82072  1.0000
  C   C3478     1.0  0.73215  0.89621  0.82069  1.0000
  C   C3479     1.0  0.73803  0.89109  0.80655  1.0000
  C   C3480     1.0  0.74170  0.90180  0.79243  1.0000
  C   C3481     1.0  0.73945  0.91762  0.79247  1.0000
  C   C3482     1.0  0.73398  0.92266  0.80662  1.0000
  H   H4167     1.0  0.72925  0.88794  0.83160  1.0000
  H   H4168     1.0  0.73964  0.87887  0.80655  1.0000
  H   H4169     1.0  0.74188  0.92602  0.78163  1.0000
  H   H4170     1.0  0.73248  0.93487  0.80661  1.0000
  H   H4171     1.0  0.68136  0.51633  0.91727  1.0000
  H   H4172     1.0  0.60575  0.92975  0.62162  1.0000
  N   N228      1.0  0.70963  0.97088  0.84052  1.0000
  H   H4173     1.0  0.66962  0.88039  0.75597  1.0000
  H   H4174     1.0  0.61949  0.61242  0.96671  1.0000
  H   H4175     1.0  0.73543  0.82387  0.89746  1.0000
  H   H4176     1.0  0.66428  0.95541  0.87903  1.0000
  H   H4177     1.0  0.76547  0.65786  0.82982  1.0000
  H   H4178     1.0  0.70488  0.68480  0.89849  1.0000
  C   C3483     1.0  0.68741  0.68416  0.87538  1.0000
  C   C3484     1.0  0.67493  0.69677  0.87230  1.0000
  C   C3485     1.0  0.65963  0.69624  0.88101  1.0000
  C   C3486     1.0  0.65685  0.68316  0.89293  1.0000
  C   C3487     1.0  0.66938  0.67065  0.89615  1.0000
  C   C3488     1.0  0.68465  0.67109  0.88731  1.0000
  H   H4179     1.0  0.67705  0.70686  0.86303  1.0000
  H   H4180     1.0  0.64998  0.70578  0.87827  1.0000
  H   H4181     1.0  0.66734  0.66064  0.90554  1.0000
  H   H4182     1.0  0.69426  0.66133  0.88978  1.0000
  C   C3489     1.0  0.66026  0.84818  0.91338  1.0000
  C   C3490     1.0  0.66658  0.85187  0.92390  1.0000
  C   C3491     1.0  0.67015  0.86659  0.92076  1.0000
  C   C3492     1.0  0.66785  0.87745  0.90686  1.0000
  C   C3493     1.0  0.66179  0.87366  0.89617  1.0000
  C   C3494     1.0  0.65794  0.85903  0.89947  1.0000
  H   H4183     1.0  0.66829  0.84359  0.93469  1.0000
  H   H4184     1.0  0.67483  0.86954  0.92902  1.0000
  H   H4185     1.0  0.66015  0.88198  0.88534  1.0000
  H   H4186     1.0  0.65345  0.85603  0.89112  1.0000
  C   C3495     1.0  0.66353  0.75381  0.92536  1.0000
  C   C3496     1.0  0.66056  0.74808  0.91391  1.0000
  C   C3497     1.0  0.64545  0.74612  0.91503  1.0000
  C   C3498     1.0  0.63324  0.74996  0.92757  1.0000
  C   C3499     1.0  0.63630  0.75547  0.93912  1.0000
  C   C3500     1.0  0.65142  0.75726  0.93809  1.0000
  H   H4187     1.0  0.66985  0.74550  0.90399  1.0000
  H   H4188     1.0  0.64319  0.74203  0.90600  1.0000
  H   H4189     1.0  0.62691  0.75841  0.94888  1.0000
  H   H4190     1.0  0.65371  0.76123  0.94721  1.0000
  C   C3501     1.0  0.77100  0.76747  0.93762  1.0000
  C   C3502     1.0  0.75774  0.76249  0.93752  1.0000
  C   C3503     1.0  0.74364  0.77354  0.93569  1.0000
  C   C3504     1.0  0.67428  0.93783  0.66684  1.0000
  N   N229      1.0  0.66042  0.94611  0.67685  1.0000
  H   H4191     1.0  0.75830  0.75016  0.93900  1.0000
  H   H4192     1.0  0.73339  0.76971  0.93569  1.0000
  H   H4193     1.0  0.65554  0.92510  0.69361  1.0000
  C   C3505     1.0  0.60816  0.90587  0.63463  1.0000
  C   C3506     1.0  0.61628  0.89409  0.64500  1.0000
  C   C3507     1.0  0.62831  0.89689  0.65012  1.0000
  C   C3508     1.0  0.63225  0.91154  0.64495  1.0000
  C   C3509     1.0  0.62393  0.92345  0.63480  1.0000
  C   C3510     1.0  0.61195  0.92062  0.62961  1.0000
  H   H4194     1.0  0.61336  0.88269  0.64899  1.0000
  H   H4195     1.0  0.63460  0.88765  0.65799  1.0000
  H   H4196     1.0  0.62690  0.93482  0.63081  1.0000
  H   H4197     1.0  0.64222  0.62368  0.95075  1.0000
  C   C3511     1.0  0.69129  0.57647  0.91841  1.0000
  C   C3512     1.0  0.69846  0.58413  0.90356  1.0000
  H   H4198     1.0  0.70129  0.92666  0.76606  1.0000
  C   C3513     1.0  0.70690  0.60033  0.91547  1.0000
  C   C3514     1.0  0.70003  0.59243  0.93029  1.0000
  C   C3515     1.0  0.69227  0.58058  0.93176  1.0000
  C   C3516     1.0  0.60028  0.56429  0.96536  1.0000
  H   H4199     1.0  0.70064  0.59555  0.94072  1.0000
  H   H4200     1.0  0.68708  0.57463  0.94325  1.0000
  H   H4201     1.0  0.77358  0.79847  0.64154  1.0000
  H   H4202     1.0  0.60270  0.84698  0.91675  1.0000
  H   H4203     1.0  0.67277  0.49125  0.94724  1.0000
  H   H4204     1.0  0.66096  0.93762  0.56564  1.0000
  C   C3517     1.0  0.60509  0.85388  0.90489  1.0000
  C   C3518     1.0  0.74297  0.78953  0.93368  1.0000
  H   H4205     1.0  0.72638  0.97211  0.81012  1.0000
  H   H4206     1.0  0.63100  0.89098  0.60296  1.0000
  H   H4207     1.0  0.68139  0.92787  0.67403  1.0000
  C   C3519     1.0  0.70018  0.84433  0.88943  1.0000
  H   H4208     1.0  0.76206  0.71028  0.88877  1.0000
  Fe  Fe483     1.0  0.63877  0.55727  0.96939  1.0000
  H   H4209     1.0  0.78588  0.67069  0.81078  1.0000
  C   C3520     1.0  0.65911  0.50761  0.90939  1.0000
  H   H4210     1.0  0.67093  0.93277  0.65873  1.0000
  C   C3521     1.0  0.66615  0.95016  0.68872  1.0000
  H   H4211     1.0  0.64347  0.54506  0.91570  1.0000
  H   H4212     1.0  0.75048  0.77568  0.62255  1.0000
  H   H4213     1.0  0.62770  0.84502  0.94471  1.0000
  C   C3522     1.0  0.75121  0.65777  0.96755  1.0000
  H   H4214     1.0  0.75183  0.69683  0.87477  1.0000
  N   N230      1.0  0.63188  0.80160  0.90317  1.0000
  C   C3523     1.0  0.62316  0.81085  0.91523  1.0000
  C   C3524     1.0  0.62379  0.78871  0.90565  1.0000
  C   C3525     1.0  0.64796  0.79439  0.90589  1.0000
  C   C3526     1.0  0.63273  0.81199  0.88734  1.0000
  C   C3527     1.0  0.63983  0.82506  0.88329  1.0000
  C   C3528     1.0  0.62656  0.80965  0.87560  1.0000
  C   C3529     1.0  0.64058  0.83520  0.86852  1.0000
  C   C3530     1.0  0.62732  0.81990  0.86089  1.0000
  C   C3531     1.0  0.63435  0.83262  0.85734  1.0000
  H   H4215     1.0  0.61110  0.81670  0.91344  1.0000
  H   H4216     1.0  0.62214  0.80333  0.92730  1.0000
  H   H4217     1.0  0.62910  0.82003  0.91512  1.0000
  H   H4218     1.0  0.61152  0.79320  0.90399  1.0000
  H   H4219     1.0  0.62285  0.78152  0.91783  1.0000
  H   H4220     1.0  0.63024  0.78047  0.89778  1.0000
  H   H4221     1.0  0.65454  0.80321  0.90538  1.0000
  H   H4222     1.0  0.64773  0.78650  0.91771  1.0000
  H   H4223     1.0  0.65501  0.78726  0.89714  1.0000
  H   H4224     1.0  0.64486  0.82757  0.89154  1.0000
  H   H4225     1.0  0.62107  0.79999  0.87745  1.0000
  H   H4226     1.0  0.64602  0.84514  0.86577  1.0000
  H   H4227     1.0  0.63817  0.52764  0.92827  1.0000
  H   H4228     1.0  0.61453  0.89222  0.71651  1.0000
  N   N231      1.0  0.77054  0.67793  0.76167  1.0000
  H   H4229     1.0  0.62708  0.95686  0.56576  1.0000
  S   S960      1.0  0.60239  0.75065  0.85814  1.0000
  S   S961      1.0  0.73104  0.97329  0.74329  1.0000
  C   C3532     1.0  0.75982  0.67152  0.77612  1.0000
  C   C3533     1.0  0.76326  0.65537  0.78339  1.0000
  C   C3534     1.0  0.74627  0.68106  0.78383  1.0000
  C   C3535     1.0  0.75355  0.64910  0.79723  1.0000
  C   C3536     1.0  0.73681  0.67469  0.79787  1.0000
  C   C3537     1.0  0.74046  0.65876  0.80455  1.0000
  H   H4230     1.0  0.63350  0.93665  0.56453  1.0000
  H   H4231     1.0  0.75655  0.86198  0.85719  1.0000
  H   H4232     1.0  0.78740  0.61511  0.81400  1.0000
  C   C3538     1.0  0.64998  0.83281  0.97210  1.0000
  H   H4233     1.0  0.65081  0.88351  0.61917  1.0000
  C   C3539     1.0  0.75631  0.79441  0.93358  1.0000
  S   S962      1.0  0.77223  0.65582  0.89044  1.0000
  C   C3540     1.0  0.69327  0.90089  0.76116  1.0000
  H   H4234     1.0  0.71648  0.90928  0.77016  1.0000
  H   H4235     1.0  0.77371  0.64746  0.77867  1.0000
  H   H4236     1.0  0.74281  0.69350  0.77937  1.0000
  H   H4237     1.0  0.66991  0.97129  0.89416  1.0000
  H   H4238     1.0  0.72665  0.68216  0.80372  1.0000
  H   H4239     1.0  0.73328  0.65386  0.81556  1.0000
  H   H4240     1.0  0.78005  0.65646  0.75303  1.0000
  C   C3541     1.0  0.75835  0.68591  0.92675  1.0000
  H   H4241     1.0  0.63973  0.82079  0.96154  1.0000
  H   H4242     1.0  0.77463  0.82528  0.67992  1.0000
  C   C3542     1.0  0.73455  0.79701  0.65244  1.0000
  C   C3543     1.0  0.64554  0.50107  0.91545  1.0000
  H   H4243     1.0  0.61044  0.55499  0.96315  1.0000
  C   C3544     1.0  0.59862  0.77119  0.85559  1.0000
  H   H4244     1.0  0.75587  0.80672  0.93202  1.0000
  S   S963      1.0  0.64004  0.50546  0.96045  1.0000
  H   H4245     1.0  0.76234  0.66825  0.74712  1.0000
  H   H4246     1.0  0.71115  0.88831  0.79296  1.0000
  H   H4247     1.0  0.66541  0.90273  0.61908  1.0000
  C   C3545     1.0  0.72097  0.80869  0.65506  1.0000
  H   H4248     1.0  0.63233  0.96875  0.63712  1.0000
  H   H4249     1.0  0.75596  0.66426  0.97327  1.0000
  S   S964      1.0  0.67595  0.52613  0.95673  1.0000
  H   H4250     1.0  0.60199  0.84815  0.85758  1.0000
  S   S965      1.0  0.66296  0.56110  0.96570  1.0000
  H   H4251     1.0  0.77260  0.69874  0.74333  1.0000
  H   H4252     1.0  0.65894  0.53263  0.88566  1.0000
  H   H4253     1.0  0.66300  0.94645  0.58015  1.0000
  H   H4254     1.0  0.75645  0.63673  0.80264  1.0000
  H   H4255     1.0  0.65433  0.97829  0.67692  1.0000
  C   C3546     1.0  0.77021  0.78342  0.93566  1.0000
  H   H4256     1.0  0.74691  0.66637  0.95747  1.0000
  C   C3547     1.0  0.60652  0.92162  0.68581  1.0000
  H   H4257     1.0  0.73541  0.68090  0.93182  1.0000
  H   H4258     1.0  0.77165  0.77125  0.61847  1.0000
  S   S966      1.0  0.68273  0.81235  0.94902  1.0000
  H   H4259     1.0  0.73216  0.95881  0.84584  1.0000
  H   H4260     1.0  0.69746  0.96369  0.86451  1.0000
  H   H4261     1.0  0.62145  0.87634  0.73150  1.0000
  C   C3548     1.0  0.60249  0.63403  0.96191  1.0000
  C   C3549     1.0  0.76650  0.66775  0.90413  1.0000
  H   H4262     1.0  0.63131  0.87069  0.94555  1.0000
  C   C3550     1.0  0.77764  0.67453  0.90621  1.0000
  C   C3551     1.0  0.67314  0.49781  0.90283  1.0000
  C   C3552     1.0  0.77354  0.68370  0.91741  1.0000
  H   H4263     1.0  0.72727  0.82460  0.88108  1.0000
  Fe  Fe484     1.0  0.61709  0.84951  0.79411  1.0000
  H   H4264     1.0  0.70551  0.90244  0.80507  1.0000
  H   H4265     1.0  0.60732  0.86666  0.84796  1.0000
  H   H4266     1.0  0.61417  0.87912  0.86289  1.0000
  H   H4267     1.0  0.71805  0.94668  0.85123  1.0000
  C   C3553     1.0  0.77477  0.65125  0.82238  1.0000
  H   H4268     1.0  0.60550  0.60106  0.94214  1.0000
  Fe  Fe485     1.0  0.66844  0.55126  0.94429  1.0000
  H   H4269     1.0  0.69790  0.58092  0.89317  1.0000
  H   H4270     1.0  0.75079  0.85072  0.69333  1.0000
  H   H4271     1.0  0.70785  0.83138  0.64574  1.0000
  H   H4272     1.0  0.75020  0.81419  0.61494  1.0000
  C   C3554     1.0  0.65880  0.97497  0.86023  1.0000
  C   C3555     1.0  0.66532  0.48340  0.94844  1.0000
  N   N232      1.0  0.76030  0.78646  0.63471  1.0000
  H   H4273     1.0  0.72423  0.69553  0.88187  1.0000
  Fe  Fe486     1.0  0.70312  0.79621  0.93706  1.0000
  C   C3556     1.0  0.68682  0.89352  0.75362  1.0000
  H   H4274     1.0  0.59295  0.62854  0.96893  1.0000
  C   C3557     1.0  0.65717  0.90591  0.61146  1.0000
  C   C3558     1.0  0.63403  0.90282  0.83623  1.0000
  C   C3559     1.0  0.67459  0.88602  0.76191  1.0000
  H   H4275     1.0  0.59789  0.97663  0.63193  1.0000
  S   S967      1.0  0.59894  0.89388  0.82271  1.0000
  C   C3560     1.0  0.73818  0.85213  0.87454  1.0000
  C   C3561     1.0  0.64978  0.97550  0.66849  1.0000
  H   H4276     1.0  0.70274  0.90644  0.75398  1.0000
  C   C3562     1.0  0.61923  0.90349  0.83368  1.0000
  H   H4277     1.0  0.66488  0.54492  0.89446  1.0000
  H   H4278     1.0  0.65558  0.87347  0.81775  1.0000
  H   H4279     1.0  0.63496  0.53369  0.90847  1.0000
  H   H4280     1.0  0.63528  0.91074  0.84251  1.0000
  C   C3563     1.0  0.61759  0.89340  0.82533  1.0000
  Fe  Fe487     1.0  0.75278  0.64959  0.88420  1.0000
  H   H4281     1.0  0.73962  0.62017  0.92802  1.0000
  H   H4282     1.0  0.71293  0.80767  0.66642  1.0000
  C   C3564     1.0  0.61371  0.62040  0.92499  1.0000
  C   C3565     1.0  0.63422  0.84570  0.95274  1.0000
  H   H4283     1.0  0.63885  0.94119  0.69234  1.0000
  C   C3566     1.0  0.70107  0.89690  0.79816  1.0000
  H   H4284     1.0  0.68314  0.84707  0.96439  1.0000
  C   C3567     1.0  0.69761  0.96767  0.83436  1.0000
  H   H4285     1.0  0.66052  0.92918  0.60310  1.0000
  H   H4286     1.0  0.75316  0.86574  0.67547  1.0000
  H   H4287     1.0  0.69367  0.83505  0.89653  1.0000
  H   H4288     1.0  0.75945  0.74926  0.96879  1.0000
  H   H4289     1.0  0.72652  0.83446  0.62015  1.0000
  C   C3568     1.0  0.64546  0.88186  0.82225  1.0000
  H   H4290     1.0  0.70252  0.84391  0.87686  1.0000
  N   N233      1.0  0.65910  0.52367  0.91014  1.0000
  S   S968      1.0  0.71545  0.61588  0.91446  1.0000
  H   H4291     1.0  0.63453  0.50723  0.92142  1.0000
  C   C3569     1.0  0.71806  0.82207  0.64340  1.0000
  H   H4292     1.0  0.67234  0.91448  0.80300  1.0000
  H   H4293     1.0  0.73632  0.78730  0.66224  1.0000
  S   S969      1.0  0.75352  0.69628  0.94166  1.0000
  C   C3570     1.0  0.60089  0.57577  0.97255  1.0000
  S   S970      1.0  0.60081  0.71121  0.88946  1.0000
  H   H4294     1.0  0.60138  0.85936  0.74931  1.0000
  H   H4295     1.0  0.70253  0.96421  0.82289  1.0000
  H   H4296     1.0  0.71790  0.81725  0.90073  1.0000
  H   H4297     1.0  0.77563  0.62179  0.97264  1.0000
  N   N234      1.0  0.71498  0.84243  0.89437  1.0000
  C   C3571     1.0  0.63077  0.88266  0.81955  1.0000
  H   H4298     1.0  0.71152  0.60207  0.89059  1.0000
  H   H4299     1.0  0.71693  0.72125  0.91812  1.0000
  C   C3572     1.0  0.66879  0.88575  0.77784  1.0000
  H   H4300     1.0  0.70319  0.85458  0.91326  1.0000
  C   C3573     1.0  0.75836  0.63021  0.92827  1.0000
  H   H4301     1.0  0.78531  0.78494  0.62948  1.0000
  S   S971      1.0  0.64170  0.84178  0.78090  1.0000
  C   C3574     1.0  0.66552  0.53253  0.89436  1.0000
  S   S972      1.0  0.75417  0.62506  0.88279  1.0000
  C   C3575     1.0  0.70212  0.97385  0.85645  1.0000
  H   H4302     1.0  0.74434  0.72231  0.91031  1.0000
  H   H4303     1.0  0.76644  0.88627  0.70984  1.0000
  N   N235      1.0  0.65651  0.62285  0.90583  1.0000
  C   C3576     1.0  0.66725  0.62272  0.91557  1.0000
  C   C3577     1.0  0.66487  0.61223  0.89495  1.0000
  C   C3578     1.0  0.65298  0.63898  0.89620  1.0000
  C   C3579     1.0  0.64235  0.61732  0.91596  1.0000
  C   C3580     1.0  0.62680  0.62628  0.91567  1.0000
  C   C3581     1.0  0.64387  0.60229  0.92622  1.0000
  C   C3582     1.0  0.63723  0.97058  0.64591  1.0000
  H   H4304     1.0  0.77931  0.87229  0.77668  1.0000
  C   C3583     1.0  0.59522  0.98195  0.59404  1.0000
  H   H4305     1.0  0.67150  0.61081  0.92233  1.0000
  H   H4306     1.0  0.67803  0.62685  0.90830  1.0000
  H   H4307     1.0  0.66141  0.63042  0.92405  1.0000
  H   H4308     1.0  0.66847  0.59993  0.90128  1.0000
  H   H4309     1.0  0.67582  0.61573  0.88733  1.0000
  H   H4310     1.0  0.65730  0.61210  0.88726  1.0000
  H   H4311     1.0  0.64678  0.64768  0.90366  1.0000
  H   H4312     1.0  0.66389  0.64286  0.88895  1.0000
  H   H4313     1.0  0.64569  0.63985  0.88785  1.0000
  H   H4314     1.0  0.62440  0.63786  0.90835  1.0000
  H   H4315     1.0  0.65528  0.59466  0.92700  1.0000
  H   H4316     1.0  0.75373  0.84634  0.67471  1.0000
  C   C3584     1.0  0.59538  0.85561  0.89468  1.0000
  C   C3585     1.0  0.63071  0.59662  0.93556  1.0000
  N   N236      1.0  0.77459  0.84911  0.67973  1.0000
  C   C3586     1.0  0.64893  0.89507  0.61158  1.0000
  C   C3587     1.0  0.77397  0.79362  0.63147  1.0000
  Fe  Fe488     1.0  0.59815  0.87405  0.81281  1.0000
  H   H4317     1.0  0.61207  0.66806  0.93819  1.0000
  H   H4318     1.0  0.67433  0.92863  0.78471  1.0000
  C   C3588     1.0  0.70597  0.91736  0.77554  1.0000
  C   C3589     1.0  0.74717  0.67920  0.92463  1.0000
  H   H4319     1.0  0.78041  0.78731  0.93573  1.0000
  C   C3590     1.0  0.77538  0.63545  0.82368  1.0000
  C   C3591     1.0  0.73676  0.62593  0.95020  1.0000
  C   C3592     1.0  0.68752  0.90096  0.77740  1.0000
  C   C3593     1.0  0.77353  0.66869  0.74958  1.0000
  Fe  Fe489     1.0  0.65067  0.52501  0.96115  1.0000
  C   C3594     1.0  0.59729  0.86097  0.85425  1.0000
  C   C3595     1.0  0.74221  0.81215  0.62620  1.0000
  H   H4320     1.0  0.69205  0.85570  0.89081  1.0000
  H   H4321     1.0  0.64075  0.95258  0.60158  1.0000
  H   H4322     1.0  0.72594  0.62179  0.95523  1.0000
  C   C3596     1.0  0.77456  0.87705  0.70439  1.0000
  S   S973      1.0  0.68044  0.56249  0.91995  1.0000
  C   C3597     1.0  0.70617  0.59611  0.90207  1.0000
  Fe  Fe490     1.0  0.74823  0.63619  0.85915  1.0000
  C   C3598     1.0  0.63780  0.89929  0.60241  1.0000
  C   C3599     1.0  0.76694  0.63222  0.97618  1.0000
  H   H4323     1.0  0.71038  0.92320  0.78219  1.0000
  H   H4324     1.0  0.67238  0.93952  0.69601  1.0000
  C   C3600     1.0  0.59671  0.78080  0.84093  1.0000
  C   C3601     1.0  0.64717  0.89201  0.83045  1.0000
  S   S974      1.0  0.66604  0.89091  0.83281  1.0000
  H   H4325     1.0  0.62976  0.87519  0.81269  1.0000
  N   N237      1.0  0.64153  0.79668  0.81592  1.0000
  C   C3602     1.0  0.63179  0.81236  0.81767  1.0000
  C   C3603     1.0  0.65699  0.79861  0.80550  1.0000
  C   C3604     1.0  0.63370  0.78994  0.80782  1.0000
  C   C3605     1.0  0.64361  0.78703  0.83157  1.0000
  C   C3606     1.0  0.63755  0.77328  0.83864  1.0000
  C   C3607     1.0  0.65148  0.79161  0.84049  1.0000
  C   C3608     1.0  0.63934  0.76473  0.85364  1.0000
  C   C3609     1.0  0.65328  0.78291  0.85545  1.0000
  C   C3610     1.0  0.64719  0.76951  0.86203  1.0000
  H   H4326     1.0  0.63775  0.81907  0.82182  1.0000
  H   H4327     1.0  0.62911  0.81964  0.80631  1.0000
  H   H4328     1.0  0.62039  0.81148  0.82609  1.0000
  H   H4329     1.0  0.65572  0.80555  0.79351  1.0000
  H   H4330     1.0  0.66494  0.78705  0.80430  1.0000
  H   H4331     1.0  0.66305  0.80512  0.80977  1.0000
  H   H4332     1.0  0.62153  0.78918  0.81442  1.0000
  H   H4333     1.0  0.63260  0.79735  0.79597  1.0000
  H   H4334     1.0  0.64044  0.77808  0.80610  1.0000
  H   H4335     1.0  0.63116  0.76892  0.83299  1.0000
  H   H4336     1.0  0.65616  0.80208  0.83601  1.0000
  H   H4337     1.0  0.63443  0.75438  0.85883  1.0000
  H   H4338     1.0  0.65936  0.78664  0.86202  1.0000
  H   H4339     1.0  0.64850  0.76278  0.87366  1.0000
  N   N238      1.0  0.70100  0.70673  0.90536  1.0000
  C   C3611     1.0  0.69189  0.71319  0.91935  1.0000
  C   C3612     1.0  0.69322  0.71535  0.89215  1.0000
  C   C3613     1.0  0.70011  0.69003  0.90897  1.0000
  C   C3614     1.0  0.71764  0.70806  0.90085  1.0000
  C   C3615     1.0  0.72814  0.70152  0.88834  1.0000
  C   C3616     1.0  0.72389  0.71588  0.90848  1.0000
  C   C3617     1.0  0.74395  0.70239  0.88400  1.0000
  C   C3618     1.0  0.73970  0.71676  0.90397  1.0000
  C   C3619     1.0  0.74972  0.70997  0.89183  1.0000
  H   H4340     1.0  0.69144  0.72592  0.91725  1.0000
  H   H4341     1.0  0.67945  0.71201  0.92250  1.0000
  H   H4342     1.0  0.69703  0.70707  0.92980  1.0000
  H   H4343     1.0  0.69384  0.72792  0.88896  1.0000
  H   H4344     1.0  0.68063  0.71471  0.89509  1.0000
  H   H4345     1.0  0.69878  0.71051  0.88146  1.0000
  H   H4346     1.0  0.70685  0.68290  0.91805  1.0000
  H   H4347     1.0  0.68776  0.68852  0.91324  1.0000
  Fe  Fe491     1.0  0.77488  0.70307  0.94331  1.0000
  C   C3620     1.0  0.59966  0.65009  0.95422  1.0000
  C   C3621     1.0  0.71114  0.84333  0.91109  1.0000
  C   C3622     1.0  0.64985  0.93518  0.68537  1.0000
  Fe  Fe492     1.0  0.68269  0.77587  0.93489  1.0000
  C   C3623     1.0  0.72307  0.85508  0.88458  1.0000
  H   H4348     1.0  0.70407  0.87426  0.89181  1.0000
  S   S975      1.0  0.76169  0.62574  0.83810  1.0000
  H   H4349     1.0  0.62956  0.96525  0.58767  1.0000
  C   C3624     1.0  0.65195  0.95987  0.66693  1.0000
  H   H4350     1.0  0.64657  0.92998  0.67734  1.0000
  H   H4351     1.0  0.74487  0.84043  0.87384  1.0000
  H   H4352     1.0  0.72198  0.84196  0.91526  1.0000
  C   C3625     1.0  0.61566  0.60560  0.93489  1.0000
  H   H4353     1.0  0.59745  0.87722  0.70381  1.0000
  C   C3626     1.0  0.76933  0.86951  0.69600  1.0000
  C   C3627     1.0  0.71560  0.87102  0.88457  1.0000
  C   C3628     1.0  0.64312  0.92574  0.59261  1.0000
  H   H4354     1.0  0.76334  0.70250  0.76227  1.0000
  H   H4355     1.0  0.59457  0.90225  0.74102  1.0000
  C   C3629     1.0  0.61774  0.86120  0.90001  1.0000
  C   C3630     1.0  0.66327  0.96785  0.87454  1.0000
  S   S976      1.0  0.72586  0.80393  0.93110  1.0000
  H   H4356     1.0  0.74264  0.66484  0.91191  1.0000
  C   C3631     1.0  0.67516  0.89305  0.78549  1.0000
  C   C3632     1.0  0.64549  0.95783  0.65527  1.0000
  C   C3633     1.0  0.74511  0.86444  0.86491  1.0000
  H   H4357     1.0  0.69130  0.89364  0.74121  1.0000
  H   H4358     1.0  0.62592  0.91685  0.58646  1.0000
  H   H4359     1.0  0.75414  0.96492  0.76254  1.0000
  H   H4360     1.0  0.61639  0.87218  0.71603  1.0000
  C   C3634     1.0  0.62813  0.64663  0.94360  1.0000
  H   H4361     1.0  0.61716  0.94303  0.57971  1.0000
  C   C3635     1.0  0.72269  0.88320  0.87498  1.0000
  C   C3636     1.0  0.75123  0.67018  0.91328  1.0000
  H   H4362     1.0  0.71664  0.89530  0.87500  1.0000
  C   C3637     1.0  0.73734  0.87993  0.86506  1.0000
  C   C3638     1.0  0.61278  0.88062  0.72384  1.0000
  C   C3639     1.0  0.76446  0.69455  0.75450  1.0000
  N   N239      1.0  0.69383  0.90876  0.78584  1.0000
  H   H4363     1.0  0.60908  0.91191  0.83809  1.0000
  C   C3640     1.0  0.68092  0.92022  0.79339  1.0000
  H   H4364     1.0  0.64661  0.87256  0.96262  1.0000
  C   C3641     1.0  0.76204  0.77270  0.64799  1.0000
  S   S977      1.0  0.77550  0.71455  0.96198  1.0000
  N   N240      1.0  0.63993  0.94202  0.58331  1.0000
  H   H4365     1.0  0.60781  0.92133  0.70915  1.0000
  C   C3642     1.0  0.66629  0.97689  0.88319  1.0000
  C   C3643     1.0  0.63490  0.91437  0.59301  1.0000
  C   C3644     1.0  0.62902  0.94463  0.57287  1.0000
  H   H4366     1.0  0.76422  0.62958  0.91626  1.0000
  C   C3645     1.0  0.65477  0.94617  0.57325  1.0000
  H   H4367     1.0  0.71053  0.97618  0.86195  1.0000
  H   H4368     1.0  0.74260  0.88947  0.85741  1.0000
  C   C3646     1.0  0.61768  0.62469  0.96070  1.0000
  H   H4369     1.0  0.77319  0.76397  0.64524  1.0000
  H   H4370     1.0  0.65259  0.95804  0.56547  1.0000
  H   H4371     1.0  0.69231  0.95791  0.84247  1.0000
  C   C3647     1.0  0.65427  0.92106  0.60224  1.0000
  H   H4372     1.0  0.72729  0.95215  0.83129  1.0000
  H   H4373     1.0  0.61872  0.91565  0.68259  1.0000
  C   C3648     1.0  0.59499  0.79445  0.86544  1.0000
  C   C3649     1.0  0.74561  0.79839  0.63785  1.0000
  C   C3650     1.0  0.77974  0.85751  0.68855  1.0000
  H   H4374     1.0  0.63807  0.65155  0.93639  1.0000
  H   H4375     1.0  0.78092  0.67377  0.73829  1.0000
  H   H4376     1.0  0.78754  0.64058  0.94984  1.0000
  S   S978      1.0  0.60290  0.87373  0.78735  1.0000
  C   C3651     1.0  0.72866  0.82381  0.62900  1.0000
  C   C3652     1.0  0.61125  0.87201  0.87454  1.0000
  C   C3653     1.0  0.75733  0.85322  0.68092  1.0000
  C   C3654     1.0  0.64320  0.53286  0.91587  1.0000
  H   H4377     1.0  0.62512  0.85994  0.90803  1.0000
  H   H4378     1.0  0.77850  0.84701  0.65582  1.0000
  H   H4379     1.0  0.78203  0.65520  0.96117  1.0000
  H   H4380     1.0  0.63063  0.87603  0.88107  1.0000
  H   H4381     1.0  0.63489  0.84057  0.84593  1.0000
  H   H4382     1.0  0.78395  0.68337  0.77482  1.0000
  H   H4383     1.0  0.76250  0.77620  0.65865  1.0000
  H   H4384     1.0  0.75226  0.76653  0.65098  1.0000
  H   H4385     1.0  0.60393  0.88440  0.75244  1.0000
  H   H4386     1.0  0.59437  0.96239  0.61385  1.0000
  C   C3655     1.0  0.74446  0.62496  0.93485  1.0000
  C   C3656     1.0  0.59326  0.80406  0.85074  1.0000
  C   C3657     1.0  0.64924  0.48730  0.95497  1.0000
  H   H4387     1.0  0.59085  0.89092  0.85646  1.0000
  C   C3658     1.0  0.64599  0.48590  0.91447  1.0000
  N   N241      1.0  0.76322  0.64438  0.96223  1.0000
  C   C3659     1.0  0.59411  0.79719  0.83847  1.0000
  H   H4388     1.0  0.59255  0.80452  0.82716  1.0000
  C   C3660     1.0  0.74291  0.63219  0.95901  1.0000
  H   H4389     1.0  0.66432  0.51666  0.93298  1.0000
  S   S979      1.0  0.59306  0.90190  0.62860  1.0000
  H   H4390     1.0  0.68408  0.50168  0.89861  1.0000
  H   H4391     1.0  0.78489  0.87873  0.74737  1.0000
  C   C3661     1.0  0.72235  0.95660  0.84226  1.0000
  S   S980      1.0  0.78867  0.75422  0.94063  1.0000
  H   H4392     1.0  0.76737  0.98128  0.77007  1.0000
  H   H4393     1.0  0.64679  0.94632  0.65331  1.0000
  C   C3662     1.0  0.62083  0.87023  0.88485  1.0000
  N   N242      1.0  0.59635  0.88146  0.73307  1.0000
  H   H4394     1.0  0.77523  0.64066  0.93092  1.0000
  C   C3663     1.0  0.61298  0.65608  0.94478  1.0000
  C   C3664     1.0  0.59444  0.88964  0.74576  1.0000
  C   C3665     1.0  0.79019  0.87298  0.70559  1.0000
  C   C3666     1.0  0.78773  0.97056  0.72563  1.0000
  C   C3667     1.0  0.65229  0.84732  0.97298  1.0000
  Fe  Fe493     1.0  0.59292  0.84074  0.82413  1.0000
  H   H4395     1.0  0.77569  0.65965  0.94332  1.0000
  H   H4396     1.0  0.59927  0.77079  0.87918  1.0000
  C   C3668     1.0  0.64104  0.83207  0.96216  1.0000
  H   H4397     1.0  0.73832  0.77310  0.97010  1.0000
  H   H4398     1.0  0.73649  0.63269  0.97085  1.0000
  H   H4399     1.0  0.77440  0.82862  0.69854  1.0000
  C   C3669     1.0  0.59756  0.98243  0.61989  1.0000
  S   S981      1.0  0.59091  0.92862  0.58629  1.0000
  C   C3670     1.0  0.77912  0.83193  0.68570  1.0000
  C   C3671     1.0  0.78623  0.65857  0.81140  1.0000
  S   S982      1.0  0.61826  0.57589  0.97738  1.0000
  C   C3672     1.0  0.77775  0.65013  0.95372  1.0000
  C   C3673     1.0  0.78564  0.67695  0.76549  1.0000
  C   C3674     1.0  0.59703  0.92621  0.67488  1.0000
  H   H4400     1.0  0.59724  0.77554  0.83144  1.0000
  C   C3675     1.0  0.78231  0.85291  0.66291  1.0000
  H   H4401     1.0  0.76173  0.98115  0.71698  1.0000
  H   H4402     1.0  0.59716  0.85797  0.73163  1.0000
  H   H4403     1.0  0.78762  0.65765  0.85965  1.0000
  C   C3676     1.0  0.78700  0.62729  0.81322  1.0000
  H   H4404     1.0  0.77951  0.86575  0.65801  1.0000
  S   S983      1.0  0.59366  0.97215  0.58063  1.0000
  C   C3677     1.0  0.59542  0.97444  0.60971  1.0000
  H   H4405     1.0  0.77755  0.97026  0.73580  1.0000
  H   H4406     1.0  0.66711  0.87083  0.97271  1.0000
  S   S984      1.0  0.78731  0.71910  0.92326  1.0000
  C   C3678     1.0  0.59410  0.86533  0.74043  1.0000
  H   H4407     1.0  0.68779  0.97809  0.83291  1.0000
  H   H4408     1.0  0.63215  0.58514  0.94337  1.0000
  C   C3679     1.0  0.75104  0.97751  0.75893  1.0000
  H   H4409     1.0  0.59413  0.79970  0.87504  1.0000
  H   H4410     1.0  0.78463  0.64424  0.85041  1.0000
  Fe  Fe494     1.0  0.78937  0.79401  0.66408  1.0000
  C   C3680     1.0  0.72464  0.98270  0.81414  1.0000
  Fe  Fe495     1.0  0.86724  0.45604  0.41892  1.0000
  S   S985      1.0  0.87759  0.47297  0.39828  1.0000
  S   S986      1.0  0.86283  0.43260  0.41943  1.0000
  H   H4411     1.0  0.94945  0.46205  0.40912  1.0000
  Fe  Fe496     1.0  0.89233  0.47416  0.41369  1.0000
  S   S987      1.0  0.91793  0.47338  0.40455  1.0000
  S   S988      1.0  0.88371  0.45547  0.43344  1.0000
  H   H4412     1.0  0.84534  0.46298  0.40058  1.0000
  Fe  Fe497     1.0  0.96077  0.15709  0.26558  1.0000
  S   S989      1.0  0.95148  0.14558  0.29037  1.0000
  S   S990      1.0  0.94641  0.17864  0.25294  1.0000
  Fe  Fe498     1.0  0.96104  0.12342  0.28136  1.0000
  S   S991      1.0  0.94890  0.10429  0.28322  1.0000
  C   C3681     1.0  0.83553  0.47298  0.39760  1.0000
  H   H4413     1.0  0.97620  0.29972  0.44314  1.0000
  S   S992      1.0  0.97357  0.25723  0.19478  1.0000
  S   S993      1.0  0.82428  0.24256  0.42966  1.0000
  C   C3682     1.0  0.83159  0.46172  0.37749  1.0000
  H   H4414     1.0  0.82485  0.30761  0.38111  1.0000
  H   H4415     1.0  0.81281  0.25044  0.22062  1.0000
  H   H4416     1.0  0.80395  0.25045  0.36574  1.0000
  C   C3683     1.0  0.87554  0.29302  0.42966  1.0000
  Fe  Fe499     1.0  0.96747  0.25688  0.17255  1.0000
  S   S994      1.0  0.94287  0.26510  0.16815  1.0000
  S   S995      1.0  0.84538  0.22587  0.46529  1.0000
  S   S996      1.0  0.94533  0.45632  0.46488  1.0000
  C   C3684     1.0  0.92360  0.25506  0.41843  1.0000
  Fe  Fe500     1.0  0.86296  0.11666  0.27884  1.0000
  S   S997      1.0  0.87097  0.09917  0.26343  1.0000
  S   S998      1.0  0.87469  0.12281  0.29444  1.0000
  Fe  Fe501     1.0  0.83318  0.13225  0.26641  1.0000
  S   S999      1.0  0.83829  0.11627  0.25010  1.0000
  S   S1000     1.0  0.97198  0.48242  0.46758  1.0000
  Fe  Fe502     1.0  0.84546  0.09731  0.27016  1.0000
  S   S1001     1.0  0.83491  0.07587  0.27801  1.0000
  Fe  Fe503     1.0  0.86301  0.11963  0.24466  1.0000
  S   S1002     1.0  0.87643  0.12968  0.22088  1.0000
  S   S1003     1.0  0.83819  0.11324  0.28709  1.0000
  S   S1004     1.0  0.85714  0.13703  0.25958  1.0000
  Fe  Fe504     1.0  0.87802  0.22688  0.17101  1.0000
  S   S1005     1.0  0.86195  0.21489  0.16583  1.0000
  S   S1006     1.0  0.90426  0.21765  0.16664  1.0000
  Fe  Fe505     1.0  0.85130  0.24925  0.18705  1.0000
  S   S1007     1.0  0.83302  0.23937  0.18346  1.0000
  S   S1008     1.0  0.84311  0.26997  0.19826  1.0000
  Fe  Fe506     1.0  0.84864  0.21617  0.19028  1.0000
  S   S1009     1.0  0.83617  0.19827  0.20708  1.0000
  Fe  Fe507     1.0  0.84759  0.23920  0.15925  1.0000
  C   C3685     1.0  0.91280  0.26205  0.40870  1.0000
  S   S1010     1.0  0.86572  0.22593  0.19626  1.0000
  S   S1011     1.0  0.86485  0.25122  0.16216  1.0000
  S   S1012     1.0  0.97605  0.23204  0.44646  1.0000
  C   C3686     1.0  0.82778  0.23462  0.13450  1.0000
  Fe  Fe508     1.0  0.88159  0.35059  0.36316  1.0000
  S   S1013     1.0  0.87339  0.36393  0.38232  1.0000
  S   S1014     1.0  0.90718  0.33874  0.35853  1.0000
  Fe  Fe509     1.0  0.84919  0.35784  0.35598  1.0000
  Fe  Fe510     1.0  0.86043  0.38220  0.36546  1.0000
  S   S1015     1.0  0.86218  0.40745  0.36120  1.0000
  Fe  Fe511     1.0  0.85261  0.35305  0.38928  1.0000
  S   S1016     1.0  0.84265  0.34345  0.41446  1.0000
  S   S1017     1.0  0.86983  0.36944  0.34562  1.0000
  S   S1018     1.0  0.86192  0.33782  0.37186  1.0000
  S   S1019     1.0  0.84378  0.26294  0.39805  1.0000
  Fe  Fe512     1.0  0.82839  0.26692  0.42102  1.0000
  C   C3687     1.0  0.91337  0.21069  0.47599  1.0000
  C   C3688     1.0  0.79646  0.33984  0.37328  1.0000
  C   C3689     1.0  0.98640  0.07414  0.27093  1.0000
  H   H4417     1.0  0.80543  0.21666  0.28562  1.0000
  N   N243      1.0  0.83768  0.01128  0.22794  1.0000
  S   S1020     1.0  0.84831  0.26261  0.43260  1.0000
  H   H4418     1.0  0.83008  0.01955  0.25645  1.0000
  Fe  Fe513     1.0  0.96518  0.37943  0.37147  1.0000
  S   S1021     1.0  0.93951  0.38556  0.37143  1.0000
  S   S1022     1.0  0.97187  0.38289  0.39190  1.0000
  H   H4419     1.0  0.79659  0.11875  0.25868  1.0000
  Fe  Fe514     1.0  0.95943  0.27679  0.43950  1.0000
  S   S1023     1.0  0.94753  0.30219  0.43371  1.0000
  S   S1024     1.0  0.96194  0.26313  0.42164  1.0000
  H   H4420     1.0  0.79942  0.30247  0.39447  1.0000
  C   C3690     1.0  0.81292  0.20726  0.17416  1.0000
  H   H4421     1.0  0.97866  0.37539  0.32991  1.0000
  C   C3691     1.0  0.96077  0.31454  0.42812  1.0000
  C   C3692     1.0  0.95810  0.32851  0.41694  1.0000
  C   C3693     1.0  0.96932  0.33779  0.41125  1.0000
  H   H4422     1.0  0.84756  0.25959  0.10405  1.0000
  N   N244      1.0  0.79112  0.23796  0.27473  1.0000
  H   H4423     1.0  0.94760  0.33194  0.41232  1.0000
  H   H4424     1.0  0.96730  0.34842  0.40243  1.0000
  C   C3694     1.0  0.91722  0.35168  0.36071  1.0000
  C   C3695     1.0  0.93226  0.34634  0.36401  1.0000
  C   C3696     1.0  0.93941  0.35664  0.36723  1.0000
  C   C3697     1.0  0.93140  0.37220  0.36729  1.0000
  C   C3698     1.0  0.91655  0.37750  0.36373  1.0000
  C   C3699     1.0  0.90963  0.36736  0.36018  1.0000
  H   H4425     1.0  0.93818  0.33420  0.36444  1.0000
  H   H4426     1.0  0.95089  0.35249  0.37002  1.0000
  H   H4427     1.0  0.91035  0.38954  0.36360  1.0000
  H   H4428     1.0  0.89830  0.37177  0.35709  1.0000
  C   C3700     1.0  0.83330  0.32841  0.41632  1.0000
  C   C3701     1.0  0.84116  0.31571  0.40927  1.0000
  C   C3702     1.0  0.83386  0.30332  0.41157  1.0000
  C   C3703     1.0  0.81848  0.30392  0.42041  1.0000
  C   C3704     1.0  0.81047  0.31683  0.42707  1.0000
  C   C3705     1.0  0.81799  0.32892  0.42528  1.0000
  H   H4429     1.0  0.85304  0.31519  0.40246  1.0000
  C   C3706     1.0  0.81903  0.21258  0.12403  1.0000
  C   C3707     1.0  0.79699  0.21783  0.39904  1.0000
  H   H4430     1.0  0.89189  0.20476  0.47636  1.0000
  H   H4431     1.0  0.80048  0.98762  0.28208  1.0000
  H   H4432     1.0  0.91513  0.27160  0.39883  1.0000
  S   S1025     1.0  0.88540  0.26547  0.39972  1.0000
  C   C3708     1.0  0.90673  0.23747  0.43429  1.0000
  C   C3709     1.0  0.83264  0.20848  0.12999  1.0000
  C   C3710     1.0  0.83696  0.21943  0.13530  1.0000
  H   H4433     1.0  0.83987  0.19680  0.13043  1.0000
  H   H4434     1.0  0.84757  0.21623  0.13968  1.0000
  C   C3711     1.0  0.84582  0.25167  0.22759  1.0000
  H   H4435     1.0  0.85370  0.24275  0.22171  1.0000
  C   C3712     1.0  0.82831  0.07168  0.26345  1.0000
  S   S1026     1.0  0.81605  0.28825  0.30099  1.0000
  H   H4436     1.0  0.97544  0.19798  0.31824  1.0000
  C   C3713     1.0  0.89891  0.25680  0.41185  1.0000
  C   C3714     1.0  0.82673  0.07636  0.23630  1.0000
  C   C3715     1.0  0.83288  0.07884  0.24771  1.0000
  Fe  Fe515     1.0  0.95245  0.24553  0.44200  1.0000
  H   H4437     1.0  0.83031  0.08204  0.22414  1.0000
  H   H4438     1.0  0.84127  0.08622  0.24428  1.0000
  C   C3716     1.0  0.89581  0.24466  0.42479  1.0000
  C   C3717     1.0  0.82637  0.15896  0.28711  1.0000
  H   H4439     1.0  0.82820  0.28771  0.44941  1.0000
  H   H4440     1.0  0.83562  0.14890  0.28498  1.0000
  H   H4441     1.0  0.83736  0.16458  0.30238  1.0000
  C   C3718     1.0  0.86509  0.14843  0.21506  1.0000
  C   C3719     1.0  0.87172  0.16006  0.20360  1.0000
  C   C3720     1.0  0.86284  0.17551  0.20066  1.0000
  C   C3721     1.0  0.84730  0.17911  0.20903  1.0000
  C   C3722     1.0  0.84054  0.16735  0.21983  1.0000
  C   C3723     1.0  0.84941  0.15213  0.22283  1.0000
  H   H4442     1.0  0.88381  0.15721  0.19738  1.0000
  H   H4443     1.0  0.86808  0.18461  0.19218  1.0000
  H   H4444     1.0  0.82848  0.17000  0.22624  1.0000
  H   H4445     1.0  0.84404  0.14333  0.23139  1.0000
  Fe  Fe516     1.0  0.97226  0.24821  0.46262  1.0000
  C   C3724     1.0  0.93315  0.25164  0.16643  1.0000
  C   C3725     1.0  0.91869  0.25733  0.16192  1.0000
  C   C3726     1.0  0.90987  0.24695  0.16177  1.0000
  C   C3727     1.0  0.91555  0.23081  0.16595  1.0000
  C   C3728     1.0  0.93033  0.22508  0.16984  1.0000
  C   C3729     1.0  0.93907  0.23548  0.17021  1.0000
  H   H4446     1.0  0.91415  0.26983  0.15879  1.0000
  H   H4447     1.0  0.89868  0.25146  0.15840  1.0000
  H   H4448     1.0  0.93486  0.21258  0.17295  1.0000
  H   H4449     1.0  0.95016  0.23097  0.17380  1.0000
  C   C3730     1.0  0.86744  0.25246  0.47748  1.0000
  H   H4450     1.0  0.88503  0.24070  0.42750  1.0000
  H   H4451     1.0  0.81003  0.34333  0.33440  1.0000
  H   H4452     1.0  0.79884  0.29185  0.10335  1.0000
  S   S1027     1.0  0.96890  0.13524  0.25632  1.0000
  S   S1028     1.0  0.86258  0.23068  0.41836  1.0000
  H   H4453     1.0  0.87473  0.33930  0.41975  1.0000
  H   H4454     1.0  0.81191  0.33876  0.43072  1.0000
  C   C3731     1.0  0.92064  0.24263  0.43114  1.0000
  H   H4455     1.0  0.98834  0.38287  0.30169  1.0000
  C   C3732     1.0  0.92828  0.10951  0.28638  1.0000
  C   C3733     1.0  0.91964  0.12127  0.29447  1.0000
  C   C3734     1.0  0.90317  0.12499  0.29720  1.0000
  C   C3735     1.0  0.89529  0.11736  0.29138  1.0000
  C   C3736     1.0  0.90393  0.10575  0.28309  1.0000
  C   C3737     1.0  0.92039  0.10170  0.28078  1.0000
  H   H4456     1.0  0.92562  0.12719  0.29903  1.0000
  H   H4457     1.0  0.89653  0.13387  0.30376  1.0000
  H   H4458     1.0  0.89792  0.09969  0.27871  1.0000
  H   H4459     1.0  0.92700  0.09250  0.27462  1.0000
  C   C3738     1.0  0.95975  0.18804  0.23805  1.0000
  H   H4460     1.0  0.95042  0.24241  0.12968  1.0000
  H   H4461     1.0  0.95872  0.20909  0.42705  1.0000
  C   C3739     1.0  0.83120  0.46187  0.36194  1.0000
  C   C3740     1.0  0.96697  0.21199  0.22140  1.0000
  C   C3741     1.0  0.95543  0.20396  0.23122  1.0000
  H   H4462     1.0  0.96384  0.22446  0.21673  1.0000
  H   H4463     1.0  0.94339  0.21024  0.23417  1.0000
  C   C3742     1.0  0.81533  0.00407  0.27051  1.0000
  H   H4464     1.0  0.83602  0.15715  0.16510  1.0000
  H   H4465     1.0  0.97222  0.44574  0.39596  1.0000
  C   C3743     1.0  0.86381  0.42549  0.40293  1.0000
  C   C3744     1.0  0.86807  0.43397  0.38762  1.0000
  C   C3745     1.0  0.86783  0.42823  0.37483  1.0000
  C   C3746     1.0  0.86361  0.41386  0.37729  1.0000
  C   C3747     1.0  0.85986  0.40518  0.39259  1.0000
  C   C3748     1.0  0.85991  0.41102  0.40534  1.0000
  H   H4466     1.0  0.87140  0.44495  0.38569  1.0000
  H   H4467     1.0  0.85647  0.39418  0.39463  1.0000
  H   H4468     1.0  0.85664  0.40438  0.41716  1.0000
  C   C3749     1.0  0.92553  0.46867  0.42131  1.0000
  C   C3750     1.0  0.91542  0.46989  0.43587  1.0000
  C   C3751     1.0  0.92145  0.46575  0.44939  1.0000
  C   C3752     1.0  0.93762  0.46064  0.44826  1.0000
  C   C3753     1.0  0.94769  0.45933  0.43374  1.0000
  C   C3754     1.0  0.94166  0.46331  0.42026  1.0000
  H   H4469     1.0  0.88458  0.33578  0.43537  1.0000
  N   N245      1.0  0.97401  0.24633  0.12083  1.0000
  H   H4470     1.0  0.96013  0.45504  0.43289  1.0000
  C   C3755     1.0  0.80881  0.22709  0.22880  1.0000
  C   C3756     1.0  0.96774  0.37292  0.30632  1.0000
  H   H4471     1.0  0.80338  0.05161  0.25948  1.0000
  H   H4472     1.0  0.81433  0.23322  0.27898  1.0000
  C   C3757     1.0  0.80379  0.21583  0.24175  1.0000
  N   N246      1.0  0.79925  0.27614  0.08896  1.0000
  H   H4473     1.0  0.99024  0.38100  0.42967  1.0000
  H   H4474     1.0  0.83813  0.03388  0.21202  1.0000
  C   C3758     1.0  0.80202  0.19530  0.16016  1.0000
  C   C3759     1.0  0.97286  0.25494  0.13285  1.0000
  C   C3760     1.0  0.81484  0.26454  0.46717  1.0000
  N   N247      1.0  0.80292  0.32264  0.37586  1.0000
  H   H4475     1.0  0.96996  0.40039  0.31284  1.0000
  H   H4476     1.0  0.79147  0.07947  0.28344  1.0000
  C   C3761     1.0  0.82495  0.01015  0.25648  1.0000
  S   S1029     1.0  0.79772  0.99954  0.21425  1.0000
  C   C3762     1.0  0.82760  0.00447  0.24270  1.0000
  H   H4477     1.0  0.81225  0.09010  0.31668  1.0000
  Fe  Fe517     1.0  0.79287  0.20532  0.10696  1.0000
  H   H4478     1.0  0.80802  0.10529  0.27230  1.0000
  H   H4479     1.0  0.91360  0.46692  0.46059  1.0000
  S   S1030     1.0  0.80858  0.06431  0.22555  1.0000
  H   H4480     1.0  0.86252  0.32988  0.30048  1.0000
  C   C3763     1.0  0.80098  0.13556  0.35143  1.0000
  S   S1031     1.0  0.94782  0.26019  0.45949  1.0000
  H   H4481     1.0  0.86693  0.24674  0.45618  1.0000
  C   C3764     1.0  0.80067  0.29062  0.46984  1.0000
  Fe  Fe518     1.0  0.84151  0.23793  0.40739  1.0000
  C   C3765     1.0  0.96635  0.37383  0.33288  1.0000
  H   H4482     1.0  0.80034  0.30135  0.47363  1.0000
  H   H4483     1.0  0.87166  0.31662  0.41686  1.0000
  H   H4484     1.0  0.84015  0.29334  0.40648  1.0000
  C   C3766     1.0  0.88546  0.28077  0.43763  1.0000
  H   H4485     1.0  0.79487  0.21007  0.26634  1.0000
  C   C3767     1.0  0.96649  0.19447  0.28027  1.0000
  H   H4486     1.0  0.96718  0.34603  0.28647  1.0000
  C   C3768     1.0  0.85682  0.29497  0.33884  1.0000
  Fe  Fe519     1.0  0.79968  0.31274  0.26389  1.0000
  H   H4487     1.0  0.88229  0.26951  0.44264  1.0000
  H   H4488     1.0  0.84217  0.18917  0.17697  1.0000
  H   H4489     1.0  0.84654  0.00972  0.20362  1.0000
  H   H4490     1.0  0.82007  0.17990  0.19668  1.0000
  C   C3769     1.0  0.98416  0.19023  0.37250  1.0000
  C   C3770     1.0  0.86248  0.24500  0.46871  1.0000
  C   C3771     1.0  0.98315  0.33320  0.41685  1.0000
  H   H4491     1.0  0.86183  0.01340  0.21934  1.0000
  H   H4492     1.0  0.80245  0.09818  0.25895  1.0000
  H   H4493     1.0  0.97006  0.09883  0.25478  1.0000
  H   H4494     1.0  0.81446  0.05585  0.27979  1.0000
  C   C3772     1.0  0.82915  0.44882  0.35812  1.0000
  C   C3773     1.0  0.79737  0.30103  0.34159  1.0000
  C   C3774     1.0  0.80910  0.29992  0.36282  1.0000
  H   H4495     1.0  0.96166  0.42649  0.44805  1.0000
  S   S1032     1.0  0.98458  0.11915  0.28723  1.0000
  H   H4496     1.0  0.89604  0.28292  0.34460  1.0000
  C   C3775     1.0  0.86487  0.28757  0.35124  1.0000
  N   N248      1.0  0.83440  0.47548  0.38108  1.0000
  H   H4497     1.0  0.96568  0.23109  0.26029  1.0000
  Fe  Fe520     1.0  0.86353  0.25607  0.41050  1.0000
  C   C3776     1.0  0.82343  0.33239  0.31524  1.0000
  S   S1033     1.0  0.83128  0.35306  0.34571  1.0000
  S   S1034     1.0  0.83322  0.24869  0.14068  1.0000
  C   C3777     1.0  0.81885  0.25080  0.08471  1.0000
  N   N249      1.0  0.81507  0.27855  0.47234  1.0000
  C   C3778     1.0  0.84294  0.24922  0.24400  1.0000
  C   C3779     1.0  0.83447  0.34373  0.33007  1.0000
  H   H4498     1.0  0.94129  0.36649  0.33035  1.0000
  H   H4499     1.0  0.85693  0.30685  0.33247  1.0000
  H   H4500     1.0  0.81550  0.16319  0.16607  1.0000
  H   H4501     1.0  0.80409  0.25991  0.47304  1.0000
  S   S1035     1.0  0.81232  0.15224  0.26757  1.0000
  H   H4502     1.0  0.87073  0.43498  0.36301  1.0000
  C   C3780     1.0  0.86354  0.27195  0.35884  1.0000
  H   H4503     1.0  0.84876  0.23856  0.25078  1.0000
  C   C3781     1.0  0.85500  0.26413  0.35410  1.0000
  H   H4504     1.0  0.79914  0.34513  0.38165  1.0000
  C   C3782     1.0  0.83899  0.00430  0.21455  1.0000
  N   N250      1.0  0.82529  0.17920  0.17224  1.0000
  C   C3783     1.0  0.97709  0.20396  0.27885  1.0000
  H   H4505     1.0  0.96611  0.18868  0.39317  1.0000
  H   H4506     1.0  0.81083  0.30064  0.19256  1.0000
  N   N251      1.0  0.85100  0.19195  0.24930  1.0000
  C   C3784     1.0  0.86415  0.18547  0.23726  1.0000
  C   C3785     1.0  0.83745  0.18495  0.25149  1.0000
  C   C3786     1.0  0.84627  0.20906  0.24300  1.0000
  C   C3787     1.0  0.85571  0.18812  0.26450  1.0000
  C   C3788     1.0  0.85198  0.19919  0.27408  1.0000
  C   C3789     1.0  0.86341  0.17265  0.27061  1.0000
  C   C3790     1.0  0.85609  0.19499  0.28866  1.0000
  C   C3791     1.0  0.86765  0.16864  0.28509  1.0000
  C   C3792     1.0  0.86400  0.17979  0.29410  1.0000
  H   H4507     1.0  0.86605  0.17255  0.23902  1.0000
  H   H4508     1.0  0.86189  0.19024  0.22525  1.0000
  H   H4509     1.0  0.87532  0.18838  0.23713  1.0000
  H   H4510     1.0  0.84051  0.17194  0.25492  1.0000
  H   H4511     1.0  0.83298  0.18799  0.24059  1.0000
  H   H4512     1.0  0.82757  0.18908  0.26086  1.0000
  H   H4513     1.0  0.85586  0.21501  0.24169  1.0000
  H   H4514     1.0  0.84349  0.21162  0.23122  1.0000
  H   H4515     1.0  0.83536  0.21461  0.25048  1.0000
  H   H4516     1.0  0.84563  0.21108  0.27079  1.0000
  H   H4517     1.0  0.86579  0.16340  0.26447  1.0000
  H   H4518     1.0  0.85275  0.20347  0.29600  1.0000
  H   H4519     1.0  0.87327  0.15665  0.28964  1.0000
  H   H4520     1.0  0.86686  0.17654  0.30555  1.0000
  H   H4521     1.0  0.80691  0.28410  0.06411  1.0000
  C   C3793     1.0  0.82875  0.28488  0.46199  1.0000
  C   C3794     1.0  0.80986  0.11106  0.32460  1.0000
  C   C3795     1.0  0.82643  0.16766  0.16296  1.0000
  H   H4522     1.0  0.85394  0.23471  0.09537  1.0000
  Fe  Fe521     1.0  0.81814  0.28152  0.27843  1.0000
  C   C3796     1.0  0.80201  0.28883  0.07495  1.0000
  H   H4523     1.0  0.86460  0.29126  0.42856  1.0000
  H   H4524     1.0  0.87556  0.26007  0.47162  1.0000
  S   S1036     1.0  0.98299  0.42197  0.37841  1.0000
  C   C3797     1.0  0.84123  0.18235  0.16904  1.0000
  S   S1037     1.0  0.98439  0.15610  0.26937  1.0000
  H   H4525     1.0  0.96385  0.19276  0.27005  1.0000
  C   C3798     1.0  0.95943  0.18656  0.29489  1.0000
  H   H4526     1.0  0.84000  0.27621  0.46317  1.0000
  H   H4527     1.0  0.95171  0.26028  0.11571  1.0000
  S   S1038     1.0  0.85841  0.47243  0.46888  1.0000
  H   H4528     1.0  0.97854  0.16749  0.23875  1.0000
  C   C3799     1.0  0.80266  0.24559  0.24543  1.0000
  H   H4529     1.0  0.84421  0.99151  0.21695  1.0000
  H   H4530     1.0  0.81340  0.32966  0.31324  1.0000
  C   C3800     1.0  0.81056  0.98621  0.25802  1.0000
  H   H4531     1.0  0.96671  0.36105  0.33691  1.0000
  H   H4532     1.0  0.98522  0.28806  0.07918  1.0000
  N   N252      1.0  0.89853  0.32530  0.41604  1.0000
  C   C3801     1.0  0.81338  0.16301  0.28026  1.0000
  C   C3802     1.0  0.91385  0.32623  0.41821  1.0000
  C   C3803     1.0  0.89957  0.32832  0.39894  1.0000
  C   C3804     1.0  0.89421  0.31000  0.42372  1.0000
  C   C3805     1.0  0.90410  0.29723  0.43196  1.0000
  C   C3806     1.0  0.87976  0.30745  0.42288  1.0000
  H   H4533     1.0  0.98423  0.17886  0.37086  1.0000
  C   C3807     1.0  0.82552  0.26805  0.09667  1.0000
  C   C3808     1.0  0.97135  0.35457  0.28960  1.0000
  N   N253      1.0  0.98926  0.07856  0.25354  1.0000
  C   C3809     1.0  0.81789  0.06158  0.26763  1.0000
  H   H4534     1.0  0.79510  0.31330  0.17263  1.0000
  H   H4535     1.0  0.91389  0.32432  0.43084  1.0000
  H   H4536     1.0  0.91671  0.33789  0.41236  1.0000
  H   H4537     1.0  0.92371  0.31744  0.41303  1.0000
  H   H4538     1.0  0.88819  0.32913  0.39611  1.0000
  H   H4539     1.0  0.90314  0.33959  0.39267  1.0000
  H   H4540     1.0  0.90834  0.31887  0.39366  1.0000
  H   H4541     1.0  0.91537  0.29794  0.43318  1.0000
  H   H4542     1.0  0.90743  0.27319  0.44488  1.0000
  C   C3810     1.0  0.80127  0.17582  0.28348  1.0000
  S   S1039     1.0  0.79268  0.29052  0.27821  1.0000
  H   H4543     1.0  0.80539  0.14452  0.35420  1.0000
  S   S1040     1.0  0.93453  0.23262  0.44263  1.0000
  H   H4544     1.0  0.84270  0.29285  0.32431  1.0000
  S   S1041     1.0  0.81340  0.19808  0.11874  1.0000
  H   H4545     1.0  0.89052  0.27459  0.36520  1.0000
  H   H4546     1.0  0.86913  0.26562  0.36853  1.0000
  H   H4547     1.0  0.85423  0.25215  0.36010  1.0000
  H   H4548     1.0  0.89792  0.29185  0.35916  1.0000
  H   H4549     1.0  0.85876  0.99625  0.23449  1.0000
  H   H4550     1.0  0.86514  0.28634  0.38087  1.0000
  H   H4551     1.0  0.97635  0.23149  0.40405  1.0000
  C   C3811     1.0  0.86661  0.29760  0.37255  1.0000
  C   C3812     1.0  0.82081  0.17190  0.18909  1.0000
  H   H4552     1.0  0.98762  0.19188  0.25296  1.0000
  C   C3813     1.0  0.97988  0.20527  0.29303  1.0000
  C   C3814     1.0  0.82740  0.16788  0.29693  1.0000
  H   H4553     1.0  0.80226  0.23144  0.17460  1.0000
  C   C3815     1.0  0.81597  0.06670  0.24048  1.0000
  C   C3816     1.0  0.81160  0.05918  0.25618  1.0000
  H   H4554     1.0  0.87377  0.30263  0.37723  1.0000
  C   C3817     1.0  0.88633  0.33801  0.42240  1.0000
  C   C3818     1.0  0.96228  0.36199  0.30176  1.0000
  C   C3819     1.0  0.97430  0.31027  0.43419  1.0000
  H   H4555     1.0  0.81153  0.24767  0.07908  1.0000
  H   H4556     1.0  0.97908  0.22758  0.24220  1.0000
  C   C3820     1.0  0.89032  0.28579  0.35628  1.0000
  S   S1042     1.0  0.84070  0.22676  0.38835  1.0000
  N   N254      1.0  0.95866  0.38069  0.31940  1.0000
  H   H4557     1.0  0.81310  0.22436  0.21729  1.0000
  H   H4558     1.0  0.81535  0.26707  0.45436  1.0000
  H   H4559     1.0  0.80602  0.12387  0.35813  1.0000
  H   H4560     1.0  0.94582  0.36942  0.43918  1.0000
  H   H4561     1.0  0.79575  0.32027  0.40090  1.0000
  C   C3821     1.0  0.80812  0.99215  0.27126  1.0000
  H   H4562     1.0  0.96162  0.24099  0.39243  1.0000
  C   C3822     1.0  0.95825  0.39776  0.31472  1.0000
  S   S1043     1.0  0.84093  0.31939  0.28997  1.0000
  S   S1044     1.0  0.83860  0.37251  0.37421  1.0000
  C   C3823     1.0  0.79682  0.21277  0.38585  1.0000
  C   C3824     1.0  0.98272  0.09565  0.24910  1.0000
  Fe  Fe522     1.0  0.96778  0.46467  0.45739  1.0000
  C   C3825     1.0  0.81530  0.18063  0.30021  1.0000
  C   C3826     1.0  0.81432  0.23883  0.12826  1.0000
  C   C3827     1.0  0.96259  0.18790  0.30852  1.0000
  H   H4563     1.0  0.79237  0.20709  0.01985  1.0000
  C   C3828     1.0  0.82158  0.34003  0.32732  1.0000
  C   C3829     1.0  0.80736  0.29291  0.35173  1.0000
  C   C3830     1.0  0.84845  0.28700  0.33406  1.0000
  C   C3831     1.0  0.89967  0.28288  0.43883  1.0000
  N   N255      1.0  0.87418  0.29549  0.35637  1.0000
  H   H4564     1.0  0.82601  0.14464  0.33091  1.0000
  H   H4565     1.0  0.82133  0.29404  0.16820  1.0000
  H   H4566     1.0  0.96568  0.21524  0.25219  1.0000
  C   C3832     1.0  0.96881  0.37423  0.43380  1.0000
  C   C3833     1.0  0.98116  0.30713  0.38306  1.0000
  H   H4567     1.0  0.82888  0.17293  0.15013  1.0000
  C   C3834     1.0  0.80847  0.24184  0.23068  1.0000
  C   C3835     1.0  0.97795  0.38358  0.43530  1.0000
  H   H4568     1.0  0.98890  0.10252  0.25283  1.0000
  H   H4569     1.0  0.97105  0.42487  0.42820  1.0000
  C   C3836     1.0  0.79463  0.31530  0.39147  1.0000
  H   H4570     1.0  0.79298  0.29607  0.20485  1.0000
  H   H4571     1.0  0.97384  0.07818  0.27649  1.0000
  H   H4572     1.0  0.94405  0.20617  0.40168  1.0000
  S   S1045     1.0  0.98531  0.27049  0.15673  1.0000
  H   H4573     1.0  0.95839  0.24213  0.10924  1.0000
  C   C3837     1.0  0.97123  0.39576  0.44374  1.0000
  C   C3838     1.0  0.82700  0.43500  0.38511  1.0000
  H   H4574     1.0  0.82956  0.44647  0.40116  1.0000
  C   C3839     1.0  0.98038  0.07034  0.24824  1.0000
  H   H4575     1.0  0.96851  0.27635  0.10315  1.0000
  H   H4576     1.0  0.96414  0.19326  0.41730  1.0000
  S   S1046     1.0  0.98347  0.35733  0.36912  1.0000
  H   H4577     1.0  0.95615  0.23559  0.41327  1.0000
  H   H4578     1.0  0.81326  0.00880  0.28079  1.0000
  S   S1047     1.0  0.84846  0.47468  0.42922  1.0000
  C   C3840     1.0  0.81356  0.19393  0.16860  1.0000
  H   H4579     1.0  0.88948  0.34964  0.41728  1.0000
  H   H4580     1.0  0.82334  0.27868  0.10074  1.0000
  H   H4581     1.0  0.83380  0.21559  0.36512  1.0000
  H   H4582     1.0  0.85037  0.17135  0.17080  1.0000
  C   C3841     1.0  0.87569  0.31117  0.34626  1.0000
  H   H4583     1.0  0.79607  0.08943  0.29542  1.0000
  C   C3842     1.0  0.98679  0.18795  0.22459  1.0000
  C   C3843     1.0  0.82896  0.27753  0.22654  1.0000
  H   H4584     1.0  0.81248  0.28380  0.16017  1.0000
  H   H4585     1.0  0.79857  0.31736  0.43388  1.0000
  C   C3844     1.0  0.84324  0.24324  0.09353  1.0000
  H   H4586     1.0  0.95052  0.40401  0.32399  1.0000
  H   H4587     1.0  0.84133  0.26537  0.33772  1.0000
  Fe  Fe523     1.0  0.84563  0.23779  0.43983  1.0000
  H   H4588     1.0  0.84459  0.18894  0.15681  1.0000
  C   C3845     1.0  0.83819  0.32871  0.30549  1.0000
  H   H4589     1.0  0.90431  0.22793  0.44414  1.0000
  H   H4590     1.0  0.96000  0.37937  0.34298  1.0000
  S   S1048     1.0  0.98266  0.14651  0.31419  1.0000
  C   C3846     1.0  0.84765  0.27158  0.34160  1.0000
  C   C3847     1.0  0.79818  0.10689  0.26653  1.0000
  S   S1049     1.0  0.80941  0.28837  0.42353  1.0000
  Fe  Fe524     1.0  0.86584  0.47526  0.44245  1.0000
  C   C3848     1.0  0.82232  0.13477  0.32893  1.0000
  H   H4591     1.0  0.82586  0.42434  0.39397  1.0000
  H   H4592     1.0  0.81042  0.22592  0.41025  1.0000
  H   H4593     1.0  0.98607  0.23011  0.37836  1.0000
  C   C3849     1.0  0.97310  0.42264  0.44022  1.0000
  C   C3850     1.0  0.82015  0.99220  0.24393  1.0000
  S   S1050     1.0  0.81640  0.19108  0.31319  1.0000
  N   N256      1.0  0.89333  0.26439  0.20615  1.0000
  C   C3851     1.0  0.90485  0.24913  0.20755  1.0000
  C   C3852     1.0  0.88311  0.26425  0.19601  1.0000
  C   C3853     1.0  0.90228  0.27686  0.19826  1.0000
  C   C3854     1.0  0.88351  0.26757  0.22139  1.0000
  C   C3855     1.0  0.88519  0.25709  0.23599  1.0000
  C   C3856     1.0  0.87178  0.28159  0.22191  1.0000
  C   C3857     1.0  0.87566  0.26056  0.25013  1.0000
  C   C3858     1.0  0.86238  0.28494  0.23611  1.0000
  C   C3859     1.0  0.86433  0.27446  0.25019  1.0000
  H   H4594     1.0  0.91192  0.24708  0.19587  1.0000
  H   H4595     1.0  0.91345  0.24866  0.21442  1.0000
  H   H4596     1.0  0.89891  0.23914  0.21297  1.0000
  H   H4597     1.0  0.89001  0.26145  0.18461  1.0000
  H   H4598     1.0  0.87498  0.27574  0.19312  1.0000
  H   H4599     1.0  0.87578  0.25541  0.20179  1.0000
  H   H4600     1.0  0.90966  0.27775  0.20579  1.0000
  H   H4601     1.0  0.91032  0.27456  0.18702  1.0000
  H   H4602     1.0  0.89451  0.28856  0.19532  1.0000
  H   H4603     1.0  0.89375  0.24614  0.23684  1.0000
  H   H4604     1.0  0.86967  0.29006  0.21131  1.0000
  H   H4605     1.0  0.87693  0.25240  0.26117  1.0000
  H   H4606     1.0  0.85337  0.29564  0.23619  1.0000
  H   H4607     1.0  0.85685  0.27700  0.26117  1.0000
  H   H4608     1.0  0.93341  0.39028  0.45416  1.0000
  N   N257      1.0  0.91258  0.14877  0.24432  1.0000
  C   C3860     1.0  0.90057  0.13968  0.24635  1.0000
  C   C3861     1.0  0.92807  0.13765  0.24352  1.0000
  C   C3862     1.0  0.90894  0.15532  0.25848  1.0000
  C   C3863     1.0  0.91313  0.16163  0.23015  1.0000
  C   C3864     1.0  0.92373  0.17160  0.22683  1.0000
  C   C3865     1.0  0.90334  0.16472  0.21935  1.0000
  C   C3866     1.0  0.92437  0.18400  0.21372  1.0000
  C   C3867     1.0  0.90407  0.17719  0.20625  1.0000
  C   C3868     1.0  0.91454  0.18681  0.20346  1.0000
  H   H4609     1.0  0.90297  0.13375  0.23647  1.0000
  H   H4610     1.0  0.90028  0.13025  0.25720  1.0000
  H   H4611     1.0  0.88856  0.14722  0.24738  1.0000
  H   H4612     1.0  0.93151  0.13283  0.23277  1.0000
  H   H4613     1.0  0.92796  0.12761  0.25385  1.0000
  H   H4614     1.0  0.93756  0.14323  0.24341  1.0000
  H   H4615     1.0  0.89793  0.16453  0.25902  1.0000
  H   H4616     1.0  0.90748  0.14613  0.26943  1.0000
  H   H4617     1.0  0.91846  0.16062  0.25890  1.0000
  H   H4618     1.0  0.93170  0.16984  0.23435  1.0000
  H   H4619     1.0  0.89515  0.15757  0.22065  1.0000
  H   H4620     1.0  0.93265  0.19139  0.21145  1.0000
  H   H4621     1.0  0.89666  0.17934  0.19802  1.0000
  H   H4622     1.0  0.91516  0.19634  0.19320  1.0000
  N   N258      1.0  0.92269  0.42424  0.39544  1.0000
  C   C3869     1.0  0.91221  0.41790  0.38998  1.0000
  C   C3870     1.0  0.92161  0.44089  0.38717  1.0000
  C   C3871     1.0  0.93897  0.41537  0.39072  1.0000
  C   C3872     1.0  0.91868  0.42312  0.41259  1.0000
  C   C3873     1.0  0.90568  0.41706  0.42273  1.0000
  C   C3874     1.0  0.92772  0.42856  0.41960  1.0000
  C   C3875     1.0  0.90205  0.41653  0.43882  1.0000
  C   C3876     1.0  0.92392  0.42808  0.43569  1.0000
  C   C3877     1.0  0.91110  0.42209  0.44528  1.0000
  H   H4623     1.0  0.89980  0.42447  0.39250  1.0000
  C   C3878     1.0  0.81982  0.31995  0.37596  1.0000
  H   H4624     1.0  0.91275  0.40525  0.39546  1.0000
  H   H4625     1.0  0.90982  0.44815  0.39122  1.0000
  H   H4626     1.0  0.92368  0.44236  0.37425  1.0000
  H   H4627     1.0  0.93041  0.44606  0.38923  1.0000
  H   H4628     1.0  0.94028  0.40288  0.39703  1.0000
  C   C3879     1.0  0.82372  0.22126  0.38781  1.0000
  H   H4629     1.0  0.94790  0.42015  0.39307  1.0000
  H   H4630     1.0  0.89781  0.41303  0.41850  1.0000
  H   H4631     1.0  0.93755  0.43366  0.41259  1.0000
  H   H4632     1.0  0.89174  0.41236  0.44619  1.0000
  H   H4633     1.0  0.93067  0.43283  0.44063  1.0000
  H   H4634     1.0  0.90789  0.42219  0.45765  1.0000
  C   C3880     1.0  0.79251  0.28318  0.10300  1.0000
  C   C3881     1.0  0.85218  0.23495  0.47620  1.0000
  S   S1051     1.0  0.83013  0.25829  0.27202  1.0000
  H   H4635     1.0  0.81009  0.20819  0.36337  1.0000
  H   H4636     1.0  0.96901  0.40611  0.46981  1.0000
  H   H4637     1.0  0.94906  0.40662  0.45742  1.0000
  C   C3882     1.0  0.97388  0.19595  0.38528  1.0000
  H   H4638     1.0  0.86409  0.31956  0.34665  1.0000
  C   C3883     1.0  0.80217  0.18454  0.29358  1.0000
  C   C3884     1.0  0.81009  0.21209  0.37358  1.0000
  Fe  Fe525     1.0  0.79126  0.29989  0.29892  1.0000
  H   H4639     1.0  0.93590  0.38306  0.31488  1.0000
  H   H4640     1.0  0.83100  0.03483  0.23208  1.0000
  H   H4641     1.0  0.80910  0.16893  0.19198  1.0000
  C   C3885     1.0  0.81038  0.22209  0.40002  1.0000
  C   C3886     1.0  0.83120  0.02832  0.22333  1.0000
  H   H4642     1.0  0.82199  0.27363  0.17612  1.0000
  H   H4643     1.0  0.94369  0.22575  0.39016  1.0000
  H   H4644     1.0  0.82369  0.28864  0.21989  1.0000
  H   H4645     1.0  0.91961  0.20674  0.46527  1.0000
  C   C3887     1.0  0.80361  0.29161  0.19638  1.0000
  C   C3888     1.0  0.82922  0.44789  0.38905  1.0000
  C   C3889     1.0  0.85110  0.33256  0.30809  1.0000
  C   C3890     1.0  0.80720  0.26035  0.38272  1.0000
  H   H4646     1.0  0.98386  0.05740  0.25213  1.0000
  C   C3891     1.0  0.83296  0.24009  0.08655  1.0000
  H   H4647     1.0  0.80275  0.25725  0.24598  1.0000
  S   S1052     1.0  0.97975  0.39521  0.35377  1.0000
  H   H4648     1.0  0.85924  0.34301  0.32220  1.0000
  H   H4649     1.0  0.93530  0.38569  0.33383  1.0000
  H   H4650     1.0  0.97872  0.20317  0.41710  1.0000
  C   C3892     1.0  0.79111  0.27561  0.18747  1.0000
  C   C3893     1.0  0.95492  0.39778  0.45064  1.0000
  C   C3894     1.0  0.79823  0.21934  0.25662  1.0000
  H   H4651     1.0  0.88321  0.31658  0.35008  1.0000
  H   H4652     1.0  0.80729  0.25059  0.12755  1.0000
  H   H4653     1.0  0.82614  0.42507  0.36659  1.0000
  H   H4654     1.0  0.81772  0.28382  0.24866  1.0000
  H   H4655     1.0  0.82729  0.00618  0.21180  1.0000
  C   C3895     1.0  0.79102  0.22226  0.16230  1.0000
  H   H4656     1.0  0.79908  0.23180  0.29640  1.0000
  H   H4657     1.0  0.85478  0.30548  0.37306  1.0000
  H   H4658     1.0  0.93422  0.25921  0.41594  1.0000
  H   H4659     1.0  0.82945  0.44894  0.34609  1.0000
  H   H4660     1.0  0.82243  0.10994  0.32129  1.0000
  C   C3896     1.0  0.82574  0.27489  0.24290  1.0000
  H   H4661     1.0  0.95117  0.35878  0.30753  1.0000
  C   C3897     1.0  0.82351  0.21628  0.37459  1.0000
  H   H4662     1.0  0.79948  0.23110  0.11836  1.0000
  S   S1053     1.0  0.82549  0.30329  0.26305  1.0000
  C   C3898     1.0  0.80992  0.22784  0.12303  1.0000
  H   H4663     1.0  0.81983  0.25608  0.38000  1.0000
  H   H4664     1.0  0.91569  0.41864  0.37709  1.0000
  C   C3899     1.0  0.84928  0.33995  0.32041  1.0000
  H   H4665     1.0  0.82900  0.12379  0.33529  1.0000
  Fe  Fe526     1.0  0.82151  0.31095  0.28563  1.0000
  N   N259      1.0  0.98514  0.21144  0.26316  1.0000
  C   C3900     1.0  0.83903  0.26597  0.21883  1.0000
  C   C3901     1.0  0.83303  0.26091  0.25164  1.0000
  H   H4666     1.0  0.94228  0.41554  0.37793  1.0000
  N   N260      1.0  0.96305  0.21621  0.40178  1.0000
  C   C3902     1.0  0.96442  0.23176  0.40281  1.0000
  C   C3903     1.0  0.94655  0.21760  0.40113  1.0000
  C   C3904     1.0  0.96630  0.20493  0.41640  1.0000
  C   C3905     1.0  0.97390  0.21057  0.38800  1.0000
  H   H4667     1.0  0.82620  0.13516  0.31612  1.0000
  C   C3906     1.0  0.97270  0.19731  0.30761  1.0000
  H   H4668     1.0  0.81380  0.28111  0.35096  1.0000
  H   H4669     1.0  0.85395  0.01517  0.23917  1.0000
  S   S1054     1.0  0.97759  0.47566  0.43266  1.0000
  C   C3907     1.0  0.94211  0.37886  0.32474  1.0000
  H   H4670     1.0  0.88118  0.31043  0.33384  1.0000
  H   H4671     1.0  0.98793  0.21195  0.29322  1.0000
  H   H4672     1.0  0.93808  0.22213  0.41118  1.0000
  C   C3908     1.0  0.85374  0.00891  0.23035  1.0000
  C   C3909     1.0  0.98027  0.22949  0.12710  1.0000
  Fe  Fe527     1.0  0.79352  0.19540  0.33046  1.0000
  H   H4673     1.0  0.83577  0.22909  0.08285  1.0000
  Fe  Fe528     1.0  0.97603  0.14273  0.29350  1.0000
  C   C3910     1.0  0.97337  0.22178  0.25412  1.0000
  H   H4674     1.0  0.79616  0.29562  0.33290  1.0000
  C   C3911     1.0  0.97526  0.17992  0.23411  1.0000
  H   H4675     1.0  0.82686  0.32316  0.36386  1.0000
  H   H4676     1.0  0.82185  0.32705  0.38313  1.0000
  H   H4677     1.0  0.82951  0.16096  0.19258  1.0000
  C   C3912     1.0  0.80414  0.09946  0.32193  1.0000
  H   H4678     1.0  0.95004  0.47755  0.37895  1.0000
  C   C3913     1.0  0.97930  0.26896  0.09831  1.0000
  C   C3914     1.0  0.98393  0.25306  0.10591  1.0000
  H   H4679     1.0  0.80158  0.18594  0.15527  1.0000
  H   H4680     1.0  0.81056  0.28087  0.20270  1.0000
  C   C3915     1.0  0.80099  0.31548  0.36392  1.0000
  Fe  Fe529     1.0  0.98540  0.25091  0.42730  1.0000
  C   C3916     1.0  0.98273  0.20405  0.21867  1.0000
  N   N261      1.0  0.79952  0.28853  0.18296  1.0000
  S   S1055     1.0  0.98310  0.23335  0.17045  1.0000
  H   H4681     1.0  0.80429  0.20427  0.24024  1.0000
  C   C3917     1.0  0.81440  0.28485  0.17135  1.0000
  S   S1056     1.0  0.98378  0.26612  0.44378  1.0000
  H   H4682     1.0  0.96596  0.24995  0.14445  1.0000
  H   H4683     1.0  0.83275  0.47199  0.35256  1.0000
  C   C3918     1.0  0.98479  0.21912  0.37709  1.0000
  H   H4684     1.0  0.97420  0.36499  0.42733  1.0000
  C   C3919     1.0  0.81440  0.26487  0.09030  1.0000
  H   H4685     1.0  0.81683  0.29300  0.37056  1.0000
  C   C3920     1.0  0.95798  0.24786  0.11872  1.0000
  H   H4686     1.0  0.90296  0.47424  0.43676  1.0000
  H   H4687     1.0  0.81893  0.03064  0.22189  1.0000
  H   H4688     1.0  0.80163  0.34592  0.36132  1.0000
  H   H4689     1.0  0.95752  0.18128  0.31980  1.0000
  C   C3921     1.0  0.83963  0.25729  0.09839  1.0000
  H   H4690     1.0  0.79093  0.29763  0.07342  1.0000
  H   H4691     1.0  0.82444  0.47080  0.40599  1.0000
  H   H4692     1.0  0.82094  0.20708  0.18104  1.0000
  H   H4693     1.0  0.98347  0.09973  0.23626  1.0000
  H   H4694     1.0  0.95173  0.17903  0.29564  1.0000
  C   C3922     1.0  0.82714  0.43539  0.36967  1.0000
  H   H4695     1.0  0.81058  0.29510  0.07576  1.0000
  H   H4696     1.0  0.95383  0.40314  0.30374  1.0000
  H   H4697     1.0  0.97210  0.29991  0.38782  1.0000
  C   C3923     1.0  0.80295  0.22955  0.28433  1.0000
  H   H4698     1.0  0.98241  0.07312  0.23521  1.0000
  H   H4699     1.0  0.82125  0.98720  0.23411  1.0000
  C   C3924     1.0  0.94587  0.38844  0.44892  1.0000
  C   C3925     1.0  0.79710  0.23447  0.25888  1.0000
  S   S1057     1.0  0.79636  0.32306  0.28481  1.0000
  H   H4700     1.0  0.85927  0.46907  0.37200  1.0000
  C   C3926     1.0  0.95281  0.37670  0.44049  1.0000
  C   C3927     1.0  0.98091  0.40315  0.46232  1.0000
  H   H4701     1.0  0.79273  0.27403  0.11400  1.0000
  H   H4702     1.0  0.97246  0.22478  0.13824  1.0000
  H   H4703     1.0  0.79898  0.25937  0.27043  1.0000
  H   H4704     1.0  0.96750  0.07373  0.25301  1.0000
  H   H4705     1.0  0.96699  0.26750  0.12987  1.0000
  S   S1058     1.0  0.79234  0.20781  0.05120  1.0000
  H   H4706     1.0  0.98737  0.28155  0.40537  1.0000
  H   H4707     1.0  0.97745  0.31686  0.38942  1.0000
  C   C3928     1.0  0.98548  0.31962  0.42856  1.0000
  C   C3929     1.0  0.84932  0.47938  0.37093  1.0000
  N   N262      1.0  0.80508  0.13605  0.33436  1.0000
  C   C3930     1.0  0.79733  0.15155  0.32616  1.0000
  H   H4708     1.0  0.98610  0.39065  0.46692  1.0000
  H   H4709     1.0  0.80764  0.27015  0.40150  1.0000
  C   C3931     1.0  0.98291  0.37554  0.29827  1.0000
  H   H4710     1.0  0.79964  0.15217  0.31339  1.0000
  H   H4711     1.0  0.80155  0.16124  0.32779  1.0000
  C   C3932     1.0  0.96008  0.48107  0.38009  1.0000
  C   C3933     1.0  0.98597  0.35778  0.28165  1.0000
  H   H4712     1.0  0.80002  0.29408  0.45724  1.0000
  H   H4713     1.0  0.79762  0.12598  0.28294  1.0000
  C   C3934     1.0  0.79954  0.12352  0.33138  1.0000
  H   H4714     1.0  0.98076  0.31249  0.37057  1.0000
  H   H4715     1.0  0.82502  0.25490  0.46965  1.0000
  H   H4716     1.0  0.98911  0.23085  0.26969  1.0000
  H   H4717     1.0  0.82923  0.29598  0.46456  1.0000
  C   C3935     1.0  0.98816  0.47865  0.37478  1.0000
  C   C3936     1.0  0.79097  0.20929  0.15708  1.0000
  C   C3937     1.0  0.80198  0.22125  0.17082  1.0000
  H   H4718     1.0  0.98144  0.22222  0.11865  1.0000
  C   C3938     1.0  0.79786  0.25726  0.37451  1.0000
  H   H4719     1.0  0.79276  0.19432  0.29614  1.0000
  N   N263      1.0  0.98049  0.40595  0.44558  1.0000
  C   C3939     1.0  0.97521  0.47443  0.37294  1.0000
  H   H4720     1.0  0.98058  0.43062  0.43991  1.0000
  H   H4721     1.0  0.97695  0.46563  0.36629  1.0000
  H   H4722     1.0  0.98806  0.41046  0.46408  1.0000
  H   H4723     1.0  0.98477  0.25440  0.13430  1.0000
  C   C3940     1.0  0.98877  0.27580  0.08458  1.0000
  C   C3941     1.0  0.98399  0.43995  0.39747  1.0000
  H   H4724     1.0  0.98928  0.06130  0.27552  1.0000
  Fe  Fe530     1.0  0.98767  0.39746  0.37422  1.0000
  H   H4725     1.0  0.98451  0.45495  0.41182  1.0000
  C   C3942     1.0  0.80037  0.26829  0.39484  1.0000
  H   H4726     1.0  0.79114  0.17889  0.27829  1.0000
  H   H4727     1.0  0.93284  0.21810  0.47755  1.0000
  S   S1059     1.0  0.98988  0.44743  0.46096  1.0000
  C   C3943     1.0  0.81549  0.27437  0.48919  1.0000
  S   S1060     1.0  0.95572  0.16016  0.75874  1.0000
  Fe  Fe531     1.0  0.95657  0.16490  0.79975  1.0000
  S   S1061     1.0  0.94353  0.18368  0.78337  1.0000
  S   S1062     1.0  0.95598  0.16857  0.82335  1.0000
  Fe  Fe532     1.0  0.93557  0.16430  0.77916  1.0000
  S   S1063     1.0  0.90944  0.16902  0.78119  1.0000
  Fe  Fe533     1.0  0.96479  0.17791  0.76466  1.0000
  S   S1064     1.0  0.94711  0.14578  0.79706  1.0000
  H   H4728     1.0  0.98342  0.29390  0.87829  1.0000
  S   S1065     1.0  0.95653  0.27186  0.85058  1.0000
  S   S1066     1.0  0.88782  0.47180  0.54566  1.0000
  C   C3944     1.0  0.79836  0.21818  0.60782  1.0000
  S   S1067     1.0  0.80000  0.28402  0.73682  1.0000
  H   H4729     1.0  0.95152  0.43960  0.63625  1.0000
  H   H4730     1.0  0.83985  0.20012  0.76723  1.0000
  C   C3945     1.0  0.95159  0.47414  0.56243  1.0000
  Fe  Fe534     1.0  0.94744  0.25492  0.84351  1.0000
  S   S1068     1.0  0.92224  0.26124  0.84120  1.0000
  H   H4731     1.0  0.79248  0.22609  0.74724  1.0000
  H   H4732     1.0  0.96766  0.22670  0.79877  1.0000
  Fe  Fe535     1.0  0.83096  0.15751  0.73439  1.0000
  H   H4733     1.0  0.81447  0.34087  0.73174  1.0000
  S   S1069     1.0  0.82570  0.17448  0.71244  1.0000
  Fe  Fe536     1.0  0.85618  0.13974  0.75244  1.0000
  S   S1070     1.0  0.83877  0.13403  0.77492  1.0000
  S   S1071     1.0  0.88234  0.13175  0.74959  1.0000
  Fe  Fe537     1.0  0.82607  0.12859  0.75979  1.0000
  S   S1072     1.0  0.81620  0.10687  0.76979  1.0000
  Fe  Fe538     1.0  0.82564  0.15871  0.76820  1.0000
  H   H4734     1.0  0.84766  0.44785  0.52290  1.0000
  S   S1073     1.0  0.84447  0.13256  0.73764  1.0000
  S   S1074     1.0  0.84428  0.16501  0.74723  1.0000
  Fe  Fe539     1.0  0.84293  0.20125  0.83991  1.0000
  S   S1075     1.0  0.86214  0.21441  0.82977  1.0000
  S   S1076     1.0  0.84885  0.17802  0.83314  1.0000
  Fe  Fe540     1.0  0.82267  0.22582  0.85832  1.0000
  S   S1077     1.0  0.84048  0.24087  0.84962  1.0000
  H   H4735     1.0  0.85142  0.40711  0.59894  1.0000
  Fe  Fe541     1.0  0.84285  0.23556  0.82631  1.0000
  Fe  Fe542     1.0  0.85809  0.21819  0.85396  1.0000
  S   S1078     1.0  0.87821  0.21272  0.86597  1.0000
  S   S1079     1.0  0.84010  0.20343  0.86456  1.0000
  H   H4736     1.0  0.85677  0.23753  0.91412  1.0000
  C   C3946     1.0  0.92753  0.47129  0.58178  1.0000
  H   H4737     1.0  0.83343  0.21535  0.90451  1.0000
  C   C3947     1.0  0.80591  0.21479  0.72125  1.0000
  H   H4738     1.0  0.83211  0.23635  0.68407  1.0000
  C   C3948     1.0  0.82033  0.23574  0.92441  1.0000
  S   S1080     1.0  0.81891  0.28692  0.69155  1.0000
  H   H4739     1.0  0.85976  0.21092  0.64429  1.0000
  H   H4740     1.0  0.87995  0.33355  0.57907  1.0000
  H   H4741     1.0  0.81695  0.32423  0.62277  1.0000
  C   C3949     1.0  0.88782  0.29372  0.58774  1.0000
  C   C3950     1.0  0.84187  0.20948  0.61632  1.0000
  C   C3951     1.0  0.88690  0.30896  0.58899  1.0000
  N   N264      1.0  0.83185  0.20208  0.64550  1.0000
  C   C3952     1.0  0.88815  0.17984  0.73145  1.0000
  Fe  Fe543     1.0  0.87814  0.37029  0.60574  1.0000
  S   S1081     1.0  0.87011  0.37026  0.63153  1.0000
  H   H4742     1.0  0.94920  0.27507  0.48961  1.0000
  H   H4743     1.0  0.95144  0.35869  0.59972  1.0000
  S   S1082     1.0  0.87740  0.33201  0.63705  1.0000
  H   H4744     1.0  0.85092  0.21916  0.91882  1.0000
  Fe  Fe544     1.0  0.89082  0.35014  0.63420  1.0000
  S   S1083     1.0  0.90546  0.34354  0.65234  1.0000
  S   S1084     1.0  0.89996  0.35140  0.60848  1.0000
  Fe  Fe545     1.0  0.88367  0.24259  0.55632  1.0000
  S   S1085     1.0  0.88509  0.26263  0.53564  1.0000
  S   S1086     1.0  0.90694  0.22766  0.56086  1.0000
  Fe  Fe546     1.0  0.84819  0.25125  0.56469  1.0000
  H   H4745     1.0  0.90093  0.25061  0.50540  1.0000
  Fe  Fe547     1.0  0.86520  0.25635  0.53037  1.0000
  C   C3953     1.0  0.88205  0.29127  0.57604  1.0000
  Fe  Fe548     1.0  0.86687  0.27685  0.55129  1.0000
  S   S1087     1.0  0.86890  0.30129  0.55014  1.0000
  S   S1088     1.0  0.86522  0.23476  0.54998  1.0000
  S   S1089     1.0  0.86682  0.25725  0.57247  1.0000
  H   H4746     1.0  0.86514  0.22769  0.74555  1.0000
  C   C3954     1.0  0.85667  0.22215  0.75547  1.0000
  H   H4747     1.0  0.80771  0.19742  0.80293  1.0000
  H   H4748     1.0  0.83328  0.32898  0.62634  1.0000
  H   H4749     1.0  0.87971  0.41770  0.55106  1.0000
  C   C3955     1.0  0.84372  0.20777  0.63174  1.0000
  H   H4750     1.0  0.86299  0.29467  0.61572  1.0000
  S   S1090     1.0  0.95720  0.38222  0.64165  1.0000
  C   C3956     1.0  0.80529  0.14666  0.70044  1.0000
  C   C3957     1.0  0.81405  0.15188  0.70768  1.0000
  C   C3958     1.0  0.86018  0.47944  0.49561  1.0000
  C   C3959     1.0  0.81773  0.23217  0.58942  1.0000
  C   C3960     1.0  0.97518  0.30548  0.87603  1.0000
  Fe  Fe549     1.0  0.96123  0.26030  0.58801  1.0000
  S   S1091     1.0  0.96307  0.28260  0.57015  1.0000
  S   S1092     1.0  0.93697  0.25590  0.59896  1.0000
  S   S1093     1.0  0.96240  0.23345  0.85576  1.0000
  N   N265      1.0  0.94272  0.23098  0.80045  1.0000
  C   C3961     1.0  0.97372  0.19898  0.83464  1.0000
  H   H4751     1.0  0.89894  0.27494  0.77290  1.0000
  N   N266      1.0  0.86309  0.20513  0.76059  1.0000
  H   H4752     1.0  0.96174  0.23498  0.78043  1.0000
  H   H4753     1.0  0.80137  0.23583  0.94487  1.0000
  C   C3962     1.0  0.83572  0.20050  0.66078  1.0000
  H   H4754     1.0  0.83180  0.20680  0.61430  1.0000
  H   H4755     1.0  0.91630  0.44542  0.48749  1.0000
  H   H4756     1.0  0.98252  0.26766  0.48103  1.0000
  H   H4757     1.0  0.81610  0.25954  0.61633  1.0000
  H   H4758     1.0  0.82565  0.18687  0.63465  1.0000
  C   C3963     1.0  0.92088  0.21729  0.48324  1.0000
  C   C3964     1.0  0.86867  0.19763  0.74695  1.0000
  H   H4759     1.0  0.85107  0.47295  0.50137  1.0000
  C   C3965     1.0  0.91532  0.23491  0.57192  1.0000
  C   C3966     1.0  0.93158  0.23390  0.56817  1.0000
  C   C3967     1.0  0.93833  0.24044  0.57630  1.0000
  C   C3968     1.0  0.92891  0.24763  0.58850  1.0000
  C   C3969     1.0  0.91271  0.24834  0.59245  1.0000
  C   C3970     1.0  0.90591  0.24216  0.58407  1.0000
  H   H4760     1.0  0.93892  0.22829  0.55879  1.0000
  H   H4761     1.0  0.95083  0.23974  0.57324  1.0000
  H   H4762     1.0  0.90538  0.25383  0.60192  1.0000
  H   H4763     1.0  0.89341  0.24283  0.58719  1.0000
  C   C3971     1.0  0.91993  0.35426  0.64906  1.0000
  C   C3972     1.0  0.93117  0.34897  0.65834  1.0000
  C   C3973     1.0  0.94279  0.35735  0.65601  1.0000
  C   C3974     1.0  0.94300  0.37126  0.64460  1.0000
  C   C3975     1.0  0.93160  0.37668  0.63547  1.0000
  C   C3976     1.0  0.92021  0.36810  0.63755  1.0000
  H   H4764     1.0  0.93097  0.33830  0.66729  1.0000
  H   H4765     1.0  0.95143  0.35318  0.66320  1.0000
  H   H4766     1.0  0.93169  0.38742  0.62663  1.0000
  H   H4767     1.0  0.91156  0.37227  0.63035  1.0000
  C   C3977     1.0  0.82745  0.24434  0.90984  1.0000
  H   H4768     1.0  0.93725  0.45501  0.49767  1.0000
  C   C3978     1.0  0.87523  0.31928  0.56621  1.0000
  C   C3979     1.0  0.87582  0.30403  0.56518  1.0000
  H   H4769     1.0  0.85948  0.24128  0.87879  1.0000
  H   H4770     1.0  0.85175  0.25694  0.88898  1.0000
  H   H4771     1.0  0.81180  0.21377  0.63493  1.0000
  H   H4772     1.0  0.87046  0.32919  0.55780  1.0000
  C   C3980     1.0  0.97728  0.24812  0.49975  1.0000
  C   C3981     1.0  0.83538  0.27116  0.60773  1.0000
  H   H4773     1.0  0.81880  0.26739  0.75927  1.0000
  C   C3982     1.0  0.97577  0.24177  0.51592  1.0000
  C   C3983     1.0  0.94335  0.21537  0.79791  1.0000
  H   H4774     1.0  0.97271  0.23047  0.52084  1.0000
  H   H4775     1.0  0.84681  0.20199  0.78305  1.0000
  C   C3984     1.0  0.94430  0.42073  0.62315  1.0000
  S   S1094     1.0  0.89349  0.31154  0.60429  1.0000
  C   C3985     1.0  0.82272  0.33593  0.72225  1.0000
  H   H4776     1.0  0.88260  0.27948  0.57537  1.0000
  H   H4777     1.0  0.95905  0.29400  0.61241  1.0000
  H   H4778     1.0  0.79494  0.25762  0.52493  1.0000
  S   S1095     1.0  0.97851  0.16059  0.78156  1.0000
  H   H4779     1.0  0.94240  0.28514  0.61762  1.0000
  H   H4780     1.0  0.85266  0.44545  0.55422  1.0000
  H   H4781     1.0  0.79793  0.18892  0.75628  1.0000
  C   C3986     1.0  0.81986  0.26029  0.90523  1.0000
  C   C3987     1.0  0.85225  0.43166  0.59220  1.0000
  C   C3988     1.0  0.80491  0.17859  0.69441  1.0000
  C   C3989     1.0  0.86608  0.21853  0.60486  1.0000
  H   H4782     1.0  0.94634  0.45558  0.51250  1.0000
  H   H4783     1.0  0.83983  0.43561  0.59672  1.0000
  H   H4784     1.0  0.96735  0.41146  0.63722  1.0000
  H   H4785     1.0  0.85512  0.19350  0.71689  1.0000
  H   H4786     1.0  0.97160  0.20426  0.84451  1.0000
  N   N267      1.0  0.97766  0.31295  0.85903  1.0000
  C   C3990     1.0  0.80204  0.20711  0.91489  1.0000
  C   C3991     1.0  0.80435  0.21301  0.89862  1.0000
  H   H4787     1.0  0.80825  0.19547  0.91951  1.0000
  H   H4788     1.0  0.81222  0.20584  0.89074  1.0000
  C   C3992     1.0  0.83793  0.22443  0.89457  1.0000
  H   H4789     1.0  0.86538  0.22372  0.90159  1.0000
  H   H4790     1.0  0.84033  0.25280  0.87771  1.0000
  H   H4791     1.0  0.79551  0.06944  0.75630  1.0000
  C   C3993     1.0  0.85420  0.22895  0.90905  1.0000
  H   H4792     1.0  0.92403  0.32328  0.59891  1.0000
  C   C3994     1.0  0.82359  0.17656  0.79682  1.0000
  C   C3995     1.0  0.83706  0.16512  0.79953  1.0000
  C   C3996     1.0  0.84483  0.16564  0.81068  1.0000
  C   C3997     1.0  0.83920  0.17764  0.81903  1.0000
  C   C3998     1.0  0.82586  0.18912  0.81614  1.0000
  C   C3999     1.0  0.81806  0.18855  0.80509  1.0000
  H   H4793     1.0  0.84143  0.15586  0.79312  1.0000
  H   H4794     1.0  0.85522  0.15679  0.81283  1.0000
  H   H4795     1.0  0.82129  0.19825  0.82264  1.0000
  H   H4796     1.0  0.82538  0.31308  0.63942  1.0000
  C   C4000     1.0  0.90822  0.26565  0.79375  1.0000
  C   C4001     1.0  0.91023  0.24757  0.84845  1.0000
  C   C4002     1.0  0.91517  0.23275  0.85751  1.0000
  C   C4003     1.0  0.90516  0.22216  0.86307  1.0000
  C   C4004     1.0  0.89035  0.22627  0.85933  1.0000
  C   C4005     1.0  0.88552  0.24100  0.85010  1.0000
  C   C4006     1.0  0.89540  0.25166  0.84476  1.0000
  H   H4797     1.0  0.92659  0.22954  0.86040  1.0000
  H   H4798     1.0  0.90894  0.21073  0.87020  1.0000
  H   H4799     1.0  0.87418  0.24421  0.84706  1.0000
  H   H4800     1.0  0.89158  0.26312  0.83771  1.0000
  C   C4007     1.0  0.93991  0.22953  0.81764  1.0000
  C   C4008     1.0  0.90233  0.15745  0.77337  1.0000
  C   C4009     1.0  0.88612  0.15829  0.77678  1.0000
  C   C4010     1.0  0.87992  0.15055  0.76937  1.0000
  C   C4011     1.0  0.88997  0.14149  0.75894  1.0000
  C   C4012     1.0  0.90623  0.14013  0.75597  1.0000
  C   C4013     1.0  0.91241  0.14821  0.76310  1.0000
  H   H4801     1.0  0.87830  0.16503  0.78508  1.0000
  H   H4802     1.0  0.86738  0.15149  0.77184  1.0000
  H   H4803     1.0  0.91402  0.13306  0.74794  1.0000
  H   H4804     1.0  0.92494  0.14746  0.76046  1.0000
  H   H4805     1.0  0.92346  0.47808  0.48313  1.0000
  H   H4806     1.0  0.80093  0.27752  0.79830  1.0000
  S   S1096     1.0  0.81089  0.23867  0.75884  1.0000
  C   C4014     1.0  0.87794  0.18210  0.72168  1.0000
  C   C4015     1.0  0.93002  0.24417  0.77739  1.0000
  H   H4807     1.0  0.80066  0.25584  0.83984  1.0000
  C   C4016     1.0  0.98129  0.26269  0.49346  1.0000
  S   S1097     1.0  0.97597  0.26401  0.60232  1.0000
  H   H4808     1.0  0.89282  0.28379  0.59600  1.0000
  H   H4809     1.0  0.96407  0.32902  0.64187  1.0000
  S   S1098     1.0  0.84402  0.25375  0.80379  1.0000
  C   C4017     1.0  0.81491  0.20782  0.58551  1.0000
  C   C4018     1.0  0.96591  0.32797  0.85713  1.0000
  H   H4810     1.0  0.93845  0.23638  0.77043  1.0000
  C   C4019     1.0  0.84856  0.24746  0.88578  1.0000
  H   H4811     1.0  0.94834  0.28996  0.63235  1.0000
  H   H4812     1.0  0.84191  0.17801  0.64406  1.0000
  C   C4020     1.0  0.91810  0.47464  0.51470  1.0000
  H   H4813     1.0  0.94401  0.31333  0.59180  1.0000
  H   H4814     1.0  0.92392  0.30757  0.64098  1.0000
  H   H4815     1.0  0.91413  0.32219  0.62723  1.0000
  C   C4021     1.0  0.87471  0.41036  0.58707  1.0000
  C   C4022     1.0  0.85880  0.41551  0.59353  1.0000
  C   C4023     1.0  0.97909  0.18525  0.80915  1.0000
  C   C4024     1.0  0.79153  0.21615  0.92518  1.0000
  S   S1099     1.0  0.82369  0.22224  0.83469  1.0000
  H   H4816     1.0  0.84839  0.21817  0.88718  1.0000
  H   H4817     1.0  0.82417  0.26773  0.89426  1.0000
  H   H4818     1.0  0.92854  0.30283  0.60046  1.0000
  Fe  Fe550     1.0  0.96805  0.14318  0.77705  1.0000
  C   C4025     1.0  0.89508  0.43538  0.52462  1.0000
  C   C4026     1.0  0.85855  0.19963  0.73680  1.0000
  H   H4819     1.0  0.93150  0.21264  0.80144  1.0000
  H   H4820     1.0  0.80036  0.27921  0.91094  1.0000
  C   C4027     1.0  0.97130  0.41582  0.62436  1.0000
  H   H4821     1.0  0.80561  0.13429  0.70261  1.0000
  C   C4028     1.0  0.86222  0.24993  0.49382  1.0000
  H   H4822     1.0  0.88972  0.22679  0.51277  1.0000
  H   H4823     1.0  0.95095  0.20583  0.80482  1.0000
  H   H4824     1.0  0.81095  0.20142  0.75202  1.0000
  C   C4029     1.0  0.85056  0.19776  0.77194  1.0000
  H   H4825     1.0  0.95168  0.43456  0.56625  1.0000
  H   H4826     1.0  0.97770  0.24468  0.53808  1.0000
  H   H4827     1.0  0.82876  0.22972  0.88751  1.0000
  C   C4030     1.0  0.87767  0.43744  0.57888  1.0000
  H   H4828     1.0  0.88006  0.19112  0.77438  1.0000
  H   H4829     1.0  0.84542  0.22462  0.75170  1.0000
  Fe  Fe551     1.0  0.79752  0.25908  0.74379  1.0000
  H   H4830     1.0  0.95375  0.32631  0.86279  1.0000
  H   H4831     1.0  0.96418  0.35364  0.62189  1.0000
  N   N268      1.0  0.84178  0.23658  0.89993  1.0000
  N   N269      1.0  0.86367  0.08691  0.77950  1.0000
  C   C4031     1.0  0.87943  0.07623  0.77855  1.0000
  C   C4032     1.0  0.85183  0.07701  0.78474  1.0000
  C   C4033     1.0  0.86235  0.09628  0.76357  1.0000
  C   C4034     1.0  0.86159  0.09757  0.78999  1.0000
  C   C4035     1.0  0.84831  0.09963  0.80258  1.0000
  C   C4036     1.0  0.87283  0.10668  0.78745  1.0000
  C   C4037     1.0  0.84661  0.11006  0.81202  1.0000
  C   C4038     1.0  0.87105  0.11698  0.79702  1.0000
  C   C4039     1.0  0.85794  0.11871  0.80925  1.0000
  H   H4832     1.0  0.88139  0.06991  0.79046  1.0000
  H   H4833     1.0  0.88094  0.06734  0.77166  1.0000
  H   H4834     1.0  0.88907  0.08256  0.77260  1.0000
  H   H4835     1.0  0.85205  0.06975  0.79677  1.0000
  H   H4836     1.0  0.85389  0.06891  0.77684  1.0000
  H   H4837     1.0  0.83975  0.08424  0.78453  1.0000
  H   H4838     1.0  0.86383  0.08878  0.75524  1.0000
  H   H4839     1.0  0.85062  0.10434  0.76378  1.0000
  H   H4840     1.0  0.87129  0.10358  0.75847  1.0000
  H   H4841     1.0  0.83889  0.09362  0.80517  1.0000
  H   H4842     1.0  0.88292  0.10627  0.77776  1.0000
  H   H4843     1.0  0.83627  0.11169  0.82137  1.0000
  H   H4844     1.0  0.87975  0.12390  0.79471  1.0000
  H   H4845     1.0  0.85645  0.12695  0.81643  1.0000
  N   N270      1.0  0.95858  0.42739  0.61737  1.0000
  H   H4846     1.0  0.80953  0.22777  0.68144  1.0000
  C   C4040     1.0  0.95517  0.44188  0.62324  1.0000
  S   S1100     1.0  0.95626  0.48100  0.60267  1.0000
  C   C4041     1.0  0.96357  0.43110  0.60004  1.0000
  Fe  Fe552     1.0  0.90348  0.47994  0.55535  1.0000
  C   C4042     1.0  0.95415  0.43081  0.59000  1.0000
  H   H4847     1.0  0.79161  0.29140  0.81045  1.0000
  C   C4043     1.0  0.88058  0.32176  0.57823  1.0000
  C   C4044     1.0  0.97368  0.43856  0.56689  1.0000
  H   H4848     1.0  0.93927  0.33942  0.59685  1.0000
  C   C4045     1.0  0.79637  0.22807  0.89263  1.0000
  H   H4849     1.0  0.79252  0.19048  0.72498  1.0000
  H   H4850     1.0  0.85114  0.31759  0.68841  1.0000
  H   H4851     1.0  0.79295  0.21482  0.70411  1.0000
  S   S1101     1.0  0.97886  0.30910  0.58561  1.0000
  C   C4046     1.0  0.81550  0.26638  0.52170  1.0000
  S   S1102     1.0  0.96457  0.25579  0.82043  1.0000
  H   H4852     1.0  0.83679  0.28248  0.48731  1.0000
  S   S1103     1.0  0.92879  0.46777  0.55265  1.0000
  H   H4853     1.0  0.94984  0.27283  0.51658  1.0000
  H   H4854     1.0  0.91597  0.46878  0.58505  1.0000
  C   C4047     1.0  0.93648  0.47128  0.56656  1.0000
  Fe  Fe553     1.0  0.79904  0.28293  0.71270  1.0000
  H   H4855     1.0  0.91625  0.25260  0.48823  1.0000
  H   H4856     1.0  0.84201  0.26308  0.60022  1.0000
  H   H4857     1.0  0.80645  0.34429  0.67239  1.0000
  H   H4858     1.0  0.91941  0.43626  0.51504  1.0000
  H   H4859     1.0  0.91132  0.46876  0.51051  1.0000
  H   H4860     1.0  0.82669  0.19601  0.67085  1.0000
  C   C4048     1.0  0.91288  0.22299  0.49706  1.0000
  H   H4861     1.0  0.86776  0.44461  0.50212  1.0000
  H   H4862     1.0  0.91842  0.25606  0.75825  1.0000
  H   H4863     1.0  0.85163  0.29513  0.63525  1.0000
  H   H4864     1.0  0.89690  0.43196  0.53647  1.0000
  C   C4049     1.0  0.94887  0.47696  0.58881  1.0000
  H   H4865     1.0  0.98776  0.28170  0.49819  1.0000
  C   C4050     1.0  0.90803  0.43800  0.51242  1.0000
  H   H4866     1.0  0.92101  0.46712  0.52585  1.0000
  C   C4051     1.0  0.84135  0.28365  0.60800  1.0000
  H   H4867     1.0  0.94836  0.21434  0.78553  1.0000
  C   C4052     1.0  0.86826  0.21707  0.61980  1.0000
  S   S1104     1.0  0.97479  0.23723  0.48767  1.0000
  H   H4868     1.0  0.80726  0.20965  0.65577  1.0000
  C   C4053     1.0  0.89168  0.44537  0.49359  1.0000
  H   H4869     1.0  0.82174  0.22021  0.78614  1.0000
  H   H4870     1.0  0.81276  0.25865  0.82049  1.0000
  H   H4871     1.0  0.85701  0.33757  0.66729  1.0000
  C   C4054     1.0  0.80375  0.26728  0.50052  1.0000
  H   H4872     1.0  0.87169  0.34803  0.66506  1.0000
  C   C4055     1.0  0.80196  0.08718  0.73606  1.0000
  C   C4056     1.0  0.80525  0.08567  0.76204  1.0000
  Fe  Fe554     1.0  0.98113  0.36891  0.64613  1.0000
  C   C4057     1.0  0.81159  0.31925  0.68129  1.0000
  C   C4058     1.0  0.86414  0.34042  0.67383  1.0000
  H   H4873     1.0  0.95386  0.46366  0.49214  1.0000
  H   H4874     1.0  0.83630  0.21197  0.66243  1.0000
  C   C4059     1.0  0.98306  0.43920  0.57638  1.0000
  H   H4875     1.0  0.98321  0.29108  0.85195  1.0000
  C   C4060     1.0  0.98493  0.20311  0.82110  1.0000
  H   H4876     1.0  0.87462  0.22257  0.59456  1.0000
  H   H4877     1.0  0.85114  0.21610  0.59147  1.0000
  C   C4061     1.0  0.90632  0.44309  0.49693  1.0000
  C   C4062     1.0  0.81641  0.21315  0.64526  1.0000
  H   H4878     1.0  0.87231  0.32953  0.67839  1.0000
  H   H4879     1.0  0.94304  0.23289  0.50582  1.0000
  C   C4063     1.0  0.93872  0.27815  0.51323  1.0000
  C   C4064     1.0  0.89778  0.20960  0.48217  1.0000
  H   H4880     1.0  0.80674  0.99770  0.69981  1.0000
  C   C4065     1.0  0.83035  0.18645  0.64487  1.0000
  H   H4881     1.0  0.96935  0.47948  0.57024  1.0000
  H   H4882     1.0  0.91544  0.30192  0.62821  1.0000
  H   H4883     1.0  0.90429  0.22857  0.52754  1.0000
  S   S1105     1.0  0.86886  0.25982  0.50404  1.0000
  H   H4884     1.0  0.94133  0.23353  0.48676  1.0000
  H   H4885     1.0  0.85400  0.22848  0.76508  1.0000
  C   C4066     1.0  0.96776  0.18121  0.82264  1.0000
  Fe  Fe555     1.0  0.88472  0.33488  0.61110  1.0000
  C   C4067     1.0  0.81936  0.24342  0.77156  1.0000
  H   H4886     1.0  0.81844  0.19889  0.57871  1.0000
  C   C4068     1.0  0.87872  0.44245  0.50567  1.0000
  C   C4069     1.0  0.83266  0.29465  0.61741  1.0000
  H   H4887     1.0  0.98553  0.43678  0.59953  1.0000
  H   H4888     1.0  0.91585  0.26128  0.54773  1.0000
  H   H4889     1.0  0.81850  0.11657  0.73605  1.0000
  C   C4070     1.0  0.80037  0.07979  0.75190  1.0000
  H   H4890     1.0  0.93916  0.27387  0.55777  1.0000
  C   C4071     1.0  0.81786  0.29202  0.62690  1.0000
  C   C4072     1.0  0.93995  0.27479  0.54510  1.0000
  H   H4891     1.0  0.91299  0.27104  0.56336  1.0000
  C   C4073     1.0  0.91683  0.22472  0.52196  1.0000
  C   C4074     1.0  0.81159  0.09906  0.75643  1.0000
  C   C4075     1.0  0.91104  0.29049  0.51808  1.0000
  C   C4076     1.0  0.83666  0.30528  0.66882  1.0000
  H   H4892     1.0  0.94411  0.26261  0.54323  1.0000
  C   C4077     1.0  0.85376  0.30218  0.62302  1.0000
  H   H4893     1.0  0.83196  0.32152  0.59572  1.0000
  C   C4078     1.0  0.84424  0.36300  0.67907  1.0000
  H   H4894     1.0  0.80059  0.31923  0.68984  1.0000
  H   H4895     1.0  0.92819  0.22697  0.82380  1.0000
  N   N271      1.0  0.92457  0.28239  0.54068  1.0000
  C   C4079     1.0  0.82290  0.32094  0.72112  1.0000
  C   C4080     1.0  0.91096  0.29160  0.50245  1.0000
  C   C4081     1.0  0.86442  0.35226  0.69411  1.0000
  H   H4896     1.0  0.87742  0.21439  0.50031  1.0000
  C   C4082     1.0  0.79956  0.25835  0.92904  1.0000
  N   N272      1.0  0.90394  0.17924  0.83166  1.0000
  C   C4083     1.0  0.91017  0.17792  0.84557  1.0000
  C   C4084     1.0  0.88844  0.17490  0.83733  1.0000
  C   C4085     1.0  0.91492  0.16769  0.82270  1.0000
  C   C4086     1.0  0.90206  0.19518  0.82149  1.0000
  C   C4087     1.0  0.89844  0.19793  0.80662  1.0000
  C   C4088     1.0  0.90282  0.20849  0.82629  1.0000
  C   C4089     1.0  0.89607  0.21294  0.79704  1.0000
  C   C4090     1.0  0.89987  0.22354  0.81684  1.0000
  C   C4091     1.0  0.89656  0.22576  0.80223  1.0000
  H   H4897     1.0  0.90178  0.18511  0.85377  1.0000
  H   H4898     1.0  0.91218  0.16569  0.85259  1.0000
  H   H4899     1.0  0.92166  0.18150  0.84200  1.0000
  H   H4900     1.0  0.88924  0.16288  0.84483  1.0000
  H   H4901     1.0  0.88323  0.17518  0.82749  1.0000
  H   H4902     1.0  0.87986  0.18310  0.84437  1.0000
  H   H4903     1.0  0.92605  0.17158  0.81664  1.0000
  H   H4904     1.0  0.91802  0.15594  0.83037  1.0000
  H   H4905     1.0  0.90993  0.16572  0.81373  1.0000
  H   H4906     1.0  0.89697  0.18852  0.80249  1.0000
  H   H4907     1.0  0.90521  0.20764  0.83749  1.0000
  H   H4908     1.0  0.89343  0.21468  0.78572  1.0000
  H   H4909     1.0  0.89984  0.23358  0.82101  1.0000
  H   H4910     1.0  0.89404  0.23747  0.79508  1.0000
  H   H4911     1.0  0.81481  0.31428  0.72961  1.0000
  C   C4092     1.0  0.80520  0.19589  0.74633  1.0000
  Fe  Fe556     1.0  0.86962  0.47831  0.56651  1.0000
  S   S1106     1.0  0.98110  0.24524  0.57419  1.0000
  C   C4093     1.0  0.93852  0.27937  0.49760  1.0000
  C   C4094     1.0  0.81874  0.22017  0.72234  1.0000
  Fe  Fe557     1.0  0.97320  0.25062  0.86073  1.0000
  C   C4095     1.0  0.82826  0.22753  0.70902  1.0000
  C   C4096     1.0  0.81234  0.22532  0.69282  1.0000
  H   H4912     1.0  0.79944  0.10651  0.67334  1.0000
  C   C4097     1.0  0.90773  0.26615  0.77845  1.0000
  C   C4098     1.0  0.85193  0.43587  0.52964  1.0000
  H   H4913     1.0  0.85990  0.41656  0.55485  1.0000
  C   C4099     1.0  0.79643  0.15742  0.69012  1.0000
  C   C4100     1.0  0.86323  0.19213  0.72423  1.0000
  H   H4914     1.0  0.89943  0.17169  0.72970  1.0000
  C   C4101     1.0  0.91388  0.24770  0.50110  1.0000
  H   H4915     1.0  0.82103  0.21940  0.73358  1.0000
  C   C4102     1.0  0.93059  0.24306  0.79312  1.0000
  H   H4916     1.0  0.83774  0.23187  0.71021  1.0000
  H   H4917     1.0  0.96589  0.33355  0.84460  1.0000
  C   C4103     1.0  0.80386  0.26327  0.51650  1.0000
  H   H4918     1.0  0.85898  0.31193  0.62295  1.0000
  C   C4104     1.0  0.95923  0.43446  0.57369  1.0000
  H   H4919     1.0  0.87288  0.44606  0.54926  1.0000
  H   H4920     1.0  0.82111  0.14354  0.71543  1.0000
  H   H4921     1.0  0.83770  0.37072  0.68738  1.0000
  C   C4105     1.0  0.84260  0.31729  0.60081  1.0000
  S   S1107     1.0  0.86349  0.35360  0.60642  1.0000
  S   S1108     1.0  0.81355  0.17637  0.78301  1.0000
  H   H4922     1.0  0.90005  0.29491  0.52557  1.0000
  H   H4923     1.0  0.81049  0.29954  0.63465  1.0000
  H   H4924     1.0  0.94272  0.42799  0.59442  1.0000
  C   C4106     1.0  0.86288  0.44680  0.54416  1.0000
  H   H4925     1.0  0.83227  0.35626  0.71243  1.0000
  H   H4926     1.0  0.92769  0.30584  0.53675  1.0000
  H   H4927     1.0  0.92681  0.47412  0.60471  1.0000
  H   H4928     1.0  0.94314  0.21511  0.50093  1.0000
  H   H4929     1.0  0.87856  0.22004  0.62104  1.0000
  N   N273      1.0  0.85397  0.34829  0.68653  1.0000
  C   C4107     1.0  0.83293  0.34465  0.71112  1.0000
  C   C4108     1.0  0.82814  0.31901  0.62683  1.0000
  C   C4109     1.0  0.85290  0.21477  0.60313  1.0000
  Fe  Fe558     1.0  0.97969  0.28503  0.58303  1.0000
  C   C4110     1.0  0.88412  0.42138  0.57984  1.0000
  H   H4930     1.0  0.83542  0.36042  0.67427  1.0000
  H   H4931     1.0  0.96830  0.33648  0.86245  1.0000
  H   H4932     1.0  0.91945  0.29757  0.55680  1.0000
  C   C4111     1.0  0.80569  0.23094  0.60295  1.0000
  H   H4933     1.0  0.95128  0.30948  0.64017  1.0000
  H   H4934     1.0  0.82495  0.22341  0.92847  1.0000
  S   S1109     1.0  0.88264  0.39074  0.58544  1.0000
  S   S1110     1.0  0.82672  0.24828  0.58417  1.0000
  H   H4935     1.0  0.90751  0.30415  0.54272  1.0000
  H   H4936     1.0  0.89642  0.41747  0.57479  1.0000
  C   C4112     1.0  0.81412  0.16782  0.70436  1.0000
  N   N274      1.0  0.93687  0.31002  0.61695  1.0000
  C   C4113     1.0  0.92196  0.31034  0.62888  1.0000
  C   C4114     1.0  0.93328  0.31255  0.60132  1.0000
  C   C4115     1.0  0.94711  0.29413  0.62000  1.0000
  C   C4116     1.0  0.94451  0.32202  0.61798  1.0000
  C   C4117     1.0  0.95144  0.31981  0.63086  1.0000
  C   C4118     1.0  0.94454  0.33650  0.60684  1.0000
  C   C4119     1.0  0.95861  0.33102  0.63208  1.0000
  C   C4120     1.0  0.95152  0.34775  0.60833  1.0000
  C   C4121     1.0  0.95866  0.34496  0.62084  1.0000
  H   H4937     1.0  0.92344  0.22914  0.52784  1.0000
  C   C4122     1.0  0.81494  0.33341  0.67141  1.0000
  C   C4123     1.0  0.97454  0.30244  0.85092  1.0000
  H   H4938     1.0  0.97547  0.40537  0.61899  1.0000
  H   H4939     1.0  0.91899  0.25397  0.50669  1.0000
  C   C4124     1.0  0.88962  0.21509  0.49565  1.0000
  H   H4940     1.0  0.95651  0.18484  0.84593  1.0000
  H   H4941     1.0  0.84209  0.43338  0.53980  1.0000
  H   H4942     1.0  0.90090  0.27869  0.54944  1.0000
  S   S1111     1.0  0.97357  0.19780  0.74635  1.0000
  H   H4943     1.0  0.84674  0.20658  0.73886  1.0000
  H   H4944     1.0  0.95848  0.47418  0.55062  1.0000
  C   C4125     1.0  0.79594  0.17341  0.68744  1.0000
  C   C4126     1.0  0.95822  0.23507  0.79314  1.0000
  C   C4127     1.0  0.91961  0.29817  0.54434  1.0000
  N   N275      1.0  0.93244  0.47780  0.50291  1.0000
  C   C4128     1.0  0.89690  0.22194  0.50287  1.0000
  C   C4129     1.0  0.82237  0.22055  0.58070  1.0000
  C   C4130     1.0  0.92492  0.28371  0.52398  1.0000
  C   C4131     1.0  0.98311  0.26412  0.51929  1.0000
  H   H4945     1.0  0.84703  0.19198  0.66195  1.0000
  S   S1112     1.0  0.98692  0.34521  0.66162  1.0000
  C   C4132     1.0  0.82073  0.26911  0.61688  1.0000
  H   H4946     1.0  0.83610  0.22543  0.80289  1.0000
  C   C4133     1.0  0.91953  0.25440  0.80099  1.0000
  H   H4947     1.0  0.85173  0.31039  0.59292  1.0000
  H   H4948     1.0  0.94136  0.41711  0.63619  1.0000
  H   H4949     1.0  0.94878  0.21996  0.82298  1.0000
  H   H4950     1.0  0.83621  0.27577  0.51496  1.0000
  S   S1113     1.0  0.98307  0.11950  0.77425  1.0000
  Fe  Fe559     1.0  0.85730  0.35193  0.63248  1.0000
  C   C4134     1.0  0.82504  0.23013  0.69429  1.0000
  H   H4951     1.0  0.94078  0.24030  0.82051  1.0000
  H   H4952     1.0  0.87104  0.20970  0.77885  1.0000
  S   S1114     1.0  0.83295  0.35134  0.64768  1.0000
  S   S1115     1.0  0.79911  0.23574  0.87234  1.0000
  C   C4135     1.0  0.86162  0.44267  0.58463  1.0000
  C   C4136     1.0  0.83471  0.24970  0.79129  1.0000
  H   H4953     1.0  0.79892  0.00293  0.72616  1.0000
  H   H4954     1.0  0.91994  0.21169  0.52515  1.0000
  C   C4137     1.0  0.87010  0.41904  0.54512  1.0000
  H   H4955     1.0  0.81713  0.22524  0.64490  1.0000
  C   C4138     1.0  0.84362  0.33860  0.69840  1.0000
  H   H4956     1.0  0.80201  0.23989  0.60973  1.0000
  C   C4139     1.0  0.83192  0.23477  0.79375  1.0000
  H   H4957     1.0  0.84717  0.32767  0.60018  1.0000
  H   H4958     1.0  0.88130  0.17577  0.71236  1.0000
  C   C4140     1.0  0.82718  0.27741  0.49491  1.0000
  N   N276      1.0  0.86642  0.43479  0.53480  1.0000
  H   H4959     1.0  0.85148  0.37003  0.66914  1.0000
  H   H4960     1.0  0.84509  0.29439  0.66773  1.0000
  H   H4961     1.0  0.97670  0.31301  0.88303  1.0000
  H   H4962     1.0  0.85278  0.28470  0.60064  1.0000
  H   H4963     1.0  0.87365  0.40964  0.53839  1.0000
  H   H4964     1.0  0.92466  0.28712  0.48005  1.0000
  H   H4965     1.0  0.89024  0.44968  0.48155  1.0000
  C   C4141     1.0  0.88002  0.43736  0.52162  1.0000
  C   C4142     1.0  0.82243  0.30513  0.67991  1.0000
  H   H4966     1.0  0.82214  0.18138  0.65549  1.0000
  H   H4967     1.0  0.89985  0.27411  0.80006  1.0000
  C   C4143     1.0  0.84696  0.23236  0.49259  1.0000
  H   H4968     1.0  0.84778  0.23787  0.51399  1.0000
  H   H4969     1.0  0.94914  0.28156  0.53841  1.0000
  H   H4970     1.0  0.83896  0.22461  0.49847  1.0000
  C   C4144     1.0  0.85193  0.23986  0.50140  1.0000
  C   C4145     1.0  0.85729  0.21178  0.63311  1.0000
  H   H4971     1.0  0.96231  0.47183  0.51007  1.0000
  C   C4146     1.0  0.87557  0.20353  0.76895  1.0000
  H   H4972     1.0  0.88562  0.20840  0.76094  1.0000
  S   S1116     1.0  0.81130  0.15288  0.75505  1.0000
  H   H4973     1.0  0.85467  0.18480  0.77509  1.0000
  C   C4147     1.0  0.93766  0.22784  0.49928  1.0000
  H   H4974     1.0  0.88508  0.44577  0.57332  1.0000
  C   C4148     1.0  0.97858  0.24979  0.52571  1.0000
  H   H4975     1.0  0.83214  0.27303  0.77683  1.0000
  N   N277      1.0  0.92029  0.23059  0.50467  1.0000
  H   H4976     1.0  0.83162  0.22141  0.57024  1.0000
  H   H4977     1.0  0.87281  0.35902  0.68535  1.0000
  C   C4149     1.0  0.79477  0.99181  0.73079  1.0000
  H   H4978     1.0  0.83334  0.30294  0.70800  1.0000
  Fe  Fe560     1.0  0.97467  0.27114  0.82829  1.0000
  H   H4979     1.0  0.85092  0.31924  0.65049  1.0000
  C   C4150     1.0  0.82991  0.26148  0.77885  1.0000
  C   C4151     1.0  0.88372  0.18757  0.74382  1.0000
  N   N278      1.0  0.83905  0.30807  0.61712  1.0000
  C   C4152     1.0  0.94299  0.46237  0.50125  1.0000
  H   H4980     1.0  0.86022  0.45885  0.53686  1.0000
  C   C4153     1.0  0.80288  0.20660  0.59909  1.0000
  C   C4154     1.0  0.91310  0.27294  0.55071  1.0000
  C   C4155     1.0  0.82407  0.23172  0.78405  1.0000
  C   C4156     1.0  0.81358  0.10625  0.74049  1.0000
  H   H4981     1.0  0.85780  0.35951  0.70284  1.0000
  S   S1117     1.0  0.98835  0.27391  0.53064  1.0000
  C   C4157     1.0  0.92470  0.28612  0.49221  1.0000
  C   C4158     1.0  0.84360  0.32319  0.69768  1.0000
  C   C4159     1.0  0.83338  0.31456  0.70893  1.0000
  H   H4982     1.0  0.94560  0.45086  0.61838  1.0000
  C   C4160     1.0  0.80885  0.10024  0.73030  1.0000
  H   H4983     1.0  0.87156  0.34145  0.70025  1.0000
  H   H4984     1.0  0.93377  0.42933  0.61973  1.0000
  H   H4985     1.0  0.85388  0.42729  0.52227  1.0000
  C   C4161     1.0  0.82704  0.27353  0.51093  1.0000
  H   H4986     1.0  0.98967  0.32593  0.82832  1.0000
  S   S1118     1.0  0.85294  0.46289  0.58131  1.0000
  H   H4987     1.0  0.94605  0.40999  0.61871  1.0000
  S   S1119     1.0  0.97842  0.24765  0.88435  1.0000
  C   C4162     1.0  0.80671  0.24274  0.93390  1.0000
  H   H4988     1.0  0.91934  0.25490  0.81276  1.0000
  S   S1120     1.0  0.84686  0.27229  0.54459  1.0000
  C   C4163     1.0  0.82222  0.25835  0.76900  1.0000
  C   C4164     1.0  0.82917  0.33352  0.66026  1.0000
  H   H4989     1.0  0.89216  0.18510  0.75100  1.0000
  C   C4165     1.0  0.84005  0.31940  0.65912  1.0000
  C   C4166     1.0  0.96525  0.18793  0.83546  1.0000
  H   H4990     1.0  0.81026  0.10590  0.71801  1.0000
  C   C4167     1.0  0.91866  0.25548  0.77025  1.0000
  H   H4991     1.0  0.97738  0.44172  0.55425  1.0000
  H   H4992     1.0  0.96265  0.29986  0.85596  1.0000
  H   H4993     1.0  0.97508  0.30749  0.83821  1.0000
  H   H4994     1.0  0.80394  0.07991  0.77431  1.0000
  Fe  Fe561     1.0  0.98032  0.23587  0.83303  1.0000
  H   H4995     1.0  0.81568  0.26315  0.53407  1.0000
  H   H4996     1.0  0.98672  0.33516  0.59087  1.0000
  H   H4997     1.0  0.98754  0.20563  0.67113  1.0000
  H   H4998     1.0  0.80439  0.27471  0.83017  1.0000
  H   H4999     1.0  0.98100  0.18029  0.79914  1.0000
  C   C4168     1.0  0.80205  0.26410  0.82823  1.0000
  H   H5000     1.0  0.80460  0.19095  0.69218  1.0000
  H   H5001     1.0  0.90015  0.29673  0.49831  1.0000
  H   H5002     1.0  0.95802  0.24700  0.79424  1.0000
  S   S1121     1.0  0.79838  0.25741  0.71955  1.0000
  C   C4169     1.0  0.95777  0.47704  0.57356  1.0000
  H   H5003     1.0  0.96315  0.30316  0.88086  1.0000
  C   C4170     1.0  0.97806  0.43567  0.59269  1.0000
  C   C4171     1.0  0.93375  0.47410  0.59293  1.0000
  C   C4172     1.0  0.80347  0.98615  0.70497  1.0000
  S   S1122     1.0  0.97930  0.29252  0.81010  1.0000
  H   H5004     1.0  0.98141  0.19666  0.69116  1.0000
  C   C4173     1.0  0.98782  0.19601  0.80847  1.0000
  H   H5005     1.0  0.96555  0.44730  0.61980  1.0000
  H   H5006     1.0  0.98152  0.42082  0.62310  1.0000
  C   C4174     1.0  0.80611  0.26710  0.91474  1.0000
  Fe  Fe562     1.0  0.98394  0.26795  0.55713  1.0000
  S   S1123     1.0  0.79365  0.19057  0.60511  1.0000
  C   C4175     1.0  0.81205  0.27943  0.62655  1.0000
  H   H5007     1.0  0.79443  0.26469  0.49711  1.0000
  C   C4176     1.0  0.86594  0.48128  0.47934  1.0000
  C   C4177     1.0  0.98733  0.31058  0.60019  1.0000
  H   H5008     1.0  0.98996  0.18628  0.71357  1.0000
  C   C4178     1.0  0.98426  0.27061  0.50320  1.0000
  H   H5009     1.0  0.80069  0.27771  0.63373  1.0000
  H   H5010     1.0  0.81445  0.18755  0.74000  1.0000
  N   N279      1.0  0.79567  0.20748  0.73558  1.0000
  S   S1124     1.0  0.79544  0.08020  0.72335  1.0000
  C   C4179     1.0  0.80283  0.21783  0.70606  1.0000
  H   H5011     1.0  0.98967  0.28633  0.61214  1.0000
  H   H5012     1.0  0.99012  0.24941  0.90994  1.0000
  C   C4180     1.0  0.98997  0.32510  0.59992  1.0000
  H   H5013     1.0  0.80447  0.98299  0.73561  1.0000
  H   H5014     1.0  0.96604  0.78308  0.11920  1.0000
  N   N280      1.0  0.85515  0.81858  0.26984  1.0000
  H   H5015     1.0  0.87668  0.61185  0.40652  1.0000
  H   H5016     1.0  0.95562  0.77760  0.14718  1.0000
  Fe  Fe563     1.0  0.87728  0.60705  0.33253  1.0000
  S   S1125     1.0  0.85857  0.61573  0.35218  1.0000
  S   S1126     1.0  0.87520  0.61038  0.30742  1.0000
  Fe  Fe564     1.0  0.90261  0.59615  0.35186  1.0000
  S   S1127     1.0  0.88595  0.60429  0.37262  1.0000
  S   S1128     1.0  0.92678  0.58309  0.35557  1.0000
  Fe  Fe565     1.0  0.86913  0.59344  0.36755  1.0000
  S   S1129     1.0  0.85720  0.57938  0.39003  1.0000
  Fe  Fe566     1.0  0.87716  0.62567  0.35554  1.0000
  S   S1130     1.0  0.87060  0.65026  0.35967  1.0000
  S   S1131     1.0  0.88639  0.58380  0.34773  1.0000
  S   S1132     1.0  0.89528  0.61852  0.33493  1.0000
  Fe  Fe567     1.0  0.89345  0.68420  0.41546  1.0000
  S   S1133     1.0  0.89433  0.70597  0.39655  1.0000
  S   S1134     1.0  0.90138  0.66031  0.40966  1.0000
  Fe  Fe568     1.0  0.88166  0.70206  0.44185  1.0000
  S   S1135     1.0  0.88124  0.72533  0.42490  1.0000
  H   H5017     1.0  0.79968  0.76004  0.98657  1.0000
  Fe  Fe569     1.0  0.87088  0.71580  0.41066  1.0000
  S   S1136     1.0  0.84895  0.72968  0.40167  1.0000
  Fe  Fe570     1.0  0.90462  0.71343  0.41242  1.0000
  S   S1137     1.0  0.92554  0.72464  0.40220  1.0000
  S   S1138     1.0  0.86933  0.69334  0.42869  1.0000
  S   S1139     1.0  0.90577  0.69075  0.43023  1.0000
  S   S1140     1.0  0.81683  0.67226  0.21405  1.0000
  C   C4181     1.0  0.79406  0.79638  0.26898  1.0000
  H   H5018     1.0  0.93216  0.85541  0.20681  1.0000
  Fe  Fe571     1.0  0.93314  0.81236  0.21678  1.0000
  S   S1141     1.0  0.91810  0.83049  0.20155  1.0000
  S   S1142     1.0  0.95946  0.80882  0.21030  1.0000
  Fe  Fe572     1.0  0.90588  0.79758  0.23675  1.0000
  S   S1143     1.0  0.88862  0.81427  0.22312  1.0000
  S   S1144     1.0  0.89894  0.77894  0.25757  1.0000
  Fe  Fe573     1.0  0.90791  0.81052  0.20211  1.0000
  S   S1145     1.0  0.90346  0.80733  0.18026  1.0000
  Fe  Fe574     1.0  0.90031  0.83250  0.22409  1.0000
  S   S1146     1.0  0.88571  0.85459  0.23168  1.0000
  S   S1147     1.0  0.92421  0.79222  0.21571  1.0000
  S   S1148     1.0  0.91631  0.81604  0.23939  1.0000
  Fe  Fe575     1.0  0.87722  0.73962  0.13761  1.0000
  S   S1149     1.0  0.89851  0.72344  0.12696  1.0000
  S   S1150     1.0  0.85513  0.75032  0.12825  1.0000
  Fe  Fe576     1.0  0.88974  0.73545  0.16655  1.0000
  S   S1151     1.0  0.91166  0.71826  0.15867  1.0000
  S   S1152     1.0  0.88690  0.74196  0.18940  1.0000
  Fe  Fe577     1.0  0.91248  0.73513  0.13541  1.0000
  S   S1153     1.0  0.93491  0.74265  0.12083  1.0000
  Fe  Fe578     1.0  0.89572  0.70816  0.15123  1.0000
  S   S1154     1.0  0.89839  0.68242  0.15319  1.0000
  S   S1155     1.0  0.89129  0.75298  0.14371  1.0000
  S   S1156     1.0  0.87367  0.72365  0.16145  1.0000
  C   C4182     1.0  0.80404  0.69355  0.28707  1.0000
  C   C4183     1.0  0.93955  0.75550  0.44062  1.0000
  Fe  Fe579     1.0  0.82614  0.74876  0.31863  1.0000
  S   S1157     1.0  0.84714  0.74142  0.32990  1.0000
  Fe  Fe580     1.0  0.82199  0.75881  0.28479  1.0000
  S   S1158     1.0  0.83356  0.76660  0.25967  1.0000
  S   S1159     1.0  0.83118  0.73582  0.29946  1.0000
  Fe  Fe581     1.0  0.81657  0.67671  0.23710  1.0000
  S   S1160     1.0  0.83568  0.65586  0.24281  1.0000
  H   H5019     1.0  0.85173  0.52582  0.41619  1.0000
  H   H5020     1.0  0.81175  0.67581  0.01743  1.0000
  S   S1161     1.0  0.81572  0.63572  0.23314  1.0000
  H   H5021     1.0  0.85596  0.74073  0.99880  1.0000
  Fe  Fe582     1.0  0.81588  0.64355  0.25456  1.0000
  S   S1162     1.0  0.81371  0.62988  0.27975  1.0000
  Fe  Fe583     1.0  0.83394  0.65013  0.22097  1.0000
  S   S1163     1.0  0.85389  0.64074  0.20278  1.0000
  C   C4184     1.0  0.86773  0.82723  0.26671  1.0000
  C   C4185     1.0  0.96767  0.79012  0.12624  1.0000
  H   H5022     1.0  0.92770  0.75829  0.42276  1.0000
  H   H5023     1.0  0.81365  0.63314  0.18598  1.0000
  C   C4186     1.0  0.94644  0.86977  0.20870  1.0000
  Fe  Fe584     1.0  0.81131  0.69433  0.08830  1.0000
  S   S1164     1.0  0.81307  0.71340  0.09836  1.0000
  S   S1165     1.0  0.81479  0.67052  0.10425  1.0000
  H   H5024     1.0  0.92811  0.68116  0.39786  1.0000
  H   H5025     1.0  0.82523  0.67765  0.16384  1.0000
  Fe  Fe585     1.0  0.82550  0.72264  0.07402  1.0000
  S   S1166     1.0  0.84794  0.73067  0.06941  1.0000
  H   H5026     1.0  0.94134  0.68048  0.41652  1.0000
  S   S1167     1.0  0.82537  0.70258  0.06423  1.0000
  C   C4187     1.0  0.81403  0.71662  0.26154  1.0000
  H   H5027     1.0  0.83951  0.73391  0.03446  1.0000
  C   C4188     1.0  0.94246  0.62148  0.35304  1.0000
  C   C4189     1.0  0.91738  0.53264  0.39694  1.0000
  H   H5028     1.0  0.89112  0.78332  0.43852  1.0000
  H   H5029     1.0  0.85030  0.75290  0.23158  1.0000
  C   C4190     1.0  0.85665  0.81264  0.25578  1.0000
  H   H5030     1.0  0.80120  0.81474  0.28313  1.0000
  C   C4191     1.0  0.97884  0.68476  0.40647  1.0000
  H   H5031     1.0  0.92402  0.53013  0.36705  1.0000
  C   C4192     1.0  0.96748  0.74846  0.20619  1.0000
  H   H5032     1.0  0.84279  0.71275  0.98954  1.0000
  H   H5033     1.0  0.93397  0.65811  0.41799  1.0000
  S   S1168     1.0  0.81904  0.77223  0.30297  1.0000
  H   H5034     1.0  0.80990  0.48666  0.38540  1.0000
  H   H5035     1.0  0.82605  0.71874  0.34886  1.0000
  C   C4193     1.0  0.85345  0.74496  0.11171  1.0000
  C   C4194     1.0  0.83851  0.74518  0.11002  1.0000
  C   C4195     1.0  0.83677  0.74080  0.09707  1.0000
  C   C4196     1.0  0.84995  0.73647  0.08556  1.0000
  C   C4197     1.0  0.86489  0.73648  0.08711  1.0000
  C   C4198     1.0  0.86667  0.74050  0.10028  1.0000
  H   H5036     1.0  0.82826  0.74860  0.11884  1.0000
  H   H5037     1.0  0.82519  0.74101  0.09591  1.0000
  H   H5038     1.0  0.87513  0.73317  0.07822  1.0000
  H   H5039     1.0  0.87823  0.74042  0.10145  1.0000
  C   C4199     1.0  0.88552  0.67166  0.16739  1.0000
  C   C4200     1.0  0.87279  0.67845  0.17803  1.0000
  C   C4201     1.0  0.86284  0.66913  0.18908  1.0000
  C   C4202     1.0  0.86573  0.65310  0.18942  1.0000
  C   C4203     1.0  0.87826  0.64653  0.17859  1.0000
  C   C4204     1.0  0.88810  0.65574  0.16766  1.0000
  H   H5040     1.0  0.87072  0.69075  0.17788  1.0000
  H   H5041     1.0  0.85311  0.67430  0.19739  1.0000
  H   H5042     1.0  0.88055  0.63416  0.17880  1.0000
  H   H5043     1.0  0.89790  0.65044  0.15948  1.0000
  C   C4205     1.0  0.88179  0.77376  0.25753  1.0000
  C   C4206     1.0  0.87619  0.77753  0.24377  1.0000
  C   C4207     1.0  0.86133  0.77529  0.24440  1.0000
  C   C4208     1.0  0.85226  0.76900  0.25873  1.0000
  C   C4209     1.0  0.85812  0.76470  0.27235  1.0000
  C   C4210     1.0  0.87290  0.76703  0.27173  1.0000
  H   H5044     1.0  0.88317  0.78242  0.23269  1.0000
  H   H5045     1.0  0.85689  0.77850  0.23380  1.0000
  H   H5046     1.0  0.85126  0.75972  0.28344  1.0000
  H   H5047     1.0  0.87724  0.76403  0.28238  1.0000
  C   C4211     1.0  0.89831  0.78934  0.18323  1.0000
  C   C4212     1.0  0.90313  0.77667  0.19493  1.0000
  C   C4213     1.0  0.89965  0.76215  0.19672  1.0000
  C   C4214     1.0  0.89131  0.76021  0.18681  1.0000
  C   C4215     1.0  0.88629  0.77293  0.17521  1.0000
  C   C4216     1.0  0.88971  0.78751  0.17351  1.0000
  H   H5048     1.0  0.90971  0.77791  0.20251  1.0000
  H   H5049     1.0  0.90375  0.75234  0.20558  1.0000
  H   H5050     1.0  0.87938  0.77166  0.16789  1.0000
  H   H5051     1.0  0.88541  0.79745  0.16489  1.0000
  C   C4217     1.0  0.83934  0.87394  0.21542  1.0000
  C   C4218     1.0  0.84147  0.87842  0.22808  1.0000
  C   C4219     1.0  0.85578  0.87247  0.23300  1.0000
  C   C4220     1.0  0.86780  0.86175  0.22555  1.0000
  C   C4221     1.0  0.86546  0.85692  0.21323  1.0000
  C   C4222     1.0  0.85135  0.86318  0.20805  1.0000
  H   H5052     1.0  0.83233  0.88685  0.23371  1.0000
  H   H5053     1.0  0.85757  0.87626  0.24252  1.0000
  H   H5054     1.0  0.87471  0.84876  0.20734  1.0000
  H   H5055     1.0  0.84980  0.85979  0.19817  1.0000
  C   C4223     1.0  0.95785  0.49186  0.38918  1.0000
  C   C4224     1.0  0.94358  0.85839  0.20298  1.0000
  H   H5056     1.0  0.80123  0.67117  0.15930  1.0000
  S   S1169     1.0  0.87316  0.70006  0.46817  1.0000
  S   S1170     1.0  0.79677  0.66497  0.24995  1.0000
  H   H5057     1.0  0.98032  0.69944  0.47605  1.0000
  H   H5058     1.0  0.82303  0.49968  0.38099  1.0000
  C   C4225     1.0  0.92454  0.75261  0.46724  1.0000
  N   N281      1.0  0.86428  0.72931  0.23532  1.0000
  H   H5059     1.0  0.81254  0.70638  0.35222  1.0000
  C   C4226     1.0  0.96280  0.74760  0.12278  1.0000
  C   C4227     1.0  0.94854  0.74333  0.13110  1.0000
  C   C4228     1.0  0.94499  0.74043  0.14748  1.0000
  C   C4229     1.0  0.95567  0.74161  0.15546  1.0000
  H   H5060     1.0  0.96561  0.74990  0.11011  1.0000
  H   H5061     1.0  0.93397  0.73739  0.15403  1.0000
  H   H5062     1.0  0.95281  0.73928  0.16814  1.0000
  C   C4230     1.0  0.89794  0.70960  0.47206  1.0000
  C   C4231     1.0  0.96387  0.83661  0.23607  1.0000
  C   C4232     1.0  0.95740  0.82831  0.22946  1.0000
  C   C4233     1.0  0.96717  0.81913  0.21900  1.0000
  C   C4234     1.0  0.98339  0.81818  0.21525  1.0000
  C   C4235     1.0  0.81737  0.69252  0.13350  1.0000
  H   H5063     1.0  0.92439  0.50083  0.42709  1.0000
  H   H5064     1.0  0.94487  0.82920  0.23235  1.0000
  H   H5065     1.0  0.84333  0.70270  0.01461  1.0000
  H   H5066     1.0  0.85427  0.70729  0.34691  1.0000
  C   C4236     1.0  0.84867  0.73365  0.38157  1.0000
  C   C4237     1.0  0.86215  0.72907  0.37050  1.0000
  C   C4238     1.0  0.86151  0.73201  0.35466  1.0000
  C   C4239     1.0  0.84735  0.73929  0.34975  1.0000
  C   C4240     1.0  0.83384  0.74397  0.36077  1.0000
  C   C4241     1.0  0.83454  0.74122  0.37663  1.0000
  H   H5067     1.0  0.87308  0.72328  0.37412  1.0000
  H   H5068     1.0  0.87203  0.72840  0.34619  1.0000
  H   H5069     1.0  0.82288  0.74960  0.35712  1.0000
  H   H5070     1.0  0.82406  0.74480  0.38514  1.0000
  H   H5071     1.0  0.86437  0.71549  0.25867  1.0000
  H   H5072     1.0  0.88204  0.49139  0.45937  1.0000
  N   N282      1.0  0.83874  0.72771  0.01336  1.0000
  H   H5073     1.0  0.85413  0.73556  0.25781  1.0000
  C   C4242     1.0  0.82962  0.73215  0.00095  1.0000
  C   C4243     1.0  0.93828  0.72303  0.41434  1.0000
  C   C4244     1.0  0.95305  0.72671  0.40752  1.0000
  C   C4245     1.0  0.91094  0.75437  0.46198  1.0000
  H   H5074     1.0  0.95862  0.69236  0.42360  1.0000
  C   C4246     1.0  0.94402  0.71782  0.44007  1.0000
  C   C4247     1.0  0.93383  0.71846  0.43065  1.0000
  H   H5075     1.0  0.95654  0.73027  0.39490  1.0000
  C   C4248     1.0  0.81221  0.70287  0.25893  1.0000
  H   H5076     1.0  0.94038  0.71462  0.45268  1.0000
  H   H5077     1.0  0.92247  0.71562  0.43598  1.0000
  C   C4249     1.0  0.85780  0.61490  0.30037  1.0000
  C   C4250     1.0  0.84286  0.61651  0.31027  1.0000
  C   C4251     1.0  0.82937  0.62082  0.30389  1.0000
  C   C4252     1.0  0.83075  0.62390  0.28758  1.0000
  C   C4253     1.0  0.84569  0.62226  0.27775  1.0000
  C   C4254     1.0  0.85912  0.61754  0.28415  1.0000
  H   H5078     1.0  0.84170  0.61441  0.32280  1.0000
  H   H5079     1.0  0.81785  0.62198  0.31158  1.0000
  H   H5080     1.0  0.84693  0.62431  0.26522  1.0000
  H   H5081     1.0  0.87064  0.61610  0.27643  1.0000
  C   C4255     1.0  0.93830  0.59544  0.35633  1.0000
  C   C4256     1.0  0.95298  0.58897  0.36031  1.0000
  H   H5082     1.0  0.82029  0.73754  0.03098  1.0000
  C   C4257     1.0  0.80083  0.66071  0.10398  1.0000
  C   C4258     1.0  0.93301  0.61171  0.35285  1.0000
  H   H5083     1.0  0.95712  0.57639  0.36304  1.0000
  H   H5084     1.0  0.92168  0.61681  0.34985  1.0000
  C   C4259     1.0  0.88026  0.65346  0.37249  1.0000
  C   C4260     1.0  0.89237  0.64188  0.37818  1.0000
  C   C4261     1.0  0.89909  0.64423  0.38930  1.0000
  C   C4262     1.0  0.89381  0.65820  0.39470  1.0000
  C   C4263     1.0  0.88206  0.66998  0.38863  1.0000
  C   C4264     1.0  0.87533  0.66760  0.37755  1.0000
  H   H5085     1.0  0.89657  0.63110  0.37407  1.0000
  H   H5086     1.0  0.90829  0.63514  0.39383  1.0000
  H   H5087     1.0  0.87793  0.68082  0.39268  1.0000
  H   H5088     1.0  0.86615  0.67670  0.37310  1.0000
  C   C4265     1.0  0.85231  0.53024  0.39154  1.0000
  C   C4266     1.0  0.85370  0.54131  0.37727  1.0000
  C   C4267     1.0  0.85573  0.55628  0.37656  1.0000
  C   C4268     1.0  0.85586  0.56039  0.39023  1.0000
  C   C4269     1.0  0.85453  0.54931  0.40447  1.0000
  C   C4270     1.0  0.85298  0.53421  0.40510  1.0000
  H   H5089     1.0  0.85314  0.53833  0.36676  1.0000
  H   H5090     1.0  0.85667  0.56478  0.36553  1.0000
  H   H5091     1.0  0.85456  0.55243  0.41510  1.0000
  N   N283      1.0  0.94873  0.66247  0.39469  1.0000
  C   C4271     1.0  0.95669  0.65306  0.38257  1.0000
  C   C4272     1.0  0.93575  0.67465  0.38881  1.0000
  C   C4273     1.0  0.95927  0.67003  0.39850  1.0000
  C   C4274     1.0  0.95347  0.67891  0.41030  1.0000
  N   N284      1.0  0.89669  0.75841  0.44055  1.0000
  H   H5092     1.0  0.89829  0.69291  0.20625  1.0000
  H   H5093     1.0  0.90638  0.56402  0.38574  1.0000
  H   H5094     1.0  0.81918  0.79745  0.24807  1.0000
  H   H5095     1.0  0.94845  0.64746  0.38005  1.0000
  H   H5096     1.0  0.96154  0.66039  0.37119  1.0000
  H   H5097     1.0  0.96630  0.64334  0.38647  1.0000
  H   H5098     1.0  0.94035  0.68342  0.37854  1.0000
  H   H5099     1.0  0.92789  0.66950  0.38518  1.0000
  H   H5100     1.0  0.84538  0.70769  0.03143  1.0000
  C   C4275     1.0  0.87817  0.73545  0.23421  1.0000
  C   C4276     1.0  0.92927  0.53985  0.39727  1.0000
  C   C4277     1.0  0.82067  0.85313  0.26444  1.0000
  C   C4278     1.0  0.83273  0.73783  0.02501  1.0000
  H   H5101     1.0  0.89710  0.73386  0.44635  1.0000
  C   C4279     1.0  0.83352  0.72318  0.98933  1.0000
  H   H5102     1.0  0.80662  0.69145  0.03756  1.0000
  H   H5103     1.0  0.93485  0.64504  0.40638  1.0000
  H   H5104     1.0  0.89175  0.50393  0.47479  1.0000
  C   C4280     1.0  0.80179  0.69516  0.00062  1.0000
  C   C4281     1.0  0.96236  0.59875  0.36075  1.0000
  H   H5105     1.0  0.95149  0.64317  0.41443  1.0000
  H   H5106     1.0  0.84751  0.80592  0.25760  1.0000
  H   H5107     1.0  0.93457  0.77375  0.13790  1.0000
  H   H5108     1.0  0.84518  0.72239  0.25415  1.0000
  C   C4282     1.0  0.83374  0.67416  0.37628  1.0000
  H   H5109     1.0  0.84439  0.71153  0.23523  1.0000
  H   H5110     1.0  0.82366  0.67847  0.34826  1.0000
  H   H5111     1.0  0.85173  0.61417  0.38953  1.0000
  N   N285      1.0  0.83674  0.69407  0.35017  1.0000
  H   H5112     1.0  0.81294  0.72925  0.27864  1.0000
  C   C4283     1.0  0.85241  0.69771  0.34276  1.0000
  C   C4284     1.0  0.83526  0.68173  0.34320  1.0000
  C   C4285     1.0  0.83509  0.68947  0.36741  1.0000
  C   C4286     1.0  0.98137  0.54525  0.41436  1.0000
  C   C4287     1.0  0.79491  0.77251  0.08942  1.0000
  H   H5113     1.0  0.96810  0.50450  0.39843  1.0000
  C   C4288     1.0  0.79597  0.71284  0.02340  1.0000
  C   C4289     1.0  0.81369  0.84240  0.23415  1.0000
  H   H5114     1.0  0.86896  0.63233  0.15012  1.0000
  C   C4290     1.0  0.91131  0.75645  0.44582  1.0000
  H   H5115     1.0  0.79572  0.95304  0.19129  1.0000
  H   H5116     1.0  0.79531  0.78995  0.11769  1.0000
  H   H5117     1.0  0.85398  0.70176  0.32983  1.0000
  Fe  Fe586     1.0  0.79986  0.89278  0.22323  1.0000
  H   H5118     1.0  0.83355  0.75020  0.01949  1.0000
  H   H5119     1.0  0.95936  0.74403  0.20267  1.0000
  H   H5120     1.0  0.83620  0.68574  0.33029  1.0000
  H   H5121     1.0  0.84295  0.84549  0.25034  1.0000
  C   C4291     1.0  0.83463  0.69625  0.39190  1.0000
  H   H5122     1.0  0.82624  0.71021  0.02804  1.0000
  H   H5123     1.0  0.98014  0.77571  0.17310  1.0000
  Fe  Fe587     1.0  0.80212  0.71695  0.05895  1.0000
  N   N286      1.0  0.81803  0.65564  0.17258  1.0000
  H   H5124     1.0  0.82481  0.71145  0.33319  1.0000
  H   H5125     1.0  0.88206  0.77255  0.45697  1.0000
  C   C4292     1.0  0.82971  0.64928  0.15963  1.0000
  C   C4293     1.0  0.84561  0.64309  0.16085  1.0000
  C   C4294     1.0  0.82593  0.64944  0.14542  1.0000
  C   C4295     1.0  0.85694  0.63715  0.14876  1.0000
  C   C4296     1.0  0.83738  0.64356  0.13334  1.0000
  C   C4297     1.0  0.85282  0.63737  0.13503  1.0000
  C   C4298     1.0  0.81728  0.64336  0.18727  1.0000
  H   H5126     1.0  0.88818  0.76024  0.41995  1.0000
  H   H5127     1.0  0.83272  0.67811  0.41275  1.0000
  H   H5128     1.0  0.79228  0.84458  0.25116  1.0000
  H   H5129     1.0  0.96717  0.77219  0.22897  1.0000
  C   C4299     1.0  0.95558  0.85049  0.19278  1.0000
  H   H5130     1.0  0.81328  0.77385  0.09935  1.0000
  H   H5131     1.0  0.81424  0.65406  0.14326  1.0000
  H   H5132     1.0  0.80007  0.68466  0.29694  1.0000
  H   H5133     1.0  0.83420  0.64380  0.12260  1.0000
  H   H5134     1.0  0.86160  0.63272  0.12567  1.0000
  C   C4300     1.0  0.91596  0.51827  0.40799  1.0000
  C   C4301     1.0  0.80612  0.68811  0.01507  1.0000
  C   C4302     1.0  0.89927  0.75936  0.42347  1.0000
  C   C4303     1.0  0.98492  0.67623  0.39477  1.0000
  H   H5135     1.0  0.87803  0.74620  0.44529  1.0000
  C   C4304     1.0  0.85801  0.80474  0.28281  1.0000
  C   C4305     1.0  0.81716  0.74564  0.99960  1.0000
  H   H5136     1.0  0.83358  0.66507  0.17989  1.0000
  S   S1171     1.0  0.79512  0.89344  0.24866  1.0000
  C   C4306     1.0  0.80726  0.69126  0.27171  1.0000
  H   H5137     1.0  0.86688  0.83225  0.27684  1.0000
  C   C4307     1.0  0.97051  0.85391  0.18824  1.0000
  H   H5138     1.0  0.98129  0.88924  0.17047  1.0000
  C   C4308     1.0  0.80184  0.66134  0.16971  1.0000
  C   C4309     1.0  0.79446  0.71100  0.99767  1.0000
  N   N287      1.0  0.91801  0.79009  0.12502  1.0000
  C   C4310     1.0  0.92479  0.78379  0.11057  1.0000
  C   C4311     1.0  0.92172  0.77722  0.13848  1.0000
  C   C4312     1.0  0.90073  0.79471  0.12664  1.0000
  C   C4313     1.0  0.92406  0.80363  0.12493  1.0000
  C   C4314     1.0  0.93528  0.81004  0.11218  1.0000
  C   C4315     1.0  0.91872  0.81080  0.13801  1.0000
  C   C4316     1.0  0.94073  0.82282  0.11267  1.0000
  C   C4317     1.0  0.92431  0.82345  0.13844  1.0000
  C   C4318     1.0  0.93533  0.82944  0.12580  1.0000
  H   H5139     1.0  0.93769  0.77902  0.10913  1.0000
  H   H5140     1.0  0.91970  0.77384  0.11094  1.0000
  H   H5141     1.0  0.92230  0.79275  0.09992  1.0000
  H   H5142     1.0  0.91589  0.78033  0.14999  1.0000
  H   H5143     1.0  0.91790  0.76657  0.13868  1.0000
  H   H5144     1.0  0.89743  0.80483  0.11710  1.0000
  H   H5145     1.0  0.89584  0.78494  0.12618  1.0000
  H   H5146     1.0  0.89451  0.79805  0.13797  1.0000
  H   H5147     1.0  0.94013  0.80532  0.10177  1.0000
  H   H5148     1.0  0.91013  0.80663  0.14807  1.0000
  H   H5149     1.0  0.94933  0.82750  0.10286  1.0000
  H   H5150     1.0  0.91996  0.82862  0.14867  1.0000
  H   H5151     1.0  0.93967  0.83925  0.12618  1.0000
  N   N288      1.0  0.85271  0.66702  0.28051  1.0000
  C   C4319     1.0  0.83851  0.66052  0.28828  1.0000
  C   C4320     1.0  0.84810  0.68144  0.26875  1.0000
  C   C4321     1.0  0.86453  0.65569  0.27188  1.0000
  C   C4322     1.0  0.85936  0.66967  0.29247  1.0000
  C   C4323     1.0  0.86400  0.65703  0.30469  1.0000
  C   C4324     1.0  0.86171  0.68455  0.29226  1.0000
  C   C4325     1.0  0.87082  0.65907  0.31578  1.0000
  C   C4326     1.0  0.86876  0.68640  0.30332  1.0000
  C   C4327     1.0  0.87339  0.67366  0.31499  1.0000
  H   H5152     1.0  0.82965  0.66837  0.29551  1.0000
  H   H5153     1.0  0.83280  0.65887  0.27964  1.0000
  H   H5154     1.0  0.84122  0.64884  0.29611  1.0000
  H   H5155     1.0  0.83904  0.69042  0.27445  1.0000
  H   H5156     1.0  0.84286  0.67905  0.26015  1.0000
  H   H5157     1.0  0.85837  0.68653  0.26178  1.0000
  H   H5158     1.0  0.86845  0.64437  0.27980  1.0000
  H   H5159     1.0  0.85979  0.65288  0.26316  1.0000
  H   H5160     1.0  0.87524  0.66031  0.26553  1.0000
  H   H5161     1.0  0.86263  0.64533  0.30565  1.0000
  H   H5162     1.0  0.85829  0.69492  0.28366  1.0000
  H   H5163     1.0  0.87433  0.64921  0.32495  1.0000
  H   H5164     1.0  0.87072  0.69778  0.30278  1.0000
  H   H5165     1.0  0.87903  0.67500  0.32346  1.0000
  H   H5166     1.0  0.90424  0.70677  0.46087  1.0000
  H   H5167     1.0  0.82042  0.49256  0.36566  1.0000
  C   C4328     1.0  0.88566  0.77301  0.44415  1.0000
  C   C4329     1.0  0.96172  0.78706  0.14244  1.0000
  H   H5168     1.0  0.85776  0.80824  0.29368  1.0000
  H   H5169     1.0  0.84935  0.79728  0.28541  1.0000
  H   H5170     1.0  0.83382  0.66495  0.37091  1.0000
  N   N289      1.0  0.85122  0.61639  0.41269  1.0000
  C   C4330     1.0  0.83934  0.60655  0.41952  1.0000
  C   C4331     1.0  0.85033  0.62335  0.39607  1.0000
  C   C4332     1.0  0.86692  0.60585  0.41316  1.0000
  C   C4333     1.0  0.84895  0.62900  0.42100  1.0000
  C   C4334     1.0  0.85979  0.63892  0.41633  1.0000
  C   C4335     1.0  0.83617  0.63182  0.43385  1.0000
  C   C4336     1.0  0.85823  0.65059  0.42425  1.0000
  C   C4337     1.0  0.83466  0.64363  0.44162  1.0000
  C   C4338     1.0  0.84573  0.65292  0.43689  1.0000
  H   H5171     1.0  0.82728  0.61351  0.41878  1.0000
  H   H5172     1.0  0.84150  0.59707  0.41313  1.0000
  H   H5173     1.0  0.83964  0.60060  0.43194  1.0000
  H   H5174     1.0  0.83885  0.63153  0.39509  1.0000
  C   C4339     1.0  0.95713  0.61503  0.35700  1.0000
  H   H5175     1.0  0.90947  0.54689  0.36040  1.0000
  H   H5176     1.0  0.89135  0.55532  0.40023  1.0000
  H   H5177     1.0  0.94604  0.49664  0.39501  1.0000
  H   H5178     1.0  0.86966  0.63764  0.40656  1.0000
  H   H5179     1.0  0.82725  0.62499  0.43823  1.0000
  S   S1172     1.0  0.87595  0.49414  0.42371  1.0000
  C   C4340     1.0  0.82686  0.83242  0.22735  1.0000
  H   H5180     1.0  0.90754  0.74867  0.42001  1.0000
  H   H5181     1.0  0.85233  0.48901  0.37409  1.0000
  C   C4341     1.0  0.82136  0.48917  0.37813  1.0000
  H   H5182     1.0  0.82869  0.63886  0.19093  1.0000
  H   H5183     1.0  0.84477  0.67104  0.34494  1.0000
  C   C4342     1.0  0.79737  0.96860  0.21919  1.0000
  H   H5184     1.0  0.80878  0.64791  0.19728  1.0000
  Fe  Fe588     1.0  0.79460  0.76766  0.31072  1.0000
  H   H5185     1.0  0.80599  0.83538  0.30163  1.0000
  C   C4343     1.0  0.81117  0.71872  0.27683  1.0000
  H   H5186     1.0  0.98783  0.73669  0.19179  1.0000
  H   H5187     1.0  0.81766  0.86333  0.25539  1.0000
  H   H5188     1.0  0.81233  0.85497  0.22991  1.0000
  C   C4344     1.0  0.93883  0.75312  0.45657  1.0000
  H   H5189     1.0  0.99005  0.64221  0.28870  1.0000
  C   C4345     1.0  0.81014  0.85045  0.27878  1.0000
  H   H5190     1.0  0.80515  0.79110  0.27324  1.0000
  C   C4346     1.0  0.80952  0.70523  0.14042  1.0000
  S   S1173     1.0  0.79721  0.75592  0.29125  1.0000
  H   H5191     1.0  0.84466  0.66196  0.44301  1.0000
  C   C4347     1.0  0.88914  0.74501  0.44889  1.0000
  H   H5192     1.0  0.95344  0.84123  0.18884  1.0000
  S   S1174     1.0  0.80356  0.73777  0.06677  1.0000
  H   H5193     1.0  0.97811  0.61555  0.32499  1.0000
  C   C4348     1.0  0.85528  0.72876  0.00601  1.0000
  N   N290      1.0  0.86022  0.69298  0.12875  1.0000
  C   C4349     1.0  0.86524  0.69495  0.11147  1.0000
  C   C4350     1.0  0.86799  0.70275  0.13347  1.0000
  C   C4351     1.0  0.86604  0.67643  0.13626  1.0000
  C   C4352     1.0  0.84286  0.69715  0.13320  1.0000
  C   C4353     1.0  0.83377  0.68854  0.12989  1.0000
  C   C4354     1.0  0.83449  0.70998  0.14040  1.0000
  C   C4355     1.0  0.87753  0.48992  0.47189  1.0000
  C   C4356     1.0  0.81807  0.71388  0.14392  1.0000
  C   C4357     1.0  0.97614  0.80182  0.11916  1.0000
  H   H5194     1.0  0.86039  0.70708  0.10549  1.0000
  H   H5195     1.0  0.87826  0.69276  0.10749  1.0000
  H   H5196     1.0  0.86119  0.68689  0.10703  1.0000
  H   H5197     1.0  0.86512  0.70148  0.14641  1.0000
  H   H5198     1.0  0.86475  0.71532  0.12780  1.0000
  H   H5199     1.0  0.88100  0.69932  0.12989  1.0000
  H   H5200     1.0  0.86241  0.66806  0.13188  1.0000
  H   H5201     1.0  0.87913  0.67325  0.13402  1.0000
  H   H5202     1.0  0.86169  0.67433  0.14922  1.0000
  H   H5203     1.0  0.83928  0.67892  0.12403  1.0000
  H   H5204     1.0  0.84033  0.71745  0.14311  1.0000
  H   H5205     1.0  0.81197  0.72395  0.14905  1.0000
  S   S1175     1.0  0.97498  0.51760  0.43296  1.0000
  H   H5206     1.0  0.86984  0.79703  0.27977  1.0000
  C   C4358     1.0  0.85668  0.72543  0.25220  1.0000
  S   S1176     1.0  0.80240  0.71010  0.30880  1.0000
  H   H5207     1.0  0.88717  0.72634  0.23982  1.0000
  H   H5208     1.0  0.93834  0.63406  0.35017  1.0000
  H   H5209     1.0  0.87499  0.74546  0.24007  1.0000
  H   H5210     1.0  0.85583  0.82211  0.24509  1.0000
  C   C4359     1.0  0.80928  0.74985  0.98730  1.0000
  H   H5211     1.0  0.97470  0.72869  0.41155  1.0000
  C   C4360     1.0  0.94202  0.65175  0.40900  1.0000
  C   C4361     1.0  0.85325  0.74202  0.22706  1.0000
  H   H5212     1.0  0.88362  0.74000  0.22182  1.0000
  C   C4362     1.0  0.89535  0.53103  0.38669  1.0000
  C   C4363     1.0  0.85640  0.70746  0.22953  1.0000
  H   H5213     1.0  0.84195  0.73876  0.22841  1.0000
  H   H5214     1.0  0.85841  0.74502  0.21425  1.0000
  N   N291      1.0  0.90714  0.54005  0.38551  1.0000
  C   C4364     1.0  0.86822  0.71539  0.22838  1.0000
  S   S1177     1.0  0.97092  0.72153  0.44538  1.0000
  C   C4365     1.0  0.80356  0.81991  0.25196  1.0000
  S   S1178     1.0  0.82211  0.88188  0.20813  1.0000
  C   C4366     1.0  0.97311  0.80728  0.14452  1.0000
  H   H5215     1.0  0.85035  0.68882  0.22367  1.0000
  S   S1179     1.0  0.84917  0.51176  0.39232  1.0000
  H   H5216     1.0  0.85968  0.62996  0.38970  1.0000
  H   H5217     1.0  0.87967  0.81956  0.26425  1.0000
  C   C4367     1.0  0.85970  0.69447  0.22286  1.0000
  C   C4368     1.0  0.97237  0.76429  0.22106  1.0000
  C   C4369     1.0  0.81412  0.83734  0.29040  1.0000
  H   H5218     1.0  0.90741  0.51176  0.40862  1.0000
  H   H5219     1.0  0.98457  0.75189  0.12433  1.0000
  S   S1180     1.0  0.81714  0.70027  0.23962  1.0000
  H   H5220     1.0  0.94795  0.53892  0.40814  1.0000
  C   C4370     1.0  0.97071  0.49623  0.39105  1.0000
  C   C4371     1.0  0.88351  0.70969  0.21984  1.0000
  H   H5221     1.0  0.89312  0.71537  0.21764  1.0000
  S   S1181     1.0  0.98806  0.84611  0.24057  1.0000
  S   S1182     1.0  0.96895  0.62762  0.35647  1.0000
  H   H5222     1.0  0.80282  0.76512  0.08169  1.0000
  H   H5223     1.0  0.79681  0.70863  0.14270  1.0000
  H   H5224     1.0  0.93105  0.55079  0.38923  1.0000
  H   H5225     1.0  0.95079  0.75557  0.43241  1.0000
  H   H5226     1.0  0.96288  0.88225  0.20901  1.0000
  H   H5227     1.0  0.92502  0.54961  0.36690  1.0000
  C   C4372     1.0  0.80082  0.77734  0.09943  1.0000
  H   H5228     1.0  0.83526  0.70478  0.39789  1.0000
  H   H5229     1.0  0.81305  0.75301  0.00802  1.0000
  C   C4373     1.0  0.87481  0.68911  0.21469  1.0000
  H   H5230     1.0  0.94946  0.75145  0.46062  1.0000
  C   C4374     1.0  0.88666  0.69676  0.21311  1.0000
  H   H5231     1.0  0.79737  0.65174  0.16818  1.0000
  H   H5232     1.0  0.94469  0.77830  0.18834  1.0000
  H   H5233     1.0  0.87729  0.67923  0.20927  1.0000
  H   H5234     1.0  0.96877  0.54931  0.41594  1.0000
  C   C4375     1.0  0.92571  0.51177  0.41874  1.0000
  C   C4376     1.0  0.91685  0.54169  0.36931  1.0000
  H   H5235     1.0  0.89021  0.56157  0.38000  1.0000
  H   H5236     1.0  0.95587  0.81594  0.17183  1.0000
  C   C4377     1.0  0.82860  0.82679  0.28768  1.0000
  C   C4378     1.0  0.93720  0.51920  0.41876  1.0000
  H   H5237     1.0  0.93826  0.78396  0.17034  1.0000
  H   H5238     1.0  0.96869  0.78369  0.18988  1.0000
  H   H5239     1.0  0.84940  0.64274  0.17123  1.0000
  H   H5240     1.0  0.83196  0.65848  0.39905  1.0000
  C   C4379     1.0  0.92608  0.75703  0.43524  1.0000
  C   C4380     1.0  0.97377  0.86564  0.19370  1.0000
  H   H5241     1.0  0.98285  0.53378  0.45413  1.0000
  C   C4381     1.0  0.94892  0.78028  0.17539  1.0000
  H   H5242     1.0  0.90102  0.51912  0.38440  1.0000
  H   H5243     1.0  0.86110  0.72036  0.99822  1.0000
  C   C4382     1.0  0.83550  0.70033  0.37577  1.0000
  H   H5244     1.0  0.95573  0.76868  0.17290  1.0000
  H   H5245     1.0  0.87469  0.77522  0.43990  1.0000
  C   C4383     1.0  0.94905  0.80678  0.17440  1.0000
  H   H5246     1.0  0.86866  0.59569  0.40780  1.0000
  H   H5247     1.0  0.94941  0.76157  0.22149  1.0000
  H   H5248     1.0  0.79676  0.94426  0.22293  1.0000
  C   C4384     1.0  0.93901  0.53318  0.40802  1.0000
  H   H5249     1.0  0.79135  0.71655  0.98648  1.0000
  C   C4385     1.0  0.83845  0.71139  0.02216  1.0000
  C   C4386     1.0  0.98633  0.48983  0.38372  1.0000
  H   H5250     1.0  0.94442  0.80458  0.18727  1.0000
  H   H5251     1.0  0.95628  0.84385  0.24405  1.0000
  C   C4387     1.0  0.80603  0.70729  0.28964  1.0000
  C   C4388     1.0  0.97239  0.78647  0.17688  1.0000
  C   C4389     1.0  0.96126  0.87340  0.20414  1.0000
  H   H5252     1.0  0.83881  0.80851  0.22722  1.0000
  C   C4390     1.0  0.96192  0.75836  0.21672  1.0000
  N   N292      1.0  0.95870  0.79224  0.16936  1.0000
  C   C4391     1.0  0.97355  0.74872  0.13080  1.0000
  H   H5253     1.0  0.86242  0.72612  0.01499  1.0000
  Fe  Fe589     1.0  0.79853  0.65838  0.22734  1.0000
  C   C4392     1.0  0.89846  0.55588  0.38803  1.0000
  H   H5254     1.0  0.88589  0.74372  0.46181  1.0000
  C   C4393     1.0  0.96321  0.68594  0.41432  1.0000
  C   C4394     1.0  0.83279  0.67020  0.39249  1.0000
  H   H5255     1.0  0.83093  0.81686  0.29715  1.0000
  H   H5256     1.0  0.79901  0.67209  0.08018  1.0000
  H   H5257     1.0  0.97933  0.84697  0.18071  1.0000
  C   C4395     1.0  0.82451  0.70823  0.34600  1.0000
  H   H5258     1.0  0.88779  0.53692  0.37802  1.0000
  H   H5259     1.0  0.98089  0.66227  0.38184  1.0000
  H   H5260     1.0  0.93879  0.81171  0.16873  1.0000
  H   H5261     1.0  0.82493  0.64552  0.45148  1.0000
  C   C4396     1.0  0.80224  0.83630  0.24629  1.0000
  C   C4397     1.0  0.83517  0.84276  0.26164  1.0000
  C   C4398     1.0  0.81716  0.81004  0.24473  1.0000
  H   H5262     1.0  0.90397  0.76979  0.41628  1.0000
  H   H5263     1.0  0.88723  0.52985  0.39844  1.0000
  H   H5264     1.0  0.81349  0.67525  0.18334  1.0000
  S   S1183     1.0  0.80143  0.74512  0.32813  1.0000
  C   C4399     1.0  0.82859  0.81627  0.23263  1.0000
  H   H5265     1.0  0.97638  0.63075  0.30037  1.0000
  C   C4400     1.0  0.97001  0.74564  0.14719  1.0000
  H   H5266     1.0  0.98881  0.51757  0.38894  1.0000
  H   H5267     1.0  0.98110  0.80385  0.10667  1.0000
  H   H5268     1.0  0.97368  0.59370  0.36380  1.0000
  C   C4401     1.0  0.80323  0.69694  0.02647  1.0000
  H   H5269     1.0  0.81077  0.68612  0.13025  1.0000
  H   H5270     1.0  0.83687  0.71201  0.36979  1.0000
  H   H5271     1.0  0.86195  0.68731  0.34548  1.0000
  C   C4402     1.0  0.98011  0.83548  0.23247  1.0000
  C   C4403     1.0  0.95885  0.72141  0.43323  1.0000
  H   H5272     1.0  0.94472  0.51412  0.42714  1.0000
  H   H5273     1.0  0.86722  0.83708  0.25632  1.0000
  C   C4404     1.0  0.83961  0.82925  0.27315  1.0000
  H   H5274     1.0  0.97968  0.79528  0.17396  1.0000
  Fe  Fe590     1.0  0.80618  0.73381  0.30769  1.0000
  H   H5275     1.0  0.83564  0.83724  0.21786  1.0000
  C   C4405     1.0  0.79143  0.71976  0.00908  1.0000
  H   H5276     1.0  0.80004  0.64746  0.12774  1.0000
  C   C4406     1.0  0.96338  0.72574  0.41692  1.0000
  Fe  Fe591     1.0  0.86030  0.49177  0.40964  1.0000
  H   H5277     1.0  0.86685  0.65783  0.42061  1.0000
  H   H5278     1.0  0.90017  0.75393  0.47078  1.0000
  S   S1184     1.0  0.80565  0.68408  0.98635  1.0000
  H   H5279     1.0  0.86848  0.60112  0.42543  1.0000
  S   S1185     1.0  0.98269  0.74735  0.15794  1.0000
  H   H5280     1.0  0.98633  0.69027  0.40966  1.0000
  C   C4407     1.0  0.97536  0.66890  0.39080  1.0000
  H   H5281     1.0  0.81769  0.72569  0.25170  1.0000
  Fe  Fe592     1.0  0.79102  0.72651  0.09026  1.0000
  H   H5282     1.0  0.98621  0.56717  0.39948  1.0000
  C   C4408     1.0  0.83326  0.68122  0.40026  1.0000
  H   H5283     1.0  0.97619  0.81371  0.15119  1.0000
  H   H5284     1.0  0.80563  0.96877  0.20802  1.0000
  H   H5285     1.0  0.80593  0.68056  0.26979  1.0000
  C   C4409     1.0  0.82281  0.66895  0.17500  1.0000
  H   H5286     1.0  0.86828  0.80474  0.25299  1.0000
  C   C4410     1.0  0.96430  0.79555  0.15211  1.0000
  C   C4411     1.0  0.97878  0.81045  0.12828  1.0000
  S   S1186     1.0  0.79281  0.72477  0.03677  1.0000
  H   H5287     1.0  0.97615  0.64356  0.32211  1.0000
  H   H5288     1.0  0.97970  0.89476  0.18844  1.0000
  H   H5289     1.0  0.93716  0.87560  0.21695  1.0000
  N   N293      1.0  0.98917  0.87017  0.18859  1.0000
  H   H5290     1.0  0.79468  0.79141  0.25888  1.0000
  C   C4412     1.0  0.79466  0.66398  0.09065  1.0000
  C   C4413     1.0  0.79236  0.95474  0.22760  1.0000
  N   N294      1.0  0.79115  0.81376  0.26475  1.0000
  C   C4414     1.0  0.79533  0.65004  0.11741  1.0000
  C   C4415     1.0  0.98887  0.76019  0.21511  1.0000
  C   C4416     1.0  0.98916  0.63074  0.29686  1.0000
  C   C4417     1.0  0.98706  0.88692  0.18046  1.0000
  H   H5291     1.0  0.79890  0.85861  0.28084  1.0000
  H   H5292     1.0  0.98589  0.81912  0.12286  1.0000
  C   C4418     1.0  0.98353  0.74427  0.20013  1.0000
  H   H5293     1.0  0.98431  0.78688  0.22628  1.0000
  H   H5294     1.0  0.79338  0.66584  0.17980  1.0000
  H   H5295     1.0  0.91660  0.71815  0.47499  1.0000
  H   H5296     1.0  0.98690  0.58543  0.43429  1.0000
  S   S1187     1.0  0.98730  0.60284  0.39274  1.0000
  C   C4419     1.0  0.98987  0.82619  0.22210  1.0000
  H   H5297     1.0  0.80479  0.97705  0.25858  1.0000
  H   H5298     1.0  0.98793  0.87427  0.21142  1.0000
  Fe  Fe593     1.0  0.98400  0.49200  0.44304  1.0000
  C   C4420     1.0  0.79167  0.98224  0.22516  1.0000
  H   H5299     1.0  0.95394  0.70418  0.47664  1.0000
  Fe  Fe594     1.0  0.98955  0.61671  0.36796  1.0000
  H   H5300     1.0  0.83778  0.48348  0.39987  1.0000
  C   C4421     1.0  0.98775  0.52993  0.42158  1.0000
  H   H5301     1.0  0.98718  0.76995  0.24201  1.0000
  C   C4422     1.0  0.98915  0.64189  0.31804  1.0000
  H   H5302     1.0  0.98776  0.55858  0.43769  1.0000
  H   H5303     1.0  0.79149  0.57340  0.09443  1.0000
  H   H5304     1.0  0.99027  0.50260  0.40666  1.0000
  H   H5305     1.0  0.79144  0.59253  0.08178  1.0000
  C   C4423     1.0  0.79067  0.78642  0.10974  1.0000
  H   H5306     1.0  0.84883  0.48343  0.35835  1.0000
  C   C4424     1.0  0.81825  0.87138  0.76078  1.0000
  C   C4425     1.0  0.80070  0.69365  0.84075  1.0000
  C   C4426     1.0  0.98685  0.81065  0.78265  1.0000
  H   H5307     1.0  0.96219  0.80930  0.80749  1.0000
  H   H5308     1.0  0.84249  0.52021  0.64622  1.0000
  H   H5309     1.0  0.82833  0.72010  0.96876  1.0000
  H   H5310     1.0  0.98522  0.76542  0.49288  1.0000
  H   H5311     1.0  0.93002  0.82595  0.73049  1.0000
  Fe  Fe595     1.0  0.87885  0.50877  0.56319  1.0000
  S   S1188     1.0  0.87368  0.53228  0.56975  1.0000
  C   C4427     1.0  0.96698  0.79900  0.80194  1.0000
  H   H5312     1.0  0.82073  0.53193  0.58536  1.0000
  H   H5313     1.0  0.94796  0.52501  0.55602  1.0000
  H   H5314     1.0  0.97476  0.77575  0.53077  1.0000
  Fe  Fe596     1.0  0.88302  0.57108  0.63243  1.0000
  S   S1189     1.0  0.88217  0.57634  0.65554  1.0000
  S   S1190     1.0  0.87848  0.54784  0.63197  1.0000
  Fe  Fe597     1.0  0.89540  0.60003  0.61363  1.0000
  S   S1191     1.0  0.89584  0.60771  0.63477  1.0000
  S   S1192     1.0  0.90548  0.61256  0.58949  1.0000
  Fe  Fe598     1.0  0.90557  0.58244  0.64396  1.0000
  S   S1193     1.0  0.92636  0.57346  0.65533  1.0000
  Fe  Fe599     1.0  0.87236  0.60135  0.64477  1.0000
  S   S1194     1.0  0.85350  0.61900  0.65692  1.0000
  S   S1195     1.0  0.90731  0.57519  0.62185  1.0000
  S   S1196     1.0  0.87099  0.59567  0.62255  1.0000
  Fe  Fe600     1.0  0.88823  0.70085  0.56137  1.0000
  S   S1197     1.0  0.87867  0.72551  0.54939  1.0000
  S   S1198     1.0  0.87239  0.68402  0.57354  1.0000
  Fe  Fe601     1.0  0.92132  0.70558  0.55487  1.0000
  S   S1199     1.0  0.91463  0.73060  0.54262  1.0000
  S   S1200     1.0  0.94643  0.69344  0.55571  1.0000
  Fe  Fe602     1.0  0.89304  0.73195  0.56227  1.0000
  S   S1201     1.0  0.88643  0.75140  0.57552  1.0000
  Fe  Fe603     1.0  0.90098  0.72185  0.53091  1.0000
  S   S1202     1.0  0.90579  0.72796  0.50434  1.0000
  S   S1203     1.0  0.90107  0.70745  0.57546  1.0000
  S   S1204     1.0  0.90922  0.69668  0.54190  1.0000
  H   H5315     1.0  0.92893  0.50800  0.59593  1.0000
  C   C4428     1.0  0.83144  0.52236  0.58448  1.0000
  H   H5316     1.0  0.86338  0.85535  0.75917  1.0000
  C   C4429     1.0  0.81859  0.70986  0.83817  1.0000
  C   C4430     1.0  0.80993  0.90882  0.70912  1.0000
  Fe  Fe604     1.0  0.80913  0.70130  0.92783  1.0000
  H   H5317     1.0  0.80704  0.74386  0.96684  1.0000
  S   S1205     1.0  0.82815  0.69122  0.90907  1.0000
  S   S1206     1.0  0.80438  0.69281  0.71996  1.0000
  H   H5318     1.0  0.84665  0.67574  0.85525  1.0000
  H   H5319     1.0  0.98182  0.52303  0.62374  1.0000
  H   H5320     1.0  0.79811  0.96252  0.72995  1.0000
  S   S1207     1.0  0.81318  0.71252  0.94501  1.0000
  C   C4431     1.0  0.85091  0.85983  0.75960  1.0000
  C   C4432     1.0  0.87637  0.84781  0.65073  1.0000
  C   C4433     1.0  0.93953  0.48797  0.50785  1.0000
  C   C4434     1.0  0.86595  0.48617  0.50442  1.0000
  H   H5321     1.0  0.90460  0.53922  0.57108  1.0000
  Fe  Fe605     1.0  0.88384  0.82403  0.70306  1.0000
  S   S1208     1.0  0.86316  0.83028  0.72202  1.0000
  S   S1209     1.0  0.88421  0.80657  0.68970  1.0000
  Fe  Fe606     1.0  0.89956  0.84915  0.70453  1.0000
  S   S1210     1.0  0.87968  0.85795  0.72331  1.0000
  S   S1211     1.0  0.92140  0.85839  0.69193  1.0000
  Fe  Fe607     1.0  0.88093  0.83221  0.73379  1.0000
  S   S1212     1.0  0.87956  0.82116  0.75935  1.0000
  Fe  Fe608     1.0  0.86382  0.85510  0.70958  1.0000
  S   S1213     1.0  0.84181  0.86952  0.70156  1.0000
  S   S1214     1.0  0.90183  0.82366  0.71585  1.0000
  S   S1215     1.0  0.88362  0.84857  0.68996  1.0000
  Fe  Fe609     1.0  0.90337  0.71549  0.82012  1.0000
  S   S1216     1.0  0.88746  0.73920  0.81533  1.0000
  S   S1217     1.0  0.92350  0.70961  0.83225  1.0000
  Fe  Fe610     1.0  0.88406  0.69990  0.80892  1.0000
  S   S1218     1.0  0.86668  0.72231  0.80317  1.0000
  S   S1219     1.0  0.87966  0.67743  0.80711  1.0000
  Fe  Fe611     1.0  0.88782  0.73290  0.79300  1.0000
  S   S1220     1.0  0.89025  0.74780  0.76854  1.0000
  Fe  Fe612     1.0  0.86785  0.72629  0.82601  1.0000
  S   S1221     1.0  0.84592  0.73565  0.84273  1.0000
  S   S1222     1.0  0.90531  0.71000  0.79697  1.0000
  S   S1223     1.0  0.88375  0.70306  0.83252  1.0000
  Fe  Fe613     1.0  0.81551  0.78408  0.63697  1.0000
  S   S1224     1.0  0.83466  0.78375  0.64828  1.0000
  S   S1225     1.0  0.81830  0.77465  0.61555  1.0000
  Fe  Fe614     1.0  0.81926  0.80591  0.65509  1.0000
  S   S1226     1.0  0.82623  0.82693  0.65728  1.0000
  Fe  Fe615     1.0  0.82027  0.77171  0.67017  1.0000
  S   S1227     1.0  0.83393  0.75177  0.68530  1.0000
  Fe  Fe616     1.0  0.85320  0.66771  0.74142  1.0000
  S   S1228     1.0  0.82899  0.67985  0.75120  1.0000
  S   S1229     1.0  0.87353  0.67820  0.73938  1.0000
  Fe  Fe617     1.0  0.84198  0.64178  0.73613  1.0000
  S   S1230     1.0  0.81650  0.65129  0.74617  1.0000
  S   S1231     1.0  0.85286  0.61977  0.72680  1.0000
  Fe  Fe618     1.0  0.82190  0.67439  0.73210  1.0000
  H   H5322     1.0  0.91360  0.55814  0.57394  1.0000
  Fe  Fe619     1.0  0.82530  0.65609  0.76486  1.0000
  H   H5323     1.0  0.87799  0.84212  0.66285  1.0000
  S   S1232     1.0  0.84660  0.66460  0.72065  1.0000
  S   S1233     1.0  0.85029  0.64421  0.75634  1.0000
  H   H5324     1.0  0.83874  0.68841  0.68862  1.0000
  C   C4435     1.0  0.80080  0.86157  0.69813  1.0000
  H   H5325     1.0  0.82376  0.89371  0.75986  1.0000
  C   C4436     1.0  0.98184  0.69323  0.48772  1.0000
  H   H5326     1.0  0.79404  0.68194  0.75504  1.0000
  H   H5327     1.0  0.82333  0.69644  0.77888  1.0000
  C   C4437     1.0  0.87968  0.67695  0.78793  1.0000
  C   C4438     1.0  0.88423  0.68872  0.77514  1.0000
  C   C4439     1.0  0.88306  0.68863  0.76007  1.0000
  C   C4440     1.0  0.87668  0.67723  0.75790  1.0000
  C   C4441     1.0  0.87235  0.66540  0.77069  1.0000
  C   C4442     1.0  0.87414  0.66509  0.78559  1.0000
  H   H5328     1.0  0.88865  0.69786  0.77685  1.0000
  H   H5329     1.0  0.88670  0.69766  0.75017  1.0000
  H   H5330     1.0  0.86780  0.65635  0.76911  1.0000
  H   H5331     1.0  0.87086  0.65583  0.79540  1.0000
  C   C4443     1.0  0.86809  0.81231  0.68071  1.0000
  C   C4444     1.0  0.85605  0.82524  0.68381  1.0000
  C   C4445     1.0  0.84323  0.82970  0.67656  1.0000
  C   C4446     1.0  0.84228  0.82113  0.66637  1.0000
  C   C4447     1.0  0.85425  0.80814  0.66336  1.0000
  C   C4448     1.0  0.86722  0.80385  0.67038  1.0000
  H   H5332     1.0  0.85662  0.83190  0.69170  1.0000
  H   H5333     1.0  0.83399  0.83971  0.67900  1.0000
  H   H5334     1.0  0.85371  0.80160  0.65534  1.0000
  H   H5335     1.0  0.87656  0.79392  0.66784  1.0000
  C   C4449     1.0  0.88222  0.80077  0.76217  1.0000
  C   C4450     1.0  0.88526  0.79398  0.74930  1.0000
  C   C4451     1.0  0.88792  0.77771  0.75142  1.0000
  C   C4452     1.0  0.88718  0.76812  0.76646  1.0000
  C   C4453     1.0  0.88401  0.77487  0.77939  1.0000
  C   C4454     1.0  0.88164  0.79119  0.77722  1.0000
  H   H5336     1.0  0.88563  0.80123  0.73766  1.0000
  H   H5337     1.0  0.89058  0.77255  0.74136  1.0000
  H   H5338     1.0  0.88339  0.76756  0.79103  1.0000
  H   H5339     1.0  0.87928  0.79638  0.78722  1.0000
  C   C4455     1.0  0.81551  0.91385  0.71931  1.0000
  C   C4456     1.0  0.82976  0.90560  0.72356  1.0000
  C   C4457     1.0  0.83810  0.89194  0.71812  1.0000
  C   C4458     1.0  0.83238  0.88687  0.70806  1.0000
  C   C4459     1.0  0.81853  0.89554  0.70326  1.0000
  C   C4460     1.0  0.94207  0.69342  0.50686  1.0000
  H   H5340     1.0  0.87636  0.64041  0.70326  1.0000
  H   H5341     1.0  0.84886  0.88531  0.72178  1.0000
  H   H5342     1.0  0.81436  0.89191  0.69508  1.0000
  H   H5343     1.0  0.92051  0.54204  0.55430  1.0000
  H   H5344     1.0  0.85705  0.88534  0.67028  1.0000
  C   C4461     1.0  0.84251  0.69045  0.67595  1.0000
  H   H5345     1.0  0.95658  0.52385  0.66356  1.0000
  N   N295      1.0  0.95346  0.70377  0.50064  1.0000
  H   H5346     1.0  0.95950  0.69085  0.79548  1.0000
  C   C4462     1.0  0.97871  0.78977  0.77801  1.0000
  C   C4463     1.0  0.83196  0.70350  0.89039  1.0000
  C   C4464     1.0  0.82425  0.71926  0.88740  1.0000
  C   C4465     1.0  0.82835  0.72899  0.87260  1.0000
  C   C4466     1.0  0.84013  0.72299  0.86077  1.0000
  C   C4467     1.0  0.84715  0.70703  0.86352  1.0000
  C   C4468     1.0  0.84323  0.69736  0.87833  1.0000
  H   H5347     1.0  0.81547  0.72407  0.89660  1.0000
  H   H5348     1.0  0.82266  0.74128  0.87048  1.0000
  H   H5349     1.0  0.85566  0.70213  0.85429  1.0000
  H   H5350     1.0  0.84904  0.68511  0.88053  1.0000
  C   C4469     1.0  0.94055  0.50972  0.62845  1.0000
  C   C4470     1.0  0.79835  0.63471  0.80198  1.0000
  N   N296      1.0  0.86887  0.86475  0.64939  1.0000
  H   H5351     1.0  0.91513  0.87406  0.65454  1.0000
  C   C4471     1.0  0.97216  0.70012  0.56042  1.0000
  C   C4472     1.0  0.83909  0.66869  0.85457  1.0000
  S   S1234     1.0  0.96670  0.75814  0.81685  1.0000
  H   H5352     1.0  0.85106  0.49312  0.60900  1.0000
  H   H5353     1.0  0.95790  0.67241  0.58832  1.0000
  C   C4473     1.0  0.79814  0.65028  0.80132  1.0000
  C   C4474     1.0  0.96091  0.49303  0.51610  1.0000
  H   H5354     1.0  0.87460  0.61617  0.57574  1.0000
  C   C4475     1.0  0.95405  0.74511  0.82192  1.0000
  C   C4476     1.0  0.94074  0.74917  0.81545  1.0000
  C   C4477     1.0  0.93107  0.73846  0.81871  1.0000
  C   C4478     1.0  0.93462  0.72375  0.82859  1.0000
  C   C4479     1.0  0.94764  0.71992  0.83540  1.0000
  C   C4480     1.0  0.95732  0.73056  0.83207  1.0000
  H   H5355     1.0  0.93807  0.76046  0.80767  1.0000
  H   H5356     1.0  0.92104  0.74151  0.81339  1.0000
  H   H5357     1.0  0.95036  0.70861  0.84315  1.0000
  H   H5358     1.0  0.91260  0.65496  0.69766  1.0000
  C   C4481     1.0  0.94924  0.87213  0.71902  1.0000
  C   C4482     1.0  0.95586  0.86986  0.70378  1.0000
  C   C4483     1.0  0.94710  0.86583  0.69556  1.0000
  C   C4484     1.0  0.93180  0.86372  0.70263  1.0000
  C   C4485     1.0  0.92524  0.86569  0.71799  1.0000
  C   C4486     1.0  0.93387  0.87014  0.72607  1.0000
  H   H5359     1.0  0.96760  0.87161  0.69817  1.0000
  H   H5360     1.0  0.95221  0.86438  0.68367  1.0000
  H   H5361     1.0  0.91342  0.86413  0.72349  1.0000
  H   H5362     1.0  0.92865  0.87203  0.73781  1.0000
  C   C4487     1.0  0.86746  0.75723  0.58690  1.0000
  C   C4488     1.0  0.86545  0.76670  0.59746  1.0000
  C   C4489     1.0  0.85049  0.77194  0.60643  1.0000
  C   C4490     1.0  0.83734  0.76806  0.60465  1.0000
  C   C4491     1.0  0.83932  0.75858  0.59410  1.0000
  C   C4492     1.0  0.85435  0.75301  0.58540  1.0000
  H   H5363     1.0  0.87553  0.77006  0.59863  1.0000
  H   H5364     1.0  0.84914  0.77931  0.61443  1.0000
  H   H5365     1.0  0.82921  0.75554  0.59262  1.0000
  H   H5366     1.0  0.85576  0.74581  0.57723  1.0000
  C   C4493     1.0  0.95582  0.70431  0.56194  1.0000
  H   H5367     1.0  0.84619  0.85911  0.65354  1.0000
  H   H5368     1.0  0.98347  0.80323  0.72425  1.0000
  C   C4494     1.0  0.89704  0.71927  0.49485  1.0000
  C   C4495     1.0  0.89403  0.87022  0.65103  1.0000
  C   C4496     1.0  0.94712  0.71723  0.56829  1.0000
  H   H5369     1.0  0.93988  0.63033  0.62373  1.0000
  H   H5370     1.0  0.85495  0.69704  0.63073  1.0000
  H   H5371     1.0  0.94790  0.73598  0.57802  1.0000
  H   H5372     1.0  0.93449  0.72047  0.56962  1.0000
  C   C4497     1.0  0.85386  0.61938  0.67615  1.0000
  C   C4498     1.0  0.86287  0.60701  0.68514  1.0000
  C   C4499     1.0  0.86234  0.60722  0.70068  1.0000
  C   C4500     1.0  0.85316  0.61999  0.70723  1.0000
  C   C4501     1.0  0.84444  0.63256  0.69812  1.0000
  C   C4502     1.0  0.84465  0.63216  0.68269  1.0000
  H   H5373     1.0  0.86994  0.59708  0.68026  1.0000
  H   H5374     1.0  0.86902  0.59740  0.70768  1.0000
  H   H5375     1.0  0.83723  0.64240  0.70308  1.0000
  H   H5376     1.0  0.83756  0.64169  0.67583  1.0000
  C   C4503     1.0  0.93625  0.58763  0.65493  1.0000
  C   C4504     1.0  0.95226  0.58309  0.65506  1.0000
  C   C4505     1.0  0.92820  0.56395  0.58493  1.0000
  C   C4506     1.0  0.93640  0.61406  0.65561  1.0000
  C   C4507     1.0  0.92832  0.60316  0.65513  1.0000
  C   C4508     1.0  0.85249  0.68037  0.65239  1.0000
  H   H5377     1.0  0.93019  0.62598  0.65609  1.0000
  H   H5378     1.0  0.91586  0.60662  0.65550  1.0000
  C   C4509     1.0  0.89700  0.63267  0.58621  1.0000
  C   C4510     1.0  0.90456  0.64301  0.57391  1.0000
  C   C4511     1.0  0.89738  0.65896  0.57043  1.0000
  C   C4512     1.0  0.88238  0.66450  0.57892  1.0000
  C   C4513     1.0  0.87496  0.65421  0.59144  1.0000
  C   C4514     1.0  0.88237  0.63835  0.59525  1.0000
  H   H5379     1.0  0.91594  0.63865  0.56701  1.0000
  H   H5380     1.0  0.90335  0.66681  0.56098  1.0000
  H   H5381     1.0  0.86340  0.65845  0.59810  1.0000
  H   H5382     1.0  0.87650  0.63041  0.60480  1.0000
  H   H5383     1.0  0.83870  0.50436  0.63042  1.0000
  C   C4515     1.0  0.88199  0.71637  0.50138  1.0000
  H   H5384     1.0  0.84472  0.74583  0.71484  1.0000
  H   H5385     1.0  0.82579  0.62396  0.83995  1.0000
  H   H5386     1.0  0.87568  0.71917  0.51258  1.0000
  C   C4516     1.0  0.86965  0.88265  0.66621  1.0000
  C   C4517     1.0  0.95471  0.72597  0.57310  1.0000
  C   C4518     1.0  0.95268  0.51471  0.63106  1.0000
  H   H5387     1.0  0.92627  0.84332  0.75810  1.0000
  S   S1235     1.0  0.81346  0.65931  0.78951  1.0000
  H   H5388     1.0  0.86292  0.86676  0.62747  1.0000
  H   H5389     1.0  0.95026  0.85233  0.75590  1.0000
  C   C4519     1.0  0.96624  0.69302  0.80290  1.0000
  C   C4520     1.0  0.95565  0.82388  0.70363  1.0000
  H   H5390     1.0  0.95065  0.52065  0.59096  1.0000
  H   H5391     1.0  0.97148  0.83522  0.76763  1.0000
  C   C4521     1.0  0.87566  0.53606  0.58708  1.0000
  C   C4522     1.0  0.87814  0.52416  0.60026  1.0000
  C   C4523     1.0  0.87924  0.52790  0.61389  1.0000
  C   C4524     1.0  0.87827  0.54347  0.61430  1.0000
  C   C4525     1.0  0.87633  0.55527  0.60094  1.0000
  C   C4526     1.0  0.87481  0.55160  0.58748  1.0000
  H   H5392     1.0  0.87906  0.51213  0.60007  1.0000
  H   H5393     1.0  0.88070  0.51873  0.62422  1.0000
  H   H5394     1.0  0.87552  0.56729  0.60117  1.0000
  H   H5395     1.0  0.87296  0.56087  0.57731  1.0000
  H   H5396     1.0  0.95796  0.72325  0.50640  1.0000
  H   H5397     1.0  0.86295  0.70875  0.49791  1.0000
  H   H5398     1.0  0.90198  0.59086  0.70001  1.0000
  H   H5399     1.0  0.89107  0.64917  0.68855  1.0000
  C   C4527     1.0  0.96343  0.55052  0.62933  1.0000
  C   C4528     1.0  0.96140  0.83046  0.76909  1.0000
  N   N297      1.0  0.96215  0.53467  0.63905  1.0000
  C   C4529     1.0  0.92471  0.80458  0.74505  1.0000
  H   H5400     1.0  0.96109  0.75513  0.54597  1.0000
  H   H5401     1.0  0.84761  0.49338  0.59057  1.0000
  H   H5402     1.0  0.90077  0.86310  0.64269  1.0000
  C   C4530     1.0  0.95247  0.60951  0.65552  1.0000
  C   C4531     1.0  0.98463  0.74477  0.51240  1.0000
  H   H5403     1.0  0.96435  0.68561  0.52669  1.0000
  C   C4532     1.0  0.85734  0.72309  0.74702  1.0000
  C   C4533     1.0  0.84957  0.72832  0.73471  1.0000
  H   H5404     1.0  0.87901  0.65891  0.70388  1.0000
  H   H5405     1.0  0.84850  0.66593  0.67565  1.0000
  C   C4534     1.0  0.93727  0.51303  0.51448  1.0000
  C   C4535     1.0  0.82064  0.50606  0.60843  1.0000
  H   H5406     1.0  0.79188  0.72262  0.70136  1.0000
  C   C4536     1.0  0.95158  0.71233  0.48457  1.0000
  H   H5407     1.0  0.85157  0.88339  0.75888  1.0000
  H   H5408     1.0  0.96888  0.77556  0.51366  1.0000
  H   H5409     1.0  0.83795  0.64508  0.83232  1.0000
  H   H5410     1.0  0.96694  0.53937  0.65906  1.0000
  C   C4537     1.0  0.84420  0.87558  0.75954  1.0000
  H   H5411     1.0  0.80972  0.51506  0.61114  1.0000
  S   S1236     1.0  0.80203  0.77052  0.65858  1.0000
  H   H5412     1.0  0.95005  0.83749  0.72811  1.0000
  H   H5413     1.0  0.91304  0.52447  0.56019  1.0000
  C   C4538     1.0  0.93426  0.53833  0.63692  1.0000
  C   C4539     1.0  0.94934  0.71559  0.51038  1.0000
  H   H5414     1.0  0.97308  0.68151  0.80810  1.0000
  H   H5415     1.0  0.91601  0.51513  0.62794  1.0000
  H   H5416     1.0  0.96661  0.82524  0.73598  1.0000
  H   H5417     1.0  0.93069  0.58728  0.68983  1.0000
  C   C4540     1.0  0.79225  0.86777  0.77542  1.0000
  H   H5418     1.0  0.95943  0.66026  0.57504  1.0000
  C   C4541     1.0  0.87481  0.71045  0.49308  1.0000
  H   H5419     1.0  0.81153  0.71072  0.79015  1.0000
  H   H5420     1.0  0.94897  0.71017  0.52299  1.0000
  N   N298      1.0  0.95720  0.64826  0.59940  1.0000
  H   H5421     1.0  0.84166  0.52749  0.57725  1.0000
  H   H5422     1.0  0.94289  0.49850  0.62540  1.0000
  C   C4542     1.0  0.96313  0.64876  0.61287  1.0000
  S   S1237     1.0  0.79647  0.68448  0.94666  1.0000
  H   H5423     1.0  0.88153  0.87113  0.62556  1.0000
  H   H5424     1.0  0.97892  0.69005  0.55561  1.0000
  C   C4543     1.0  0.92229  0.53327  0.63417  1.0000
  C   C4544     1.0  0.84048  0.52559  0.63452  1.0000
  H   H5425     1.0  0.89906  0.66131  0.71433  1.0000
  C   C4545     1.0  0.80365  0.72256  0.70190  1.0000
  C   C4546     1.0  0.84794  0.67778  0.66867  1.0000
  H   H5426     1.0  0.80022  0.63422  0.87722  1.0000
  N   N299      1.0  0.97994  0.75287  0.52557  1.0000
  C   C4547     1.0  0.82554  0.85543  0.76065  1.0000
  H   H5427     1.0  0.84594  0.72217  0.70356  1.0000
  C   C4548     1.0  0.88577  0.62806  0.55324  1.0000
  C   C4549     1.0  0.94603  0.78189  0.74618  1.0000
  C   C4550     1.0  0.95642  0.79089  0.73576  1.0000
  H   H5428     1.0  0.88805  0.84566  0.64270  1.0000
  H   H5429     1.0  0.97279  0.59042  0.65524  1.0000
  H   H5430     1.0  0.86920  0.84127  0.64786  1.0000
  H   H5431     1.0  0.80325  0.74601  0.68790  1.0000
  H   H5432     1.0  0.82983  0.51468  0.57767  1.0000
  C   C4551     1.0  0.79523  0.89377  0.76217  1.0000
  C   C4552     1.0  0.92793  0.48578  0.48768  1.0000
  S   S1238     1.0  0.98016  0.73402  0.57643  1.0000
  H   H5433     1.0  0.93385  0.67075  0.58507  1.0000
  H   H5434     1.0  0.95749  0.79251  0.80470  1.0000
  H   H5435     1.0  0.94980  0.50937  0.57289  1.0000
  S   S1239     1.0  0.89807  0.50472  0.54222  1.0000
  N   N300      1.0  0.92744  0.52604  0.57487  1.0000
  C   C4553     1.0  0.84161  0.84980  0.76009  1.0000
  N   N301      1.0  0.84475  0.72493  0.64047  1.0000
  C   C4554     1.0  0.83272  0.72770  0.63127  1.0000
  C   C4555     1.0  0.84001  0.73738  0.64959  1.0000
  C   C4556     1.0  0.85997  0.72679  0.62947  1.0000
  C   C4557     1.0  0.84621  0.70885  0.65036  1.0000
  C   C4558     1.0  0.85160  0.69565  0.64333  1.0000
  C   C4559     1.0  0.84165  0.70577  0.66701  1.0000
  H   H5436     1.0  0.82131  0.72566  0.63909  1.0000
  H   H5437     1.0  0.83056  0.73993  0.62431  1.0000
  H   H5438     1.0  0.83626  0.71994  0.62278  1.0000
  H   H5439     1.0  0.82813  0.73754  0.65737  1.0000
  H   H5440     1.0  0.83940  0.74929  0.64178  1.0000
  H   H5441     1.0  0.84853  0.73596  0.65691  1.0000
  H   H5442     1.0  0.86358  0.71932  0.62072  1.0000
  H   H5443     1.0  0.85943  0.73901  0.62244  1.0000
  H   H5444     1.0  0.86956  0.72388  0.63590  1.0000
  H   H5445     1.0  0.83722  0.71499  0.67344  1.0000
  N   N302      1.0  0.82917  0.69359  0.80110  1.0000
  C   C4560     1.0  0.84212  0.70185  0.79271  1.0000
  C   C4561     1.0  0.83598  0.67657  0.80283  1.0000
  C   C4562     1.0  0.81760  0.69818  0.79099  1.0000
  C   C4563     1.0  0.82134  0.69708  0.81675  1.0000
  C   C4564     1.0  0.82630  0.70684  0.82337  1.0000
  C   C4565     1.0  0.80830  0.69057  0.82592  1.0000
  H   H5446     1.0  0.93747  0.72323  0.50981  1.0000
  H   H5447     1.0  0.84271  0.54820  0.63550  1.0000
  H   H5448     1.0  0.97829  0.51237  0.64391  1.0000
  H   H5449     1.0  0.85152  0.69856  0.79942  1.0000
  H   H5450     1.0  0.94149  0.68783  0.51948  1.0000
  H   H5451     1.0  0.83785  0.71480  0.79044  1.0000
  H   H5452     1.0  0.84553  0.67287  0.80941  1.0000
  H   H5453     1.0  0.97605  0.64797  0.60973  1.0000
  H   H5454     1.0  0.82713  0.66937  0.80904  1.0000
  H   H5455     1.0  0.91934  0.50776  0.50724  1.0000
  H   H5456     1.0  0.89435  0.65343  0.61508  1.0000
  H   H5457     1.0  0.93045  0.52460  0.51579  1.0000
  H   H5458     1.0  0.83609  0.71233  0.81741  1.0000
  H   H5459     1.0  0.81850  0.49907  0.60123  1.0000
  H   H5460     1.0  0.95955  0.72066  0.47928  1.0000
  S   S1240     1.0  0.88591  0.48449  0.57734  1.0000
  H   H5461     1.0  0.79207  0.82745  0.68344  1.0000
  N   N303      1.0  0.86248  0.76699  0.71454  1.0000
  C   C4566     1.0  0.85286  0.77174  0.70248  1.0000
  C   C4567     1.0  0.85839  0.78001  0.72281  1.0000
  C   C4568     1.0  0.87923  0.76503  0.70628  1.0000
  C   C4569     1.0  0.86009  0.75220  0.72589  1.0000
  C   C4570     1.0  0.86780  0.74650  0.73863  1.0000
  C   C4571     1.0  0.85086  0.74265  0.72425  1.0000
  C   C4572     1.0  0.86638  0.73218  0.74905  1.0000
  H   H5462     1.0  0.84010  0.77295  0.70789  1.0000
  H   H5463     1.0  0.85426  0.78326  0.69464  1.0000
  H   H5464     1.0  0.85635  0.76325  0.69472  1.0000
  H   H5465     1.0  0.84608  0.78142  0.72971  1.0000
  H   H5466     1.0  0.85968  0.79138  0.71444  1.0000
  H   H5467     1.0  0.86614  0.77826  0.73096  1.0000
  H   H5468     1.0  0.88712  0.76333  0.71431  1.0000
  H   H5469     1.0  0.88303  0.75474  0.70072  1.0000
  H   H5470     1.0  0.88142  0.77547  0.69685  1.0000
  H   H5471     1.0  0.87529  0.75290  0.74051  1.0000
  H   H5472     1.0  0.87262  0.72803  0.75854  1.0000
  H   H5473     1.0  0.88688  0.61408  0.71006  1.0000
  N   N304      1.0  0.80861  0.64084  0.85208  1.0000
  C   C4573     1.0  0.97818  0.77013  0.52052  1.0000
  H   H5474     1.0  0.96330  0.83135  0.69476  1.0000
  H   H5475     1.0  0.93941  0.71939  0.48450  1.0000
  C   C4574     1.0  0.81926  0.65030  0.85272  1.0000
  C   C4575     1.0  0.81527  0.65881  0.86473  1.0000
  C   C4576     1.0  0.83376  0.65129  0.84174  1.0000
  C   C4577     1.0  0.82507  0.66785  0.86561  1.0000
  C   C4578     1.0  0.84348  0.66037  0.84274  1.0000
  H   H5476     1.0  0.95022  0.76949  0.75061  1.0000
  C   C4579     1.0  0.94145  0.51704  0.56561  1.0000
  C   C4580     1.0  0.93178  0.60889  0.69434  1.0000
  H   H5477     1.0  0.94663  0.54388  0.65874  1.0000
  C   C4581     1.0  0.93495  0.81369  0.73466  1.0000
  H   H5478     1.0  0.83905  0.56052  0.60859  1.0000
  C   C4582     1.0  0.84855  0.50101  0.59783  1.0000
  H   H5479     1.0  0.97632  0.79091  0.80791  1.0000
  C   C4583     1.0  0.81009  0.73576  0.69422  1.0000
  H   H5480     1.0  0.91598  0.50657  0.58492  1.0000
  H   H5481     1.0  0.80453  0.65854  0.87361  1.0000
  H   H5482     1.0  0.82254  0.71742  0.84293  1.0000
  C   C4584     1.0  0.96274  0.66046  0.58587  1.0000
  H   H5483     1.0  0.97288  0.55472  0.63151  1.0000
  H   H5484     1.0  0.92208  0.78168  0.75862  1.0000
  N   N305      1.0  0.87303  0.67024  0.53183  1.0000
  C   C4585     1.0  0.85918  0.68298  0.53547  1.0000
  C   C4586     1.0  0.88722  0.67594  0.53048  1.0000
  C   C4587     1.0  0.87326  0.66752  0.51640  1.0000
  C   C4588     1.0  0.87298  0.65542  0.54384  1.0000
  C   C4589     1.0  0.86107  0.65381  0.55780  1.0000
  C   C4590     1.0  0.88532  0.64206  0.54190  1.0000
  C   C4591     1.0  0.86155  0.63967  0.56896  1.0000
  C   C4592     1.0  0.82812  0.88135  0.76014  1.0000
  C   C4593     1.0  0.87725  0.49513  0.49693  1.0000
  H   H5485     1.0  0.85875  0.68617  0.54660  1.0000
  H   H5486     1.0  0.85956  0.69392  0.52622  1.0000
  H   H5487     1.0  0.84802  0.67963  0.53643  1.0000
  H   H5488     1.0  0.88732  0.67809  0.54190  1.0000
  H   H5489     1.0  0.88770  0.68713  0.52163  1.0000
  H   H5490     1.0  0.89828  0.66749  0.52698  1.0000
  H   H5491     1.0  0.88418  0.65940  0.51191  1.0000
  H   H5492     1.0  0.86315  0.66250  0.51713  1.0000
  H   H5493     1.0  0.87260  0.67856  0.50719  1.0000
  H   H5494     1.0  0.85153  0.66341  0.56068  1.0000
  H   H5495     1.0  0.89494  0.64245  0.53178  1.0000
  H   H5496     1.0  0.97733  0.63102  0.59114  1.0000
  H   H5497     1.0  0.81891  0.84717  0.76086  1.0000
  H   H5498     1.0  0.93111  0.54937  0.64043  1.0000
  H   H5499     1.0  0.92998  0.63087  0.69894  1.0000
  H   H5500     1.0  0.91551  0.64559  0.71735  1.0000
  H   H5501     1.0  0.79420  0.65991  0.83893  1.0000
  C   C4594     1.0  0.85215  0.86581  0.65776  1.0000
  C   C4595     1.0  0.97797  0.52423  0.63616  1.0000
  H   H5502     1.0  0.85118  0.86094  0.67059  1.0000
  H   H5503     1.0  0.95249  0.55953  0.63179  1.0000
  H   H5504     1.0  0.82250  0.49777  0.61963  1.0000
  C   C4596     1.0  0.94919  0.84051  0.76223  1.0000
  H   H5505     1.0  0.95706  0.51542  0.52162  1.0000
  C   C4597     1.0  0.94442  0.53273  0.58860  1.0000
  H   H5506     1.0  0.96956  0.78286  0.78080  1.0000
  C   C4598     1.0  0.86928  0.87221  0.63264  1.0000
  H   H5507     1.0  0.96625  0.55055  0.61662  1.0000
  H   H5508     1.0  0.95823  0.72396  0.79946  1.0000
  H   H5509     1.0  0.90579  0.67230  0.59251  1.0000
  H   H5510     1.0  0.91239  0.80986  0.74858  1.0000
  C   C4599     1.0  0.93193  0.53754  0.58060  1.0000
  H   H5511     1.0  0.85658  0.71181  0.75478  1.0000
  C   C4600     1.0  0.93431  0.82032  0.77154  1.0000
  H   H5512     1.0  0.79883  0.62114  0.86662  1.0000
  N   N306      1.0  0.97306  0.80389  0.78483  1.0000
  H   H5513     1.0  0.94445  0.56712  0.59645  1.0000
  H   H5514     1.0  0.92173  0.57605  0.58387  1.0000
  H   H5515     1.0  0.80603  0.62575  0.83872  1.0000
  H   H5516     1.0  0.96111  0.63886  0.62304  1.0000
  H   H5517     1.0  0.80441  0.84536  0.68385  1.0000
  H   H5518     1.0  0.96411  0.50691  0.62962  1.0000
  H   H5519     1.0  0.81307  0.85870  0.69883  1.0000
  C   C4601     1.0  0.92541  0.51901  0.62992  1.0000
  H   H5520     1.0  0.84107  0.67334  0.79121  1.0000
  C   C4602     1.0  0.97809  0.80843  0.71385  1.0000
  C   C4603     1.0  0.95219  0.50789  0.51778  1.0000
  H   H5521     1.0  0.84695  0.83757  0.75998  1.0000
  C   C4604     1.0  0.79314  0.65112  0.85017  1.0000
  H   H5522     1.0  0.91155  0.63287  0.63081  1.0000
  H   H5523     1.0  0.83546  0.54552  0.59216  1.0000
  S   S1241     1.0  0.86117  0.50302  0.55372  1.0000
  C   C4605     1.0  0.82759  0.70930  0.71100  1.0000
  H   H5524     1.0  0.92993  0.70003  0.50591  1.0000
  H   H5525     1.0  0.85267  0.63883  0.57977  1.0000
  H   H5526     1.0  0.80136  0.86268  0.74586  1.0000
  S   S1242     1.0  0.80641  0.79373  0.67791  1.0000
  H   H5527     1.0  0.95959  0.63167  0.58560  1.0000
  C   C4606     1.0  0.98675  0.75286  0.49640  1.0000
  H   H5528     1.0  0.80072  0.90157  0.75153  1.0000
  H   H5529     1.0  0.97251  0.48910  0.51868  1.0000
  H   H5530     1.0  0.98569  0.81637  0.70566  1.0000
  C   C4607     1.0  0.83406  0.72240  0.70323  1.0000
  N   N307      1.0  0.88482  0.72098  0.87259  1.0000
  C   C4608     1.0  0.88735  0.70487  0.87028  1.0000
  C   C4609     1.0  0.88491  0.73179  0.85698  1.0000
  C   C4610     1.0  0.89828  0.72193  0.87822  1.0000
  C   C4611     1.0  0.87011  0.72472  0.88434  1.0000
  C   C4612     1.0  0.86719  0.71433  0.89918  1.0000
  C   C4613     1.0  0.85857  0.73882  0.88170  1.0000
  C   C4614     1.0  0.85339  0.71762  0.91043  1.0000
  C   C4615     1.0  0.84498  0.74214  0.89319  1.0000
  C   C4616     1.0  0.84234  0.73152  0.90747  1.0000
  H   H5531     1.0  0.87687  0.70325  0.86740  1.0000
  H   H5532     1.0  0.89760  0.70225  0.86054  1.0000
  H   H5533     1.0  0.88982  0.69566  0.88074  1.0000
  H   H5534     1.0  0.88452  0.74399  0.85738  1.0000
  H   H5535     1.0  0.87483  0.73181  0.85226  1.0000
  H   H5536     1.0  0.89580  0.72836  0.84822  1.0000
  H   H5537     1.0  0.90958  0.71933  0.86959  1.0000
  H   H5538     1.0  0.89686  0.73384  0.88014  1.0000
  H   H5539     1.0  0.89951  0.71345  0.88950  1.0000
  H   H5540     1.0  0.87542  0.70347  0.90217  1.0000
  H   H5541     1.0  0.85951  0.74735  0.87073  1.0000
  H   H5542     1.0  0.85105  0.70918  0.92139  1.0000
  H   H5543     1.0  0.83615  0.75277  0.89080  1.0000
  H   H5544     1.0  0.83152  0.73392  0.91609  1.0000
  N   N308      1.0  0.89724  0.63930  0.71101  1.0000
  C   C4617     1.0  0.88897  0.63514  0.72763  1.0000
  C   C4618     1.0  0.90660  0.65073  0.70998  1.0000
  C   C4619     1.0  0.88542  0.64728  0.70127  1.0000
  C   C4620     1.0  0.90676  0.62491  0.70564  1.0000
  C   C4621     1.0  0.92330  0.62245  0.69975  1.0000
  C   C4622     1.0  0.89940  0.61300  0.70578  1.0000
  S   S1243     1.0  0.88379  0.50482  0.50740  1.0000
  C   C4623     1.0  0.90796  0.59960  0.70016  1.0000
  H   H5545     1.0  0.95494  0.81459  0.69823  1.0000
  H   H5546     1.0  0.88208  0.64575  0.73220  1.0000
  H   H5547     1.0  0.88049  0.62775  0.72930  1.0000
  H   H5548     1.0  0.89743  0.62855  0.73524  1.0000
  S   S1244     1.0  0.96266  0.62304  0.65608  1.0000
  H   H5549     1.0  0.96521  0.73699  0.54031  1.0000
  Fe  Fe620     1.0  0.79844  0.69736  0.96355  1.0000
  C   C4624     1.0  0.96471  0.74970  0.53556  1.0000
  H   H5550     1.0  0.84520  0.87807  0.65602  1.0000
  C   C4625     1.0  0.81239  0.70932  0.71032  1.0000
  H   H5551     1.0  0.95804  0.71893  0.78197  1.0000
  C   C4626     1.0  0.98718  0.69793  0.78013  1.0000
  C   C4627     1.0  0.83845  0.54833  0.61334  1.0000
  C   C4628     1.0  0.92412  0.59754  0.69447  1.0000
  H   H5552     1.0  0.95735  0.65981  0.61702  1.0000
  H   H5553     1.0  0.82179  0.67424  0.87492  1.0000
  H   H5554     1.0  0.83415  0.90954  0.73138  1.0000
  C   C4629     1.0  0.93103  0.50328  0.50955  1.0000
  C   C4630     1.0  0.93019  0.78870  0.75075  1.0000
  S   S1245     1.0  0.80130  0.80767  0.64156  1.0000
  N   N309      1.0  0.96159  0.81702  0.71826  1.0000
  H   H5555     1.0  0.97578  0.65871  0.58304  1.0000
  C   C4631     1.0  0.91340  0.66331  0.59934  1.0000
  H   H5556     1.0  0.91831  0.49638  0.48859  1.0000
  H   H5557     1.0  0.80757  0.62820  0.79430  1.0000
  H   H5558     1.0  0.97895  0.79902  0.70786  1.0000
  H   H5559     1.0  0.93823  0.50902  0.56032  1.0000
  H   H5560     1.0  0.84800  0.69861  0.78121  1.0000
  H   H5561     1.0  0.98947  0.77327  0.51341  1.0000
  H   H5562     1.0  0.85654  0.67045  0.64677  1.0000
  N   N310      1.0  0.97641  0.70413  0.79364  1.0000
  H   H5563     1.0  0.81604  0.64083  0.82733  1.0000
  H   H5564     1.0  0.86376  0.88494  0.63114  1.0000
  C   C4632     1.0  0.96434  0.63281  0.59517  1.0000
  C   C4633     1.0  0.87741  0.87253  0.65562  1.0000
  H   H5565     1.0  0.84275  0.72106  0.73306  1.0000
  C   C4634     1.0  0.92965  0.66221  0.59516  1.0000
  H   H5566     1.0  0.95842  0.57108  0.65505  1.0000
  C   C4635     1.0  0.91660  0.64109  0.62088  1.0000
  C   C4636     1.0  0.96041  0.59405  0.65514  1.0000
  N   N311      1.0  0.83420  0.51349  0.60022  1.0000
  H   H5567     1.0  0.87199  0.89615  0.68117  1.0000
  C   C4637     1.0  0.81448  0.63251  0.83895  1.0000
  C   C4638     1.0  0.97313  0.68548  0.51589  1.0000
  C   C4639     1.0  0.94986  0.52924  0.63546  1.0000
  C   C4640     1.0  0.92368  0.55347  0.57922  1.0000
  C   C4641     1.0  0.96039  0.81490  0.77742  1.0000
  C   C4642     1.0  0.87813  0.88908  0.67257  1.0000
  C   C4643     1.0  0.90239  0.87664  0.65754  1.0000
  H   H5568     1.0  0.94433  0.60738  0.68957  1.0000
  C   C4644     1.0  0.89447  0.88590  0.66842  1.0000
  C   C4645     1.0  0.80630  0.62889  0.86691  1.0000
  C   C4646     1.0  0.93990  0.65029  0.60376  1.0000
  H   H5569     1.0  0.79147  0.66466  0.76989  1.0000
  H   H5570     1.0  0.90106  0.89036  0.67384  1.0000
  H   H5571     1.0  0.85459  0.66091  0.83436  1.0000
  C   C4647     1.0  0.90691  0.65272  0.61210  1.0000
  C   C4648     1.0  0.79770  0.87502  0.74714  1.0000
  C   C4649     1.0  0.94904  0.54335  0.59394  1.0000
  C   C4650     1.0  0.80587  0.70326  0.84687  1.0000
  Fe  Fe621     1.0  0.98779  0.61559  0.64415  1.0000
  Fe  Fe622     1.0  0.98621  0.86832  0.72386  1.0000
  C   C4651     1.0  0.93569  0.83546  0.76344  1.0000
  H   H5572     1.0  0.79525  0.86827  0.78631  1.0000
  H   H5573     1.0  0.96210  0.62290  0.60526  1.0000
  H   H5574     1.0  0.95753  0.69757  0.81285  1.0000
  H   H5575     1.0  0.92372  0.81646  0.77254  1.0000
  C   C4652     1.0  0.97106  0.72201  0.57133  1.0000
  C   C4653     1.0  0.94646  0.81014  0.77839  1.0000
  H   H5576     1.0  0.95896  0.53941  0.59953  1.0000
  C   C4654     1.0  0.98707  0.70584  0.76427  1.0000
  H   H5577     1.0  0.91044  0.54040  0.63554  1.0000
  S   S1246     1.0  0.95993  0.87749  0.72940  1.0000
  C   C4655     1.0  0.84051  0.54141  0.62854  1.0000
  Fe  Fe623     1.0  0.88112  0.49698  0.53373  1.0000
  C   C4656     1.0  0.96950  0.69425  0.50129  1.0000
  C   C4657     1.0  0.83638  0.53949  0.60400  1.0000
  C   C4658     1.0  0.93284  0.63980  0.61676  1.0000
  H   H5578     1.0  0.94374  0.83153  0.70562  1.0000
  C   C4659     1.0  0.95111  0.80712  0.72957  1.0000
  C   C4660     1.0  0.87389  0.62686  0.56671  1.0000
  H   H5579     1.0  0.91033  0.52144  0.59621  1.0000
  C   C4661     1.0  0.82532  0.73567  0.69491  1.0000
  C   C4662     1.0  0.83834  0.51664  0.62533  1.0000
  C   C4663     1.0  0.92036  0.51501  0.58855  1.0000
  C   C4664     1.0  0.83617  0.52332  0.60978  1.0000
  C   C4665     1.0  0.96185  0.82989  0.72515  1.0000
  C   C4666     1.0  0.97979  0.70900  0.56505  1.0000
  C   C4667     1.0  0.94095  0.55893  0.59213  1.0000
  C   C4668     1.0  0.95792  0.53545  0.65582  1.0000
  H   H5580     1.0  0.81773  0.62136  0.86924  1.0000
  H   H5581     1.0  0.83446  0.69915  0.71741  1.0000
  H   H5582     1.0  0.94484  0.79850  0.78453  1.0000
  C   C4669     1.0  0.91595  0.53333  0.56464  1.0000
  H   H5583     1.0  0.96932  0.83779  0.71685  1.0000
  C   C4670     1.0  0.96599  0.71960  0.78903  1.0000
  H   H5584     1.0  0.79533  0.84905  0.66093  1.0000
  H   H5585     1.0  0.90997  0.48550  0.51754  1.0000
  H   H5586     1.0  0.96730  0.72750  0.83742  1.0000
  H   H5587     1.0  0.96849  0.78485  0.73261  1.0000
  H   H5588     1.0  0.80854  0.69102  0.79536  1.0000
  H   H5589     1.0  0.80394  0.68301  0.82166  1.0000
  H   H5590     1.0  0.95519  0.75427  0.52890  1.0000
  H   H5591     1.0  0.79907  0.91530  0.70558  1.0000
  H   H5592     1.0  0.89562  0.61820  0.55187  1.0000
  H   H5593     1.0  0.98258  0.79306  0.76502  1.0000
  H   H5594     1.0  0.85895  0.50621  0.59175  1.0000
  H   H5595     1.0  0.94522  0.68394  0.50029  1.0000
  H   H5596     1.0  0.97925  0.71695  0.76112  1.0000
  C   C4671     1.0  0.79571  0.85398  0.68964  1.0000
  C   C4672     1.0  0.90498  0.71589  0.48016  1.0000
  C   C4673     1.0  0.98563  0.70604  0.80388  1.0000
  H   H5597     1.0  0.80396  0.88210  0.73637  1.0000
  H   H5598     1.0  0.97795  0.71089  0.81404  1.0000
  H   H5599     1.0  0.98367  0.82085  0.78825  1.0000
  H   H5600     1.0  0.97288  0.72866  0.78238  1.0000
  H   H5601     1.0  0.79455  0.85526  0.77495  1.0000
  C   C4674     1.0  0.81340  0.74074  0.97616  1.0000
  H   H5602     1.0  0.81416  0.97753  0.70806  1.0000
  Fe  Fe624     1.0  0.98000  0.48624  0.59180  1.0000
  C   C4675     1.0  0.88306  0.49694  0.48066  1.0000
  H   H5603     1.0  0.98884  0.78158  0.78269  1.0000
  H   H5604     1.0  0.86126  0.48492  0.51689  1.0000
  H   H5605     1.0  0.79731  0.89610  0.77271  1.0000
  S   S1247     1.0  0.98277  0.50821  0.57385  1.0000
  H   H5606     1.0  0.80008  0.70558  0.85840  1.0000
  H   H5607     1.0  0.98923  0.75329  0.54485  1.0000
  H   H5608     1.0  0.98619  0.72122  0.52728  1.0000
  S   S1248     1.0  0.80421  0.92985  0.72744  1.0000
  N   N312      1.0  0.80119  0.87700  0.76138  1.0000
  C   C4676     1.0  0.98739  0.72819  0.51543  1.0000
  H   H5609     1.0  0.98705  0.52893  0.63840  1.0000
  C   C4677     1.0  0.98814  0.67636  0.51690  1.0000
  H   H5610     1.0  0.98944  0.56658  0.59422  1.0000
  H   H5611     1.0  0.79411  0.87887  0.71215  1.0000
  C   C4678     1.0  0.82544  0.72739  0.97722  1.0000
  H   H5612     1.0  0.92394  0.75071  0.47968  1.0000
  H   H5613     1.0  0.93809  0.48939  0.47862  1.0000
  H   H5614     1.0  0.80040  0.98260  0.69561  1.0000
  C   C4679     1.0  0.95480  0.48316  0.51117  1.0000
  H   H5615     1.0  0.79080  0.68852  0.84760  1.0000
  H   H5616     1.0  0.99057  0.66982  0.52822  1.0000
  C   C4680     1.0  0.88270  0.70717  0.47834  1.0000
