data_image0
_chemical_formula_structural       FeS3FeHSFeCNC2HS2FeS2FeS2FeSFeS3FeS2CSH2FeSHSHC2HC6H4CH2C2HC4H2CHC2HCH2SHFeC4HSH2C3H3C6H3CH2SC2H2CHC7H4CNC8H9NC9H14C2H2CH4CH3CNC3H7CHCHSCHCSHFeCHSH5NC2H4CNCHC2HFeCHCHCSCHC2S2H3C4HC3H3CHCHFeC2FeCH4C4HC2H2CH2SHCH2SHCH2CH2CHC3H4C2H6CH2CH3SC2HFeS2H2FeSNCSHFeS2FeS2FeSFeS2FeSHFeSCFeHFeSCSFeS2FeSCFe2SHSFe2S2Fe2S3H4CHC8H4C2H2C7H5C3HC2H2CSH2C6H4C6H4SFeNC9H11CH3C4NH4CNHC3H3NC4H2C2H3SCH4SH4SC5HSH6FeCSC3H2CHCSHCH3C2HCNHNHCH2SCHCNC9H18C3HCHS2H3CHCSCH3NHCHC3HC2HCSCH2CH2CH3C2H2C2H8CHNH3CNC3H2SH2CHCHC2HFeS2FeS2FeSFeS3FeSHFeS2FeHFeS3FeS2FeS2FeSFeS3FeSCFeS2FeSHSCFeS2FeS2FeHFeS3HCHC5HC7H4C7H4C4H3C4H2C2H2C6H4C6H5C3H4CHCSC4H6C2H8C3HCNC6HCH14C2H2CH2CHC2HC2H6CH4CH2C2HNC9H16C2H2CH2CHCHFeHNC9H15CH2NC2H2CH2CNHCHC2NHCH4CH2NH5NC9H3CH7CH3SHC3NHCNC8H2SCH2C3NHCH2CH2CH6SC2H3CHC2SH4CHCHCH2CH3C2HC2HCH2CHC3HSCHC3H2CH2FeSNSFeSCFeS2Fe2SCSFeS2FeSFeSFeS3H4CHCHC6H5SC6H6CH2C6H3CH2C3H7C3H8CH3CH6CSHCHC2H2CHC2HSH2C3FeCHCHSH3CHC2H4C2NC3H4NCHC2H3CHCH5C4HN2CH2CHC2HC2HCSHCH2NC9H11C3H3C6H4C2H2SC2HC2H2CHCNSCSH5C2HC2HSH2FeH3FeS2H2CFeSFeS2FeSFeCS2FeSFeS2FeSFeS3FeSCFeS2FeSFeS2FeH2FeS2CHFeS3FeSFeSHFeHFeSHSHC4H4C2H2C6H5C2H4C6H4C6H4S2C6H2C7H6C2H2CH2C3HCNC4HC2H11CHCHSCHCH2C2HCH2CH2C2H2CH3CNCH2CNC2HCH2CHCHCNFeC4H2C2H2SCH5SHNCNC3HCH3CH6NCHCH2C2HCHCH4CHC3H3CHCHSH3CHCH6CHSHSCH2CHC2H2C2HSH2SCHFeSHSFeS2FeS2FeSFeCS2HC2SC2HCFeHSFeC2SCFeSCSH6CNH2CH4NH2CHCHCHC5SC6H4C3H2CHC2H2C6H5CH2C2H4CH4CH3C5FeHCHCH2CHSC2HSC2HCHC2H6C3H3FeHCHC2HNH2NH2CH2SCHCHNHC8H2FeHSH6C2HNC9H3CH2SCHFeH4CH3CH2CH2C2HCH2CSHFe2S2FeS2FeSFeS3CHFeS2FeSHSC2H2SHC3FeHFeCHCSCH2CSHCH2C3HCH2CH2C2HC6H6C6H5C4HNC2HCH2C3HC2H2CNC9H14C2H5CH2NH4CH2CHNC4H7CH3C2H4CNHCH3CHCSH6NCSC2SC3H2C2NHC2SFeCH3CH3C2HC2HCHC2H2C2SHC3H2SH5C3FeS2FeSFeSFeS3HFeS2FeSFeCFeS3FeSCFeS2FeSCHSHFeS2FeSFeSFeS3FeSHFeS2FeHFeSHSC3HC6H7C6H4C6H5CH2CH2CHCHCHCHC6H4CHCH3CH2CHC5H4CH3CNH3CHC2H7C2H2CH4SHCH5C2HCH2CHC2HC2SNC9H14NC7H2CH10C2HC2NH2CH3CH2CHCH5CHNH3CH3C2FeC2HCHCH3CH3C6HNCSC2HCH3NHCH2SH2SHNCH3SH2CHCHC2HC6HCHC3HC2HCH3CHCHCHC3NCH3CHCHC2H3FeS2FeS2FeSFeS4HSH3SH2CHNSFeHSH2SFe2SH2SCHCH2FeS2FeHFeCSH2C2HFeCH3SC4H2C2FeC3FeCH2C5HCH3CH2C3NC7H4C6H4C6H4C2HCHCNSH4CH4C3H3NC7H8CH3CHC3HCNH4C2H5CH2CH3CH3CHCH2CHC6FeH2C2SNCH3C2SH2CH2CH5CH5CNHC2HCH3SHCH3CH2CHCH2CFeS2FeS2FeSFeS3FeS2FeS2FeSFeS3FeS2FeS3FeS2FeSFe2SFeSCHSH2FeCHSHNHCFeC2HCHC4HCHCHCSC4H4C6H4C6H4C6H6C5H3CH3C4H4CFeSH2C3HCH2CHNHCHC2H2CSCH3CH6FeS2H2CHCH2CNC9H14NC9H13SH2CHC3SH3C2HCH2C3HC3H3C2H2C2HNCH3NC9H12CH2FeCHC2H6C2H3CH2CH2FeS2FeSHFe2S3FeH2SFeS2FeSHFeNS2FeS2FeS2FeSFeS3FeS2FeS2FeSFeS3H3C2H2CHC5SH2C6H4CHC7H7SH2C3H4C2HC2HC7H4C5H3C4FeCHC2HC3HCH2SHNHCH3CH4CNC5H7CH3CSH3CNHCH3NHC2H2CNC9H14CH4CHC2H5CSHCH4CSHNC3HCSC3FeCSH3CH5C2NC9HCH13CSCH2SHC2HC2H5C2H2CHCH4CNC9HCH5C3FeSH2C7H2CHC5H2SCH2NH6C2SH2SFeS2FeSFeSFeHS2H2CHSH2CFeS2FeS2FeSFeS3C2SFeHCSCFeSHFeS2FeSFeS3CHC2HC2SCHC4NH5C6H4C6H4C2H3C4H8C2NHC7H4C5H2CH2CHCH4CNC5H9CH3CHCHC2FeHCHC3HNH3CHCNC8H3CH3CHCHC5HCH5C2HCH2C3H2NC2H4C2HCHCHFeH11CHC2HCHNC4SCH4CH2CH3CH3CSNH7C2HFeC2HSC3HFeH2C2HCH3SCFeS2FeSHFeSFeS3FeHFeS2H2S2CFeS2FeS2FeSFeS3HFeSCFeS2FeSFeHS3FeSHFeSFeHFeC2HCHCHC6H5CHCSHC6H4C6H2NHC2HCHCHC2HC3H4C6H4C6H4C2HCHCH2CNH3CH4CHCHCHCH3CH2CH2CH8CH2CHCH3CH2SHCHCFeHCHCSCNC4H4CH9CHCHN2C5HNHCHC2H2CHCHC2NC9H14CHCSH2C4H4CH2S2HC2H2C2NSHC4HCH3CHCHNC5HSHSC2H2FeH2C2H3SCH3C2HCH2C4H3CFeSH2FeS2FeS2FeSFeS3FeS2FeS2FeSFeS3CHFeSFeSFeSCFeSFeCSH3CH3C9H6C7H4C6H4C6H4C3S2CH2CH2CH5SHC4H2C2H2C6H5C2NCH2CH4CHCHNCHCH5C2H2C8H5CHSC2HC2HCHCH2SHCNC9H15CHC2H2CHC3H3CHSH4SCHC4H2CH5C2H4CN2CH4NHCH2CHCHC2HCNH2C2H2SH6CHSCS2HSCH4CH3CHFeCHSHC2HCH3CH2C3HNCHCSFeSFeS2FeSFeS3FeS2FeS2FeSFeS3C2HCSHFeSFeSFeS2FeS2FeSFeS3C6H4C6H4C6H2CH2CH3CH4CHCH2C6H5C6H2CH2C3H4CH2C2FeH3CH4FeC2SHNC5HC2H4CH4SCNCSH4CHC2H2CHN2C2SH4C3H3CH3CHCHCHSHC2NH3C3H4CHNHCHCHC4H3C2HCHC4SH4C2SCH2NC9H14NC2HC3H6C2H3CH3CH2CH3C2H2C2H3C3HFeC2HSHCH3C2H3C3HCSH2CFeS2FeSCFeSFeHSCSFeCH2FeSHFeS2FeSFeS3FeCSH2FeNHS2FeS2FeS2FeSFeS3HC2HC5HFeHC3H5C6H4C6H3SC2HC2H2CH2C4HCSC2HCHCHC3SHC3HCHC6H2CNC9H16C3H12C2SH4C5HSC4H2CH2CHSHCHNC5H10CNC6HNH11CH2C3Fe2H4NSH7CHCH5CHNCFeH2C2HNHCSC3SHNH4CHC4HCH3CH3SH4CH4CHC3HCHCH3CH2FeS2Fe2HCHFeS2FeS2FeSFeS3FeS2HC3FeSHSC2FeSHFeS2FeHFeS3FeSCFeS2FeSFeS3C2HC6H5NH2CH2CH2C6H3C8H4CHC7H5NH2C6H3SC6H4SCHSCFeSH3SH2SH4CS2HCNC9H11CHCH4CH3SHCHC3H3CHFeNHC3HC2H5NC2H7NC6HCH12CHNC9H13NC9H14NCH2CHCHCSCHCH3CH2CHCHCHCSH3CH4CHCH2CH2CHFeCHCHC2HC2HC2SH3CHCHC2S2HCHCHNCHCSCH2FeSCFeS2FeSFeS3FeSCFeS2FeHFeS3HC3H3CSCHCHCNC2SCHC3SH2CH2C4H4C6H4C6H4C2HC3H4CHC2HCH2C4H4C3SCHNC4H11CH3C3HSH4CH2C2HCHC4HCHC3HNH2CHCNH3CH4C2HCH4C3H3CHCHCSHC2HCHC2H3CNH6CH2NC2HC2H2CHC3HC2HCSH4CH3CHC4H3NC2H4CHCH3SC5HCFeS2FeS2FeSFeS3FeSHFeS2FeSFeS3CH2CHCSHC2H5CHCHCH4CHCHC7H4CHCHC2SCH2C6H4C3H5C2H4CH2C2H2C3SHCH4C2HCH2C4H5CNH2CH2NC4FeCH9CHCHC2H3C9H2C3H3CHNH3C2H3CH5CH2C2SH2C3HCNC2HCH3CSHC2HCH4CH4NCHC4H2FeS2FeHSFeS2H3FeHFeS3FeS2FeCHFeCFeS3HFeS2FeS2FeSFeS3FeCFeS2Fe2S3C6H4CHCSHC4SH2CSHC2HC6H4C6H5SC7H4CHC5HCHCHCH3NCH2C2H3FeSC2H5C3H2CHC2HCH7CHC2H3CHC8NH2CH3C3H3NC3NC9H13CH6FeHCH5SCH3CHCH4NSC4H2SHSNC2H5NC9H10C2SCH2CH2C2H3SHCH3NHCH4C3HCHCH6CH4CHCH2C3HSNCH4CHSH4FeS2FeS2FeSFeS3FeSFeS2FeSFeS3H2SCHC4HC6H8C3HCHCH3CHC6HCH5C2H3NC2H4CNHCFeHCH2CHCH3C6H3C2H4CHCH3C4H2CHC2H2C2HNC8H12C2HC2HC2NCHCH2CHCH2C3HC2H4NC2H3CHCHCH5CH4CH3C2NC2H2CHC2H2SHCSHFeS2FeS2FeSFeS3FeSCFeS2FeCFeS3CFeS2HS2FeCFeSCSFeSHFeS2FeSFeHS2FeS2Fe2S2C2H3CH3CHSHC7H4SCH3CNC4H3SCH3C9H4C6H4C5H3C6H4C5H5C2H3CNC2HCH3CHCHCHCH2CHCNC2HNCHCH2CH3CH2FeHS2C3H2FeH3C2SHC3H6CHNH3NH4CHNC6H2CH9CHSCSH2CSH2CNC9H14CHCHSH2CH2CH3NC7HNCHCH7CHC2NC7H11C4H2C2H2CH2C2H5C3H2C3H2C2H2C2H3CHCHSH2CH2CH2CH2SH2CHSH8NFeSFeS2FeHFeS3CSHFeS2HFeSNSFeSFeH2FeS2FeSFeCS2FeS2FeS2FeSFeS3HSFeS2HCHC3HSHC6H4C6H6NC6H4C9H4FeC6H4C6H6CHCH6CHNC4H12S2H3C6H3CH2C2H2CHCH2CH2NH4CH4C3H2CH5CH2CHCHC2H2CH2CHC2NH4CHC2HSH2CHNH5C3HCH2FeC2HC2NCH2CH2C3HCHCNHFeH4CHC2HSC4SH2SHCH2FeHCH2CHCHC2HC2HSHCH5CHC2H3FeHSHFeC3H2SHFeS2FeS2FeSFeS3FeS2FeS2FeSFeS4CH3C2HCSHC3H4C3H2C6H4CSH2CHCH3C5H3CHC2H2C2H2C2H3C2H4SCH2CH2CH3C2HCHCHC3HC2H2CH9CNCSH4CH2C2H3CHC3HC2H3CSCH2NC9H15C2HC4HNC2HC4HC2NHC5H9C2H2C2HC6NHC2HC2HC2SCH2C2HC4H2CHNH3CH3CH2CHC2H2C
_chemical_formula_sum              "Fe384 S768 H3456 C2880 N192"
_cell_length_a       67.053
_cell_length_b       67.2408
_cell_length_c       67.6065
_cell_angle_alpha    77.5952
_cell_angle_beta     77.6349
_cell_angle_gamma    77.6715

_space_group_name_H-M_alt    "P 1"
_space_group_IT_number       1

loop_
  _space_group_symop_operation_xyz
  'x, y, z'

loop_
  _atom_site_type_symbol
  _atom_site_label
  _atom_site_symmetry_multiplicity
  _atom_site_fract_x
  _atom_site_fract_y
  _atom_site_fract_z
  _atom_site_occupancy
  Fe  Fe1       1.0  0.29313  0.16341  0.41406  1.0000
  S   S1        1.0  0.26203  0.15426  0.41619  1.0000
  S   S2        1.0  0.30161  0.16694  0.44325  1.0000
  S   S3        1.0  0.19293  0.10816  0.46189  1.0000
  Fe  Fe2       1.0  0.27551  0.05629  0.14907  1.0000
  H   H1        1.0  0.11809  0.18866  0.33123  1.0000
  S   S4        1.0  0.26641  0.07221  0.17701  1.0000
  Fe  Fe3       1.0  0.26442  0.03122  0.11943  1.0000
  C   C1        1.0  0.28117  0.00250  0.23565  1.0000
  N   N1        1.0  0.29559  0.01369  0.21940  1.0000
  C   C2        1.0  0.25860  0.11593  0.25691  1.0000
  C   C3        1.0  0.32072  0.10143  0.08720  1.0000
  H   H2        1.0  0.13770  0.16709  0.33776  1.0000
  S   S5        1.0  0.27067  0.02383  0.15190  1.0000
  S   S6        1.0  0.26566  0.06517  0.11800  1.0000
  Fe  Fe4       1.0  0.21200  0.11636  0.33830  1.0000
  S   S7        1.0  0.21824  0.08184  0.34776  1.0000
  S   S8        1.0  0.23648  0.13517  0.33785  1.0000
  Fe  Fe5       1.0  0.17054  0.11624  0.32545  1.0000
  S   S9        1.0  0.17372  0.08182  0.33403  1.0000
  S   S10       1.0  0.14373  0.13769  0.31211  1.0000
  Fe  Fe6       1.0  0.18446  0.08601  0.36186  1.0000
  S   S11       1.0  0.17191  0.06954  0.39310  1.0000
  Fe  Fe7       1.0  0.20713  0.08094  0.31892  1.0000
  S   S12       1.0  0.22126  0.05951  0.29592  1.0000
  S   S13       1.0  0.17895  0.12067  0.35455  1.0000
  S   S14       1.0  0.20324  0.11525  0.30819  1.0000
  Fe  Fe8       1.0  0.01476  0.17343  0.28056  1.0000
  S   S15       1.0  0.02318  0.14678  0.30535  1.0000
  S   S16       1.0  0.01306  0.20639  0.28469  1.0000
  C   C4        1.0  0.00307  0.23171  0.35894  1.0000
  S   S17       1.0  0.01274  0.11696  0.27703  1.0000
  H   H3        1.0  0.23850  0.13555  0.29682  1.0000
  H   H4        1.0  0.31932  0.17851  0.14360  1.0000
  Fe  Fe9       1.0  0.04007  0.13083  0.27900  1.0000
  S   S18       1.0  0.07158  0.11050  0.28183  1.0000
  H   H5        1.0  0.14008  0.18417  0.44795  1.0000
  S   S19       1.0  0.03289  0.15823  0.25401  1.0000
  H   H6        1.0  0.11726  0.00793  0.10158  1.0000
  C   C5        1.0  0.25277  0.04116  0.31746  1.0000
  C   C6        1.0  0.24209  0.03987  0.30233  1.0000
  H   H7        1.0  0.24909  0.05486  0.32429  1.0000
  C   C7        1.0  0.12263  0.12967  0.30587  1.0000
  C   C8        1.0  0.10705  0.14478  0.29780  1.0000
  C   C9        1.0  0.09083  0.13912  0.29118  1.0000
  C   C10       1.0  0.09024  0.11823  0.29226  1.0000
  C   C11       1.0  0.10565  0.10311  0.30064  1.0000
  C   C12       1.0  0.12166  0.10877  0.30762  1.0000
  H   H8        1.0  0.10773  0.16097  0.29628  1.0000
  H   H9        1.0  0.07915  0.15090  0.28463  1.0000
  H   H10       1.0  0.10523  0.08692  0.30164  1.0000
  H   H11       1.0  0.13336  0.09696  0.31406  1.0000
  C   C13       1.0  0.26364  0.03673  0.39046  1.0000
  H   H12       1.0  0.23921  0.15195  0.27220  1.0000
  H   H13       1.0  0.19312  0.02036  0.39764  1.0000
  C   C14       1.0  0.25757  0.06719  0.46374  1.0000
  C   C15       1.0  0.03105  0.23032  0.30163  1.0000
  H   H14       1.0  0.19379  0.02478  0.35139  1.0000
  C   C16       1.0  0.26785  0.02456  0.32405  1.0000
  C   C17       1.0  0.23351  0.13899  0.46443  1.0000
  C   C18       1.0  0.09236  0.20284  0.43534  1.0000
  C   C19       1.0  0.26272  0.00568  0.29942  1.0000
  H   H15       1.0  0.28260  0.09583  0.47403  1.0000
  H   H16       1.0  0.21213  0.99050  0.35563  1.0000
  C   C20       1.0  0.31194  0.08999  0.34707  1.0000
  H   H17       1.0  0.26487  0.06421  0.25766  1.0000
  C   C21       1.0  0.09758  0.21816  0.41830  1.0000
  C   C22       1.0  0.25717  0.09745  0.25143  1.0000
  H   H18       1.0  0.30103  0.17148  0.31773  1.0000
  C   C23       1.0  0.31640  0.09999  0.16992  1.0000
  H   H19       1.0  0.00973  0.18575  0.34224  1.0000
  H   H20       1.0  0.24446  0.99190  0.05003  1.0000
  S   S20       1.0  0.30950  0.04874  0.13748  1.0000
  H   H21       1.0  0.03516  0.22586  0.01458  1.0000
  Fe  Fe10      1.0  0.29999  0.05644  0.10643  1.0000
  C   C24       1.0  0.26891  0.11601  0.27316  1.0000
  C   C25       1.0  0.28321  0.02687  0.20418  1.0000
  C   C26       1.0  0.28662  0.08528  0.20221  1.0000
  C   C27       1.0  0.27804  0.09641  0.28333  1.0000
  H   H22       1.0  0.27220  0.03959  0.21092  1.0000
  S   S21       1.0  0.08831  0.22850  0.31396  1.0000
  H   H23       1.0  0.26105  0.10832  0.42367  1.0000
  H   H24       1.0  0.32109  0.98824  0.21989  1.0000
  C   C28       1.0  0.03372  0.21204  0.29370  1.0000
  C   C29       1.0  0.05292  0.19885  0.29257  1.0000
  C   C30       1.0  0.06949  0.20410  0.29888  1.0000
  H   H25       1.0  0.23942  0.02133  0.28098  1.0000
  H   H26       1.0  0.05514  0.18478  0.28645  1.0000
  H   H27       1.0  0.08441  0.19400  0.29758  1.0000
  C   C31       1.0  0.18673  0.09761  0.44284  1.0000
  C   C32       1.0  0.16979  0.08737  0.44710  1.0000
  C   C33       1.0  0.16555  0.07832  0.43191  1.0000
  C   C34       1.0  0.17780  0.08013  0.41226  1.0000
  C   C35       1.0  0.19475  0.09037  0.40801  1.0000
  C   C36       1.0  0.19945  0.09870  0.42343  1.0000
  H   H28       1.0  0.15248  0.07035  0.43526  1.0000
  H   H29       1.0  0.20429  0.09181  0.39288  1.0000
  H   H30       1.0  0.21267  0.10641  0.42015  1.0000
  C   C37       1.0  0.24755  0.02237  0.29282  1.0000
  H   H31       1.0  0.26615  0.99179  0.29279  1.0000
  H   H32       1.0  0.25979  0.99822  0.36744  1.0000
  S   S22       1.0  0.29823  0.02317  0.10572  1.0000
  C   C38       1.0  0.28614  0.08331  0.18204  1.0000
  C   C39       1.0  0.30122  0.09055  0.16602  1.0000
  H   H33       1.0  0.12655  0.01658  0.07471  1.0000
  H   H34       1.0  0.30088  0.08935  0.15047  1.0000
  C   C40       1.0  0.31703  0.10189  0.19002  1.0000
  H   H35       1.0  0.26455  0.06429  0.34757  1.0000
  C   C41       1.0  0.06686  0.22232  0.30680  1.0000
  C   C42       1.0  0.25528  0.14880  0.39431  1.0000
  C   C43       1.0  0.23734  0.14030  0.39659  1.0000
  C   C44       1.0  0.23152  0.13571  0.37949  1.0000
  C   C45       1.0  0.24338  0.14008  0.35991  1.0000
  C   C46       1.0  0.26126  0.14870  0.35761  1.0000
  C   C47       1.0  0.26735  0.15281  0.37478  1.0000
  H   H36       1.0  0.22780  0.13742  0.41163  1.0000
  H   H37       1.0  0.21761  0.12927  0.38140  1.0000
  H   H38       1.0  0.27048  0.15220  0.34249  1.0000
  H   H39       1.0  0.28112  0.15949  0.37284  1.0000
  C   C48       1.0  0.20556  0.03031  0.35726  1.0000
  N   N2        1.0  0.11876  0.17945  0.36388  1.0000
  C   C49       1.0  0.09712  0.19024  0.36909  1.0000
  C   C50       1.0  0.12147  0.17453  0.34296  1.0000
  C   C51       1.0  0.12293  0.16103  0.37994  1.0000
  C   C52       1.0  0.12853  0.14050  0.37578  1.0000
  C   C53       1.0  0.12132  0.16336  0.40064  1.0000
  C   C54       1.0  0.13258  0.12356  0.39141  1.0000
  C   C55       1.0  0.12535  0.14634  0.41613  1.0000
  C   C56       1.0  0.13105  0.12649  0.41150  1.0000
  H   H40       1.0  0.09442  0.19660  0.38353  1.0000
  H   H41       1.0  0.09314  0.20353  0.35674  1.0000
  H   H42       1.0  0.08595  0.17955  0.37114  1.0000
  H   H43       1.0  0.11082  0.16413  0.34229  1.0000
  H   H44       1.0  0.13011  0.13709  0.36055  1.0000
  H   H45       1.0  0.11697  0.17841  0.40503  1.0000
  H   H46       1.0  0.13714  0.10802  0.38792  1.0000
  H   H47       1.0  0.12403  0.14860  0.43183  1.0000
  H   H48       1.0  0.13428  0.11336  0.42353  1.0000
  N   N3        1.0  0.17006  0.10199  0.25548  1.0000
  C   C57       1.0  0.16439  0.12426  0.25699  1.0000
  C   C58       1.0  0.15107  0.09426  0.25494  1.0000
  C   C59       1.0  0.17782  0.09081  0.27458  1.0000
  C   C60       1.0  0.18533  0.09930  0.23644  1.0000
  C   C61       1.0  0.20540  0.08686  0.23649  1.0000
  C   C62       1.0  0.18020  0.10927  0.21696  1.0000
  C   C63       1.0  0.21932  0.08475  0.21807  1.0000
  C   C64       1.0  0.19427  0.10708  0.19871  1.0000
  C   C65       1.0  0.21378  0.09487  0.19927  1.0000
  H   H49       1.0  0.17830  0.13081  0.25697  1.0000
  H   H50       1.0  0.15660  0.13369  0.24425  1.0000
  H   H51       1.0  0.15331  0.12681  0.27139  1.0000
  H   H52       1.0  0.14288  0.10334  0.24232  1.0000
  H   H53       1.0  0.13955  0.09523  0.26939  1.0000
  H   H54       1.0  0.15480  0.07779  0.25289  1.0000
  H   H55       1.0  0.16614  0.09351  0.28861  1.0000
  H   H56       1.0  0.18149  0.07377  0.27510  1.0000
  H   H57       1.0  0.19195  0.09608  0.27617  1.0000
  H   H58       1.0  0.21071  0.07851  0.25050  1.0000
  H   H59       1.0  0.16521  0.11882  0.21568  1.0000
  H   H60       1.0  0.23453  0.07516  0.21824  1.0000
  H   H61       1.0  0.19004  0.11483  0.18398  1.0000
  H   H62       1.0  0.22462  0.09318  0.18505  1.0000
  C   C66       1.0  0.02341  0.23046  0.36167  1.0000
  C   C67       1.0  0.25422  0.01161  0.37483  1.0000
  H   H63       1.0  0.14955  0.18604  0.35959  1.0000
  H   H64       1.0  0.25925  0.09496  0.36391  1.0000
  C   C68       1.0  0.26605  0.09427  0.43404  1.0000
  H   H65       1.0  0.05430  0.21272  0.35900  1.0000
  H   H66       1.0  0.31341  0.17577  0.34849  1.0000
  H   H67       1.0  0.30720  0.11797  0.45274  1.0000
  H   H68       1.0  0.30515  0.13065  0.12497  1.0000
  C   C69       1.0  0.24299  0.04647  0.39372  1.0000
  H   H69       1.0  0.13089  0.19980  0.37736  1.0000
  H   H70       1.0  0.14935  0.21113  0.41807  1.0000
  H   H71       1.0  0.28535  0.01182  0.37835  1.0000
  C   C70       1.0  0.24272  0.00115  0.07917  1.0000
  N   N4        1.0  0.26914  0.13578  0.27938  1.0000
  C   C71       1.0  0.28000  0.13302  0.29704  1.0000
  C   C72       1.0  0.27955  0.14966  0.26195  1.0000
  C   C73       1.0  0.24753  0.14628  0.28542  1.0000
  H   H72       1.0  0.29659  0.12587  0.29323  1.0000
  H   H73       1.0  0.27982  0.14805  0.30158  1.0000
  H   H74       1.0  0.23450  0.18853  0.46730  1.0000
  H   H75       1.0  0.28035  0.16444  0.26646  1.0000
  H   H76       1.0  0.27153  0.15377  0.24849  1.0000
  H   H77       1.0  0.29575  0.14243  0.25662  1.0000
  H   H78       1.0  0.24685  0.15988  0.29266  1.0000
  C   C74       1.0  0.30455  0.02667  0.24866  1.0000
  H   H79       1.0  0.28636  0.09477  0.29577  1.0000
  C   C75       1.0  0.31584  0.03823  0.25560  1.0000
  H   H80       1.0  0.20916  0.99522  0.40125  1.0000
  S   S23       1.0  0.30488  0.19228  0.39641  1.0000
  C   C76       1.0  0.15888  0.98358  0.11863  1.0000
  H   H81       1.0  0.26889  0.01337  0.24381  1.0000
  C   C77       1.0  0.13142  0.00808  0.08945  1.0000
  S   S24       1.0  0.10059  0.17109  0.46721  1.0000
  H   H82       1.0  0.29827  0.09299  0.42054  1.0000
  Fe  Fe11      1.0  0.00379  0.14568  0.25453  1.0000
  C   C78       1.0  0.31107  0.99813  0.20910  1.0000
  H   H83       1.0  0.17227  0.99647  0.07693  1.0000
  S   S25       1.0  0.28832  0.98466  0.32708  1.0000
  H   H84       1.0  0.06421  0.20823  0.99165  1.0000
  H   H85       1.0  0.28144  0.98413  0.11637  1.0000
  H   H86       1.0  0.21209  0.04683  0.39057  1.0000
  H   H87       1.0  0.30992  0.06144  0.44472  1.0000
  H   H88       1.0  0.29970  0.05007  0.33037  1.0000
  N   N5        1.0  0.14238  0.98670  0.08773  1.0000
  C   C79       1.0  0.21710  0.98780  0.10683  1.0000
  C   C80       1.0  0.01294  0.19847  0.34781  1.0000
  H   H89       1.0  0.32120  0.00534  0.19536  1.0000
  H   H90       1.0  0.28818  0.11099  0.36430  1.0000
  H   H91       1.0  0.27522  0.07943  0.21472  1.0000
  H   H92       1.0  0.21691  0.06719  0.46269  1.0000
  C   C81       1.0  0.23811  0.17408  0.46080  1.0000
  N   N6        1.0  0.21662  0.01364  0.37135  1.0000
  C   C82       1.0  0.29351  0.06778  0.44576  1.0000
  H   H93       1.0  0.22569  0.14304  0.45074  1.0000
  C   C83       1.0  0.03847  0.21342  0.35735  1.0000
  C   C84       1.0  0.20140  0.00715  0.38982  1.0000
  H   H94       1.0  0.16013  0.08616  0.46218  1.0000
  Fe  Fe12      1.0  0.30418  0.01690  0.13814  1.0000
  C   C85       1.0  0.28701  0.08559  0.43219  1.0000
  H   H95       1.0  0.25856  0.98424  0.14665  1.0000
  C   C86       1.0  0.31429  0.07242  0.33777  1.0000
  H   H96       1.0  0.19697  0.04349  0.36485  1.0000
  C   C87       1.0  0.31741  0.16763  0.31839  1.0000
  S   S26       1.0  0.31156  0.21857  0.44511  1.0000
  C   C88       1.0  0.27763  0.07140  0.34737  1.0000
  H   H97       1.0  0.30022  0.09817  0.11627  1.0000
  C   C89       1.0  0.27472  0.08856  0.35676  1.0000
  C   C90       1.0  0.31308  0.12620  0.11045  1.0000
  S   S27       1.0  0.32238  0.15662  0.28045  1.0000
  S   S28       1.0  0.31786  0.98774  0.15759  1.0000
  H   H98       1.0  0.25028  0.13416  0.45845  1.0000
  H   H99       1.0  0.23552  0.09277  0.45043  1.0000
  H   H100      1.0  0.25466  0.01055  0.07330  1.0000
  C   C91       1.0  0.08753  0.21925  0.00169  1.0000
  C   C92       1.0  0.22789  0.03885  0.38755  1.0000
  C   C93       1.0  0.29157  0.09776  0.35674  1.0000
  C   C94       1.0  0.22566  0.05327  0.47122  1.0000
  H   H101      1.0  0.28537  0.04549  0.47191  1.0000
  C   C95       1.0  0.31032  0.10904  0.46743  1.0000
  C   C96       1.0  0.29737  0.06335  0.33785  1.0000
  C   C97       1.0  0.13309  0.19385  0.36280  1.0000
  H   H102      1.0  0.13070  0.20770  0.35054  1.0000
  H   H103      1.0  0.30239  0.09581  0.22183  1.0000
  H   H104      1.0  0.23857  0.06003  0.40101  1.0000
  C   C98       1.0  0.27911  0.05869  0.46141  1.0000
  H   H105      1.0  0.27257  0.12325  0.31092  1.0000
  C   C99       1.0  0.27244  0.00654  0.31552  1.0000
  H   H106      1.0  0.27574  0.02547  0.33608  1.0000
  Fe  Fe13      1.0  0.99545  0.13551  0.30118  1.0000
  C   C100      1.0  0.23687  0.99049  0.06597  1.0000
  C   C101      1.0  0.32014  0.03880  0.21351  1.0000
  Fe  Fe14      1.0  0.31665  0.19367  0.42519  1.0000
  C   C102      1.0  0.23266  0.00016  0.09968  1.0000
  H   H107      1.0  0.25136  0.13019  0.24845  1.0000
  H   H108      1.0  0.25525  0.17023  0.45620  1.0000
  H   H109      1.0  0.20926  0.98674  0.12265  1.0000
  H   H110      1.0  0.27536  0.04274  0.39511  1.0000
  C   C103      1.0  0.12817  0.19361  0.43986  1.0000
  C   C104      1.0  0.30650  0.02648  0.22732  1.0000
  C   C105      1.0  0.30209  0.09446  0.20625  1.0000
  C   C106      1.0  0.10762  0.19053  0.44623  1.0000
  H   H111      1.0  0.28351  0.06328  0.28571  1.0000
  C   C107      1.0  0.25153  0.08525  0.44952  1.0000
  C   C108      1.0  0.23302  0.02133  0.37770  1.0000
  H   H112      1.0  0.29465  0.01781  0.26040  1.0000
  H   H113      1.0  0.23604  0.99973  0.34626  1.0000
  C   C109      1.0  0.26614  0.07854  0.26179  1.0000
  H   H114      1.0  0.24905  0.09783  0.23909  1.0000
  H   H115      1.0  0.29750  0.22432  0.02610  1.0000
  S   S29       1.0  0.23868  0.01388  0.11710  1.0000
  H   H116      1.0  0.23151  0.17772  0.44637  1.0000
  C   C110      1.0  0.27661  0.07804  0.27763  1.0000
  H   H117      1.0  0.07643  0.20054  0.44018  1.0000
  H   H118      1.0  0.29301  0.03402  0.19014  1.0000
  S   S30       1.0  0.31807  0.07766  0.08145  1.0000
  H   H119      1.0  0.16446  0.99796  0.11218  1.0000
  C   C111      1.0  0.31043  0.10765  0.10572  1.0000
  H   H120      1.0  0.30351  0.98769  0.20347  1.0000
  H   H121      1.0  0.18917  0.00059  0.38581  1.0000
  C   C112      1.0  0.11814  0.22124  0.41206  1.0000
  H   H122      1.0  0.19929  0.16612  0.46777  1.0000
  H   H123      1.0  0.10018  0.21158  0.99147  1.0000
  C   C113      1.0  0.99721  0.21567  0.35187  1.0000
  H   H124      1.0  0.27404  0.01789  0.19861  1.0000
  C   C114      1.0  0.22470  0.99572  0.36052  1.0000
  C   C115      1.0  0.13340  0.20892  0.42287  1.0000
  C   C116      1.0  0.26923  0.01934  0.38106  1.0000
  H   H125      1.0  0.14131  0.01753  0.09328  1.0000
  H   H126      1.0  0.27326  0.99303  0.22916  1.0000
  H   H127      1.0  0.99657  0.22634  0.24823  1.0000
  H   H128      1.0  0.23259  0.04241  0.46027  1.0000
  C   C117      1.0  0.03326  0.19748  0.35040  1.0000
  C   C118      1.0  0.05092  0.22742  0.01459  1.0000
  H   H129      1.0  0.28953  0.99133  0.24709  1.0000
  H   H130      1.0  0.31462  0.03772  0.27196  1.0000
  H   H131      1.0  0.21650  0.03648  0.34366  1.0000
  H   H132      1.0  0.04512  0.18447  0.34656  1.0000
  H   H133      1.0  0.32231  0.03961  0.19706  1.0000
  H   H134      1.0  0.31369  0.13033  0.34949  1.0000
  C   C119      1.0  0.06725  0.21732  0.00179  1.0000
  H   H135      1.0  0.15918  0.99520  0.05694  1.0000
  H   H136      1.0  0.12527  0.98573  0.06425  1.0000
  C   C120      1.0  0.16196  0.98770  0.07271  1.0000
  H   H137      1.0  0.08566  0.22765  0.41018  1.0000
  H   H138      1.0  0.31881  0.11364  0.37335  1.0000
  H   H139      1.0  0.30784  0.21824  0.99021  1.0000
  S   S31       1.0  0.32230  0.14108  0.40605  1.0000
  C   C121      1.0  0.29649  0.23168  0.99376  1.0000
  C   C122      1.0  0.09159  0.23169  0.01398  1.0000
  H   H140      1.0  0.22718  0.12552  0.47446  1.0000
  Fe  Fe15      1.0  0.13124  0.11563  0.52114  1.0000
  S   S32       1.0  0.12123  0.14982  0.51999  1.0000
  S   S33       1.0  0.11699  0.09119  0.54520  1.0000
  H   H141      1.0  0.11002  0.03052  0.59778  1.0000
  H   H142      1.0  0.14939  0.02243  0.67103  1.0000
  Fe  Fe16      1.0  0.15546  0.15031  0.51364  1.0000
  S   S34       1.0  0.16977  0.16966  0.52808  1.0000
  N   N7        1.0  0.22992  0.15668  0.47546  1.0000
  C   C123      1.0  0.01843  0.07240  0.75237  1.0000
  S   S35       1.0  0.16524  0.11597  0.51733  1.0000
  H   H143      1.0  0.17257  0.03363  0.60062  1.0000
  Fe  Fe17      1.0  0.07599  0.08197  0.66070  1.0000
  S   S36       1.0  0.04159  0.09014  0.66215  1.0000
  S   S37       1.0  0.09657  0.10261  0.63855  1.0000
  Fe  Fe18      1.0  0.07229  0.04339  0.69349  1.0000
  S   S38       1.0  0.03770  0.04859  0.69739  1.0000
  S   S39       1.0  0.08637  0.01419  0.71253  1.0000
  Fe  Fe19      1.0  0.04324  0.05632  0.66297  1.0000
  S   S40       1.0  0.02593  0.04474  0.64395  1.0000
  Fe  Fe20      1.0  0.03958  0.08161  0.69647  1.0000
  S   S41       1.0  0.07782  0.04872  0.65905  1.0000
  S   S42       1.0  0.07402  0.07599  0.69513  1.0000
  Fe  Fe21      1.0  0.02967  0.20138  0.89691  1.0000
  S   S43       1.0  0.05493  0.18507  0.87558  1.0000
  H   H144      1.0  0.20261  0.17697  0.48837  1.0000
  Fe  Fe22      1.0  0.06038  0.21232  0.91985  1.0000
  S   S44       1.0  0.08787  0.19537  0.90073  1.0000
  C   C124      1.0  0.99463  0.14474  0.89272  1.0000
  Fe  Fe23      1.0  0.07177  0.21086  0.87413  1.0000
  H   H145      1.0  0.04148  0.08419  0.61910  1.0000
  Fe  Fe24      1.0  0.06846  0.17068  0.90389  1.0000
  S   S45       1.0  0.08099  0.13605  0.90826  1.0000
  C   C125      1.0  0.25291  0.13270  0.49950  1.0000
  S   S46       1.0  0.04218  0.18601  0.92576  1.0000
  Fe  Fe25      1.0  0.10766  0.02723  0.81245  1.0000
  S   S47       1.0  0.07331  0.03703  0.82000  1.0000
  S   S48       1.0  0.12314  0.03865  0.78048  1.0000
  Fe  Fe26      1.0  0.11103  0.00546  0.85579  1.0000
  S   S49       1.0  0.07683  0.01426  0.86680  1.0000
  C   C126      1.0  0.20715  0.16280  0.48136  1.0000
  Fe  Fe27      1.0  0.07339  0.00494  0.83789  1.0000
  Fe  Fe28      1.0  0.08023  0.04568  0.84791  1.0000
  S   S50       1.0  0.06273  0.07736  0.85378  1.0000
  H   H146      1.0  0.03662  0.04525  0.86111  1.0000
  S   S51       1.0  0.11473  0.03765  0.83919  1.0000
  Fe  Fe29      1.0  0.29373  0.06372  0.58679  1.0000
  Fe  Fe30      1.0  0.25414  0.09291  0.57777  1.0000
  S   S52       1.0  0.24493  0.07175  0.56133  1.0000
  S   S53       1.0  0.23619  0.12383  0.58405  1.0000
  Fe  Fe31      1.0  0.25424  0.04616  0.58663  1.0000
  Fe  Fe32      1.0  0.27857  0.06677  0.54698  1.0000
  S   S54       1.0  0.26105  0.06798  0.60438  1.0000
  S   S55       1.0  0.28704  0.09031  0.56128  1.0000
  S   S56       1.0  0.05059  0.98367  0.84051  1.0000
  H   H147      1.0  0.16551  0.98960  0.65994  1.0000
  H   H148      1.0  0.23090  0.01779  0.56331  1.0000
  H   H149      1.0  0.02115  0.08389  0.85508  1.0000
  H   H150      1.0  0.07917  0.03640  0.55002  1.0000
  C   C127      1.0  0.04720  0.08926  0.60291  1.0000
  H   H151      1.0  0.06631  0.04764  0.91572  1.0000
  C   C128      1.0  0.22048  0.00890  0.57442  1.0000
  C   C129      1.0  0.06490  0.99942  0.60316  1.0000
  C   C130      1.0  0.07620  0.12016  0.89246  1.0000
  C   C131      1.0  0.05976  0.12628  0.88146  1.0000
  C   C132      1.0  0.05594  0.11299  0.86969  1.0000
  C   C133      1.0  0.06859  0.09354  0.86857  1.0000
  C   C134      1.0  0.08510  0.08744  0.87942  1.0000
  C   C135      1.0  0.08875  0.10062  0.89144  1.0000
  H   H152      1.0  0.04972  0.14104  0.88237  1.0000
  H   H153      1.0  0.04298  0.11776  0.86156  1.0000
  H   H154      1.0  0.09493  0.07250  0.87874  1.0000
  H   H155      1.0  0.10143  0.09570  0.89994  1.0000
  C   C136      1.0  0.18627  0.98871  0.88062  1.0000
  C   C137      1.0  0.00116  0.16272  0.89440  1.0000
  H   H156      1.0  0.22046  0.06732  0.50702  1.0000
  H   H157      1.0  0.01484  0.16147  0.90098  1.0000
  C   C138      1.0  0.99889  0.20521  0.83046  1.0000
  C   C139      1.0  0.09654  0.02092  0.73146  1.0000
  C   C140      1.0  0.09313  0.01031  0.75176  1.0000
  C   C141      1.0  0.10106  0.01585  0.76701  1.0000
  C   C142      1.0  0.11285  0.03166  0.76179  1.0000
  C   C143      1.0  0.11639  0.04213  0.74145  1.0000
  C   C144      1.0  0.10803  0.03693  0.72634  1.0000
  H   H158      1.0  0.08396  0.99818  0.75577  1.0000
  H   H159      1.0  0.09816  0.00785  0.78274  1.0000
  H   H160      1.0  0.12545  0.05441  0.73745  1.0000
  H   H161      1.0  0.11070  0.04518  0.71068  1.0000
  H   H162      1.0  0.03011  0.06269  0.74320  1.0000
  C   C145      1.0  0.04093  0.02677  0.62884  1.0000
  C   C146      1.0  0.03357  0.02392  0.61197  1.0000
  C   C147      1.0  0.04566  0.01053  0.59898  1.0000
  H   H163      1.0  0.29195  0.17824  0.48361  1.0000
  C   C148      1.0  0.02712  0.08888  0.91539  1.0000
  C   C149      1.0  0.05991  0.01522  0.63338  1.0000
  H   H164      1.0  0.01869  0.03247  0.60867  1.0000
  H   H165      1.0  0.04009  0.00872  0.58570  1.0000
  C   C150      1.0  0.32077  0.12540  0.62959  1.0000
  S   S57       1.0  0.28292  0.06872  0.51279  1.0000
  H   H166      1.0  0.00786  0.98363  0.72562  1.0000
  H   H167      1.0  0.03652  0.05055  0.57008  1.0000
  C   C151      1.0  0.11029  0.09543  0.57084  1.0000
  C   C152      1.0  0.11233  0.11379  0.57621  1.0000
  C   C153      1.0  0.10768  0.11610  0.59702  1.0000
  C   C154      1.0  0.10078  0.10019  0.61247  1.0000
  C   C155      1.0  0.09853  0.08202  0.60699  1.0000
  C   C156      1.0  0.10334  0.07967  0.58631  1.0000
  H   H168      1.0  0.11770  0.12609  0.56443  1.0000
  H   H169      1.0  0.10945  0.13022  0.60116  1.0000
  H   H170      1.0  0.09336  0.06963  0.61870  1.0000
  H   H171      1.0  0.10172  0.06552  0.58234  1.0000
  C   C157      1.0  0.18827  0.15635  0.54337  1.0000
  C   C158      1.0  0.20050  0.13739  0.53971  1.0000
  C   C159      1.0  0.21554  0.12745  0.55190  1.0000
  C   C160      1.0  0.21798  0.13614  0.56810  1.0000
  C   C161      1.0  0.20579  0.15509  0.57167  1.0000
  C   C162      1.0  0.19114  0.16526  0.55921  1.0000
  H   H172      1.0  0.19881  0.13064  0.52720  1.0000
  H   H173      1.0  0.22539  0.11321  0.54857  1.0000
  H   H174      1.0  0.20767  0.16198  0.58407  1.0000
  H   H175      1.0  0.18180  0.17998  0.56201  1.0000
  S   S58       1.0  0.23192  0.02445  0.60467  1.0000
  Fe  Fe33      1.0  0.16510  0.12098  0.48350  1.0000
  N   N8        1.0  0.05905  0.09711  0.78361  1.0000
  C   C163      1.0  0.08020  0.08434  0.78103  1.0000
  C   C164      1.0  0.04486  0.08498  0.79896  1.0000
  C   C165      1.0  0.05202  0.10112  0.76347  1.0000
  C   C166      1.0  0.05905  0.11628  0.79108  1.0000
  C   C167      1.0  0.06933  0.11559  0.80760  1.0000
  C   C168      1.0  0.04766  0.13580  0.78337  1.0000
  C   C169      1.0  0.06898  0.13337  0.81532  1.0000
  C   C170      1.0  0.04740  0.15352  0.79123  1.0000
  C   C171      1.0  0.05820  0.15234  0.80703  1.0000
  H   H176      1.0  0.08563  0.07761  0.79586  1.0000
  H   H177      1.0  0.08093  0.07072  0.77380  1.0000
  H   H178      1.0  0.09181  0.09354  0.77118  1.0000
  H   H179      1.0  0.04960  0.08103  0.81433  1.0000
  H   H180      1.0  0.04442  0.07021  0.79428  1.0000
  H   H181      1.0  0.02870  0.09380  0.80104  1.0000
  H   H182      1.0  0.06115  0.11153  0.75163  1.0000
  H   H183      1.0  0.05374  0.08660  0.75735  1.0000
  H   H184      1.0  0.03524  0.10795  0.76464  1.0000
  H   H185      1.0  0.07747  0.10123  0.81504  1.0000
  H   H186      1.0  0.03871  0.13774  0.77137  1.0000
  C   C172      1.0  0.02091  0.00412  0.68907  1.0000
  H   H187      1.0  0.27895  0.13111  0.59409  1.0000
  H   H188      1.0  0.05799  0.16608  0.81308  1.0000
  H   H189      1.0  0.25941  0.14583  0.62419  1.0000
  C   C173      1.0  0.01248  0.06551  0.77360  1.0000
  C   C174      1.0  0.07182  0.00140  0.62063  1.0000
  C   C175      1.0  0.25886  0.14373  0.52925  1.0000
  C   C176      1.0  0.99749  0.07817  0.78556  1.0000
  N   N9        1.0  0.24185  0.05830  0.48032  1.0000
  H   H190      1.0  0.07697  0.13231  0.82800  1.0000
  H   H191      1.0  0.27180  0.11389  0.52106  1.0000
  H   H192      1.0  0.02209  0.10323  0.92130  1.0000
  H   H193      1.0  0.27101  0.10726  0.60659  1.0000
  C   C177      1.0  0.14999  0.98525  0.66229  1.0000
  N   N10       1.0  0.99715  0.22774  0.82952  1.0000
  H   H194      1.0  0.06518  0.01651  0.64697  1.0000
  C   C178      1.0  0.04998  0.98890  0.79888  1.0000
  C   C179      1.0  0.99030  0.05598  0.89219  1.0000
  C   C180      1.0  0.23699  0.16686  0.50670  1.0000
  H   H195      1.0  0.06877  0.10797  0.54558  1.0000
  H   H196      1.0  0.10378  0.01609  0.63391  1.0000
  H   H197      1.0  0.24298  0.17403  0.53423  1.0000
  N   N11       1.0  0.28547  0.12039  0.62503  1.0000
  C   C181      1.0  0.26531  0.13156  0.63454  1.0000
  C   C182      1.0  0.28330  0.11659  0.60487  1.0000
  C   C183      1.0  0.28974  0.09995  0.63855  1.0000
  C   C184      1.0  0.30189  0.13299  0.62192  1.0000
  H   H198      1.0  0.28496  0.18359  0.50933  1.0000
  H   H199      1.0  0.12191  0.03130  0.67319  1.0000
  C   C185      1.0  0.02111  0.04266  0.87005  1.0000
  C   C186      1.0  0.05824  0.08157  0.56785  1.0000
  H   H200      1.0  0.25596  0.12030  0.49088  1.0000
  H   H201      1.0  0.05458  0.08046  0.92906  1.0000
  H   H202      1.0  0.25293  0.12192  0.63814  1.0000
  S   S59       1.0  0.15796  0.15550  0.47946  1.0000
  C   C187      1.0  0.29733  0.18403  0.49542  1.0000
  H   H203      1.0  0.17470  0.00139  0.87497  1.0000
  H   H204      1.0  0.11082  0.98590  0.65729  1.0000
  H   H205      1.0  0.00715  0.00457  0.68213  1.0000
  H   H206      1.0  0.27715  0.09083  0.64060  1.0000
  S   S60       1.0  0.08854  0.22599  0.84421  1.0000
  H   H207      1.0  0.25816  0.02673  0.48423  1.0000
  H   H208      1.0  0.01226  0.04003  0.85894  1.0000
  H   H209      1.0  0.31219  0.18152  0.59921  1.0000
  H   H210      1.0  0.99748  0.99256  0.78186  1.0000
  S   S61       1.0  0.12921  0.98542  0.87959  1.0000
  C   C188      1.0  0.25054  0.03902  0.49344  1.0000
  C   C189      1.0  0.26226  0.12881  0.51688  1.0000
  C   C190      1.0  0.14162  0.03315  0.59682  1.0000
  C   C191      1.0  0.32010  0.19888  0.51980  1.0000
  C   C192      1.0  0.01518  0.16901  0.84049  1.0000
  H   H211      1.0  0.04759  0.99324  0.76682  1.0000
  S   S62       1.0  0.04524  0.22887  0.89261  1.0000
  H   H212      1.0  0.23830  0.03262  0.50557  1.0000
  H   H213      1.0  0.29830  0.20047  0.48860  1.0000
  H   H214      1.0  0.02912  0.07296  0.55156  1.0000
  H   H215      1.0  0.09276  0.05298  0.55752  1.0000
  H   H216      1.0  0.16715  0.01889  0.63705  1.0000
  H   H217      1.0  0.04684  0.03787  0.89420  1.0000
  Fe  Fe34      1.0  0.12471  0.15181  0.48575  1.0000
  C   C193      1.0  0.05904  0.11561  0.57527  1.0000
  S   S63       1.0  0.01755  0.10207  0.71703  1.0000
  C   C194      1.0  0.23989  0.15190  0.49389  1.0000
  C   C195      1.0  0.06869  0.07563  0.53177  1.0000
  C   C196      1.0  0.12237  0.02816  0.60653  1.0000
  H   H218      1.0  0.24370  0.07835  0.50050  1.0000
  H   H219      1.0  0.13186  0.00938  0.69089  1.0000
  C   C197      1.0  0.06233  0.10211  0.56129  1.0000
  H   H220      1.0  0.20373  0.04553  0.64563  1.0000
  C   C198      1.0  0.13418  0.01723  0.67449  1.0000
  S   S64       1.0  0.10740  0.99423  0.82799  1.0000
  H   H221      1.0  0.01440  0.22625  0.85354  1.0000
  C   C199      1.0  0.29937  0.15352  0.61061  1.0000
  H   H222      1.0  0.22339  0.08785  0.48568  1.0000
  H   H223      1.0  0.07332  0.04085  0.57585  1.0000
  H   H224      1.0  0.07092  0.06417  0.52146  1.0000
  C   C200      1.0  0.15749  0.02994  0.60813  1.0000
  C   C201      1.0  0.11903  0.01953  0.62742  1.0000
  H   H225      1.0  0.00096  0.14574  0.83428  1.0000
  C   C202      1.0  0.00960  0.09210  0.74316  1.0000
  N   N12       1.0  0.06150  0.06673  0.55362  1.0000
  H   H226      1.0  0.02676  0.15780  0.84792  1.0000
  N   N13       1.0  0.13301  0.00345  0.66053  1.0000
  H   H227      1.0  0.04951  0.11950  0.60693  1.0000
  C   C203      1.0  0.29644  0.09643  0.47944  1.0000
  H   H228      1.0  0.10533  0.22229  0.93695  1.0000
  H   H229      1.0  0.26541  0.14028  0.54320  1.0000
  S   S65       1.0  0.08000  0.98343  0.58613  1.0000
  C   C204      1.0  0.07731  0.04849  0.55957  1.0000
  H   H230      1.0  0.00957  0.01104  0.80232  1.0000
  C   C205      1.0  0.24623  0.16272  0.52417  1.0000
  N   N14       1.0  0.17339  0.09049  0.59231  1.0000
  C   C206      1.0  0.19404  0.08726  0.57901  1.0000
  C   C207      1.0  0.15881  0.08346  0.58275  1.0000
  C   C208      1.0  0.16698  0.11308  0.59216  1.0000
  C   C209      1.0  0.17312  0.07924  0.61374  1.0000
  C   C210      1.0  0.15467  0.08143  0.62860  1.0000
  C   C211      1.0  0.19082  0.06596  0.62056  1.0000
  C   C212      1.0  0.15397  0.07117  0.64897  1.0000
  C   C213      1.0  0.18995  0.05562  0.64093  1.0000
  C   C214      1.0  0.17163  0.05835  0.65516  1.0000
  H   H231      1.0  0.19973  0.07061  0.57804  1.0000
  H   H232      1.0  0.19353  0.09550  0.56293  1.0000
  H   H233      1.0  0.20566  0.09314  0.58478  1.0000
  H   H234      1.0  0.16452  0.06738  0.57998  1.0000
  H   H235      1.0  0.15658  0.09334  0.56760  1.0000
  H   H236      1.0  0.14329  0.08369  0.59256  1.0000
  H   H237      1.0  0.17702  0.11879  0.60008  1.0000
  H   H238      1.0  0.16804  0.12215  0.57621  1.0000
  H   H239      1.0  0.15063  0.11722  0.59980  1.0000
  H   H240      1.0  0.14061  0.09128  0.62460  1.0000
  H   H241      1.0  0.20564  0.06334  0.61053  1.0000
  H   H242      1.0  0.13964  0.07344  0.65996  1.0000
  H   H243      1.0  0.17117  0.05064  0.67103  1.0000
  H   H244      1.0  0.04731  0.06029  0.59535  1.0000
  H   H245      1.0  0.09961  0.00834  0.66902  1.0000
  H   H246      1.0  0.03863  0.16824  0.78512  1.0000
  H   H247      1.0  0.05734  0.08922  0.52609  1.0000
  H   H248      1.0  0.99904  0.07490  0.85180  1.0000
  C   C215      1.0  0.15432  0.02119  0.62901  1.0000
  C   C216      1.0  0.01569  0.08365  0.90280  1.0000
  C   C217      1.0  0.30030  0.08481  0.49847  1.0000
  H   H249      1.0  0.01958  0.05042  0.78074  1.0000
  C   C218      1.0  0.05058  0.07563  0.58912  1.0000
  H   H250      1.0  0.22714  0.18174  0.50355  1.0000
  S   S66       1.0  0.99030  0.06957  0.81214  1.0000
  S   S67       1.0  0.28773  0.03942  0.57115  1.0000
  H   H251      1.0  0.26663  0.13598  0.64910  1.0000
  H   H252      1.0  0.14421  0.03943  0.58050  1.0000
  H   H253      1.0  0.02729  0.99121  0.65520  1.0000
  C   C219      1.0  0.04175  0.05959  0.55472  1.0000
  H   H254      1.0  0.30469  0.14505  0.51789  1.0000
  C   C220      1.0  0.13525  0.01486  0.63907  1.0000
  S   S68       1.0  0.13197  0.11731  0.48734  1.0000
  C   C221      1.0  0.20949  0.99650  0.56787  1.0000
  H   H255      1.0  0.04325  0.04924  0.54345  1.0000
  H   H256      1.0  0.00160  0.09405  0.89981  1.0000
  H   H257      1.0  0.08399  0.08054  0.52967  1.0000
  N   N15       1.0  0.01047  0.06065  0.88011  1.0000
  H   H258      1.0  0.99149  0.02951  0.77341  1.0000
  C   C222      1.0  0.05153  0.10919  0.59604  1.0000
  H   H259      1.0  0.00338  0.12984  0.89805  1.0000
  C   C223      1.0  0.02248  0.06548  0.89399  1.0000
  C   C224      1.0  0.01449  0.19019  0.83925  1.0000
  C   C225      1.0  0.04065  0.05218  0.89975  1.0000
  H   H260      1.0  0.06294  0.13095  0.57007  1.0000
  C   C226      1.0  0.05197  0.05754  0.91235  1.0000
  C   C227      1.0  0.04536  0.07598  0.91993  1.0000
  H   H261      1.0  0.31485  0.21109  0.50781  1.0000
  C   C228      1.0  0.00654  0.07862  0.86340  1.0000
  S   S69       1.0  0.99635  0.20472  0.89267  1.0000
  C   C229      1.0  0.31578  0.14953  0.50364  1.0000
  H   H262      1.0  0.05670  0.00261  0.79702  1.0000
  H   H263      1.0  0.99256  0.04328  0.90554  1.0000
  C   C230      1.0  0.11310  0.99561  0.66775  1.0000
  H   H264      1.0  0.21157  0.99592  0.55168  1.0000
  H   H265      1.0  0.04284  0.99505  0.71822  1.0000
  C   C231      1.0  0.21831  0.00939  0.59537  1.0000
  H   H266      1.0  0.29798  0.10793  0.59735  1.0000
  H   H267      1.0  0.29138  0.10164  0.65411  1.0000
  H   H268      1.0  0.99616  0.09211  0.86913  1.0000
  C   C232      1.0  0.00061  0.16217  0.83287  1.0000
  C   C233      1.0  0.23193  0.07361  0.49394  1.0000
  H   H269      1.0  0.03244  0.01187  0.67724  1.0000
  H   H270      1.0  0.30407  0.09013  0.63183  1.0000
  C   C234      1.0  0.20479  0.99759  0.60960  1.0000
  C   C235      1.0  0.19593  0.98474  0.58211  1.0000
  H   H271      1.0  0.02303  0.02802  0.88139  1.0000
  H   H272      1.0  0.99540  0.99864  0.82571  1.0000
  H   H273      1.0  0.02601  0.19433  0.84580  1.0000
  H   H274      1.0  0.28563  0.16021  0.60396  1.0000
  H   H275      1.0  0.08629  0.99224  0.62431  1.0000
  H   H276      1.0  0.20425  0.98671  0.85046  1.0000
  H   H277      1.0  0.26200  0.04185  0.50179  1.0000
  H   H278      1.0  0.01541  0.01386  0.70123  1.0000
  C   C236      1.0  0.98960  0.18215  0.88833  1.0000
  H   H279      1.0  0.20315  0.99771  0.62584  1.0000
  N   N16       1.0  0.03019  0.98268  0.69746  1.0000
  H   H280      1.0  0.20038  0.15030  0.49270  1.0000
  H   H281      1.0  0.21381  0.04613  0.48324  1.0000
  H   H282      1.0  0.11240  0.98584  0.68335  1.0000
  C   C237      1.0  0.31796  0.08604  0.50569  1.0000
  N   N17       1.0  0.31746  0.17174  0.50037  1.0000
  C   C238      1.0  0.99461  0.10465  0.75518  1.0000
  C   C239      1.0  0.31456  0.16580  0.60763  1.0000
  C   C240      1.0  0.04764  0.98403  0.70717  1.0000
  H   H283      1.0  0.31030  0.14585  0.49062  1.0000
  H   H284      1.0  0.99244  0.02627  0.81937  1.0000
  S   S70       1.0  0.31945  0.06019  0.60534  1.0000
  H   H285      1.0  0.06068  0.98939  0.69539  1.0000
  H   H286      1.0  0.17025  0.98692  0.91124  1.0000
  C   C241      1.0  0.04481  0.98357  0.78181  1.0000
  H   H287      1.0  0.02959  0.22797  0.82790  1.0000
  C   C242      1.0  0.99430  0.01207  0.81283  1.0000
  H   H288      1.0  0.08363  0.22367  0.80395  1.0000
  C   C243      1.0  0.19351  0.98550  0.60303  1.0000
  C   C244      1.0  0.32253  0.17769  0.51834  1.0000
  H   H289      1.0  0.32103  0.07704  0.52039  1.0000
  Fe  Fe35      1.0  0.18532  0.44012  0.31029  1.0000
  S   S71       1.0  0.15263  0.44878  0.32651  1.0000
  S   S72       1.0  0.21345  0.44094  0.32419  1.0000
  Fe  Fe36      1.0  0.17008  0.42584  0.27589  1.0000
  S   S73       1.0  0.13661  0.43384  0.28989  1.0000
  S   S74       1.0  0.17782  0.41636  0.24444  1.0000
  Fe  Fe37      1.0  0.14545  0.46254  0.29497  1.0000
  S   S75       1.0  0.12905  0.26475  0.97549  1.0000
  Fe  Fe38      1.0  0.14731  0.41894  0.31986  1.0000
  S   S76       1.0  0.13114  0.39616  0.34469  1.0000
  S   S77       1.0  0.17847  0.45550  0.27902  1.0000
  S   S78       1.0  0.18045  0.40918  0.30560  1.0000
  Fe  Fe39      1.0  0.10153  0.25645  0.37089  1.0000
  S   S79       1.0  0.11389  0.26112  0.33705  1.0000
  H   H290      1.0  0.31473  0.30966  0.09848  1.0000
  Fe  Fe40      1.0  0.05891  0.27887  0.36388  1.0000
  S   S80       1.0  0.06779  0.28533  0.32956  1.0000
  S   S81       1.0  0.02716  0.29016  0.38010  1.0000
  Fe  Fe41      1.0  0.08444  0.25243  0.33388  1.0000
  H   H291      1.0  0.27698  0.30470  0.00355  1.0000
  Fe  Fe42      1.0  0.09631  0.29350  0.33608  1.0000
  S   S82       1.0  0.11162  0.31938  0.31567  1.0000
  S   S83       1.0  0.07337  0.24526  0.36791  1.0000
  S   S84       1.0  0.08608  0.28966  0.37018  1.0000
  Fe  Fe43      1.0  0.11124  0.35923  0.19855  1.0000
  S   S85       1.0  0.07699  0.36450  0.20973  1.0000
  S   S86       1.0  0.12792  0.35455  0.22534  1.0000
  Fe  Fe44      1.0  0.10524  0.35812  0.15487  1.0000
  S   S87       1.0  0.07051  0.36332  0.16320  1.0000
  S   S88       1.0  0.12167  0.35634  0.12216  1.0000
  Fe  Fe45      1.0  0.07504  0.38676  0.18026  1.0000
  S   S89       1.0  0.05596  0.41842  0.18083  1.0000
  Fe  Fe46      1.0  0.07630  0.34045  0.19181  1.0000
  S   S90       1.0  0.06049  0.31386  0.20851  1.0000
  S   S91       1.0  0.10947  0.38341  0.17013  1.0000
  S   S92       1.0  0.11078  0.33342  0.18240  1.0000
  Fe  Fe47      1.0  0.12771  0.29106  0.99290  1.0000
  S   S93       1.0  0.09851  0.31251  0.00280  1.0000
  C   C245      1.0  0.29763  0.46185  0.29601  1.0000
  Fe  Fe48      1.0  0.15472  0.31687  0.00615  1.0000
  S   S94       1.0  0.12722  0.34052  0.01571  1.0000
  S   S95       1.0  0.18713  0.32186  0.00637  1.0000
  Fe  Fe49      1.0  0.11235  0.31275  0.03037  1.0000
  S   S96       1.0  0.09359  0.31002  0.06260  1.0000
  H   H292      1.0  0.09126  0.37220  0.26569  1.0000
  S   S97       1.0  0.14043  0.28894  0.02198  1.0000
  C   C246      1.0  0.12634  0.45884  0.19697  1.0000
  Fe  Fe50      1.0  0.27763  0.35278  0.10306  1.0000
  S   S98       1.0  0.28673  0.37897  0.07852  1.0000
  S   S99       1.0  0.29793  0.33704  0.12697  1.0000
  Fe  Fe51      1.0  0.23878  0.35265  0.08519  1.0000
  S   S100      1.0  0.24550  0.37883  0.05958  1.0000
  S   S101      1.0  0.21013  0.33893  0.08732  1.0000
  Fe  Fe52      1.0  0.27840  0.36203  0.05727  1.0000
  H   H293      1.0  0.27097  0.29124  0.02939  1.0000
  Fe  Fe53      1.0  0.25284  0.39290  0.08379  1.0000
  S   S102      1.0  0.24239  0.42720  0.08291  1.0000
  S   S103      1.0  0.27122  0.33477  0.08139  1.0000
  S   S104      1.0  0.24403  0.36778  0.11001  1.0000
  H   H294      1.0  0.03346  0.38702  0.22081  1.0000
  C   C247      1.0  0.23853  0.40935  0.16747  1.0000
  H   H295      1.0  0.02575  0.24159  0.23802  1.0000
  C   C248      1.0  0.05478  0.23975  0.02711  1.0000
  C   C249      1.0  0.30244  0.34080  0.99456  1.0000
  C   C250      1.0  0.22168  0.43688  0.10118  1.0000
  C   C251      1.0  0.21506  0.42456  0.11994  1.0000
  C   C252      1.0  0.21204  0.45762  0.09696  1.0000
  H   H296      1.0  0.22260  0.40867  0.12346  1.0000
  C   C253      1.0  0.03037  0.27799  0.19499  1.0000
  C   C254      1.0  0.19246  0.32785  0.02883  1.0000
  C   C255      1.0  0.20983  0.33697  0.02742  1.0000
  C   C256      1.0  0.21539  0.34047  0.04518  1.0000
  C   C257      1.0  0.20348  0.33505  0.06457  1.0000
  C   C258      1.0  0.18590  0.32625  0.06594  1.0000
  C   C259      1.0  0.18046  0.32256  0.04819  1.0000
  H   H297      1.0  0.21910  0.34136  0.01254  1.0000
  H   H298      1.0  0.22896  0.34726  0.04383  1.0000
  H   H299      1.0  0.17661  0.32194  0.08086  1.0000
  H   H300      1.0  0.16721  0.31528  0.04957  1.0000
  C   C260      1.0  0.19564  0.46597  0.11124  1.0000
  C   C261      1.0  0.11375  0.34270  0.10639  1.0000
  C   C262      1.0  0.12601  0.34057  0.08711  1.0000
  C   C263      1.0  0.11995  0.33054  0.07371  1.0000
  C   C264      1.0  0.10154  0.32250  0.07945  1.0000
  C   C265      1.0  0.08932  0.32446  0.09884  1.0000
  C   C266      1.0  0.09537  0.33456  0.11227  1.0000
  H   H301      1.0  0.14038  0.34655  0.08254  1.0000
  H   H302      1.0  0.12971  0.32880  0.05905  1.0000
  H   H303      1.0  0.07508  0.31825  0.10346  1.0000
  H   H304      1.0  0.08580  0.33609  0.12711  1.0000
  C   C267      1.0  0.06571  0.43479  0.15852  1.0000
  C   C268      1.0  0.07865  0.42631  0.14210  1.0000
  C   C269      1.0  0.08749  0.43924  0.12478  1.0000
  C   C270      1.0  0.03352  0.32058  0.21443  1.0000
  H   H305      1.0  0.99124  0.43214  0.21464  1.0000
  H   H306      1.0  0.08192  0.40976  0.14274  1.0000
  H   H307      1.0  0.09805  0.43255  0.11259  1.0000
  C   C271      1.0  0.99483  0.28227  0.21311  1.0000
  C   C272      1.0  0.06630  0.27736  0.03469  1.0000
  C   C273      1.0  0.09312  0.45343  0.19336  1.0000
  C   C274      1.0  0.06211  0.36615  0.31446  1.0000
  H   H308      1.0  0.13824  0.30693  0.37357  1.0000
  H   H309      1.0  0.16803  0.28420  0.38981  1.0000
  C   C275      1.0  0.29028  0.35132  0.00991  1.0000
  C   C276      1.0  0.19889  0.43304  0.13440  1.0000
  H   H310      1.0  0.01554  0.28412  0.34289  1.0000
  H   H311      1.0  0.25988  0.36742  0.02089  1.0000
  C   C277      1.0  0.12627  0.37434  0.33701  1.0000
  C   C278      1.0  0.13391  0.37051  0.31704  1.0000
  C   C279      1.0  0.12935  0.35354  0.31089  1.0000
  C   C280      1.0  0.11718  0.34017  0.32460  1.0000
  C   C281      1.0  0.10993  0.34363  0.34481  1.0000
  C   C282      1.0  0.11443  0.36071  0.35097  1.0000
  H   H312      1.0  0.14328  0.38072  0.30632  1.0000
  H   H313      1.0  0.13539  0.35068  0.29543  1.0000
  H   H314      1.0  0.10075  0.33331  0.35565  1.0000
  H   H315      1.0  0.10855  0.36352  0.36651  1.0000
  C   C283      1.0  0.16268  0.40043  0.23893  1.0000
  C   C284      1.0  0.16328  0.39873  0.21843  1.0000
  C   C285      1.0  0.15190  0.38543  0.21385  1.0000
  C   C286      1.0  0.14022  0.37348  0.22983  1.0000
  C   C287      1.0  0.13951  0.37540  0.25022  1.0000
  C   C288      1.0  0.15040  0.38904  0.25475  1.0000
  H   H316      1.0  0.17264  0.40762  0.20609  1.0000
  H   H317      1.0  0.15276  0.38387  0.19808  1.0000
  H   H318      1.0  0.13073  0.36599  0.26256  1.0000
  H   H319      1.0  0.14992  0.39022  0.27053  1.0000
  H   H320      1.0  0.04522  0.24920  0.31484  1.0000
  C   C289      1.0  0.24912  0.46049  0.35502  1.0000
  C   C290      1.0  0.23997  0.44866  0.34591  1.0000
  C   C291      1.0  0.22380  0.45778  0.33500  1.0000
  H   H321      1.0  0.19371  0.45778  0.19428  1.0000
  H   H322      1.0  0.26152  0.45290  0.36342  1.0000
  H   H323      1.0  0.24546  0.43215  0.34749  1.0000
  H   H324      1.0  0.09115  0.40222  0.31556  1.0000
  C   C292      1.0  0.07015  0.36349  0.29373  1.0000
  H   H325      1.0  0.22030  0.43188  0.41308  1.0000
  C   C293      1.0  0.07779  0.47456  0.22744  1.0000
  S   S105      1.0  0.16953  0.46422  0.14874  1.0000
  C   C294      1.0  0.27603  0.39836  0.12369  1.0000
  C   C295      1.0  0.02059  0.38445  0.21418  1.0000
  C   C296      1.0  0.99992  0.26546  0.22905  1.0000
  C   C297      1.0  0.99780  0.32332  0.37015  1.0000
  H   H326      1.0  0.29440  0.37305  0.15327  1.0000
  H   H327      1.0  0.99796  0.42530  0.24838  1.0000
  H   H328      1.0  0.06555  0.38266  0.33774  1.0000
  H   H329      1.0  0.20854  0.41326  0.18712  1.0000
  H   H330      1.0  0.10409  0.39729  0.27959  1.0000
  H   H331      1.0  0.02752  0.24290  0.36706  1.0000
  C   C298      1.0  0.04751  0.23533  0.30839  1.0000
  C   C299      1.0  0.08490  0.39171  0.30936  1.0000
  H   H332      1.0  0.11105  0.24402  0.04114  1.0000
  H   H333      1.0  0.03045  0.34183  0.18603  1.0000
  H   H334      1.0  0.99984  0.32819  0.38374  1.0000
  H   H335      1.0  0.07000  0.28875  0.04259  1.0000
  H   H336      1.0  0.00585  0.30158  0.18471  1.0000
  H   H337      1.0  0.23317  0.31331  0.99465  1.0000
  H   H338      1.0  0.08377  0.27865  0.97828  1.0000
  H   H339      1.0  0.10655  0.26523  0.02014  1.0000
  C   C300      1.0  0.27418  0.26366  0.98239  1.0000
  C   C301      1.0  0.18371  0.47159  0.19884  1.0000
  C   C302      1.0  0.00523  0.42029  0.21112  1.0000
  H   H340      1.0  0.30717  0.39471  0.14458  1.0000
  C   C303      1.0  0.02846  0.36891  0.33704  1.0000
  N   N18       1.0  0.17652  0.40792  0.38096  1.0000
  C   C304      1.0  0.18083  0.38753  0.39453  1.0000
  C   C305      1.0  0.15361  0.41420  0.38330  1.0000
  C   C306      1.0  0.18495  0.40498  0.35947  1.0000
  C   C307      1.0  0.18583  0.42416  0.38556  1.0000
  C   C308      1.0  0.18125  0.44499  0.37547  1.0000
  C   C309      1.0  0.20017  0.41984  0.39936  1.0000
  H   H341      1.0  0.15417  0.36030  0.03781  1.0000
  C   C310      1.0  0.24413  0.29937  0.99029  1.0000
  H   H342      1.0  0.06979  0.32974  0.33901  1.0000
  H   H343      1.0  0.17522  0.38878  0.41103  1.0000
  H   H344      1.0  0.17293  0.37594  0.39117  1.0000
  H   H345      1.0  0.19768  0.38089  0.39222  1.0000
  H   H346      1.0  0.14677  0.41818  0.39877  1.0000
  H   H347      1.0  0.14604  0.40174  0.38118  1.0000
  H   H348      1.0  0.14879  0.42774  0.37160  1.0000
  H   H349      1.0  0.17829  0.39300  0.35516  1.0000
  H   H350      1.0  0.18142  0.41940  0.34835  1.0000
  H   H351      1.0  0.20217  0.40058  0.35684  1.0000
  H   H352      1.0  0.25357  0.31373  0.01995  1.0000
  H   H353      1.0  0.17448  0.33832  0.30414  1.0000
  H   H354      1.0  0.08874  0.46993  0.18629  1.0000
  H   H355      1.0  0.28921  0.42872  0.13372  1.0000
  C   C311      1.0  0.26414  0.29952  0.01564  1.0000
  C   C312      1.0  0.00991  0.28833  0.19637  1.0000
  H   H356      1.0  0.16512  0.46924  0.07668  1.0000
  H   H357      1.0  0.04483  0.33086  0.35552  1.0000
  C   C313      1.0  0.03833  0.34158  0.31746  1.0000
  H   H358      1.0  0.99203  0.35051  0.19486  1.0000
  H   H359      1.0  0.26167  0.43439  0.13599  1.0000
  C   C314      1.0  0.21862  0.38190  0.18219  1.0000
  H   H360      1.0  0.31638  0.37332  0.10621  1.0000
  C   C315      1.0  0.02079  0.25482  0.22677  1.0000
  C   C316      1.0  0.09227  0.38890  0.28910  1.0000
  H   H361      1.0  0.29127  0.39154  0.16980  1.0000
  C   C317      1.0  0.99026  0.33105  0.22481  1.0000
  C   C318      1.0  0.05588  0.34047  0.34514  1.0000
  H   H362      1.0  0.24469  0.36375  0.99184  1.0000
  H   H363      1.0  0.00976  0.42257  0.19401  1.0000
  H   H364      1.0  0.07869  0.44714  0.20067  1.0000
  H   H365      1.0  0.05075  0.32933  0.31153  1.0000
  H   H366      1.0  0.02633  0.33334  0.32802  1.0000
  H   H367      1.0  0.03087  0.35122  0.30455  1.0000
  C   C319      1.0  0.00070  0.33983  0.20572  1.0000
  H   H368      1.0  0.12303  0.47589  0.19157  1.0000
  H   H369      1.0  0.17134  0.44936  0.36402  1.0000
  H   H370      1.0  0.23254  0.35201  0.17448  1.0000
  H   H371      1.0  0.20482  0.37670  0.19167  1.0000
  C   C320      1.0  0.02302  0.31124  0.23311  1.0000
  H   H372      1.0  0.03158  0.29978  0.24352  1.0000
  H   H373      1.0  0.02578  0.38648  0.19716  1.0000
  C   C321      1.0  0.25491  0.39552  0.15766  1.0000
  C   C322      1.0  0.02239  0.33491  0.20069  1.0000
  H   H374      1.0  0.03260  0.37751  0.34744  1.0000
  N   N19       1.0  0.16961  0.38838  0.11095  1.0000
  C   C323      1.0  0.15468  0.38430  0.13038  1.0000
  C   C324      1.0  0.16592  0.37669  0.09619  1.0000
  C   C325      1.0  0.19068  0.38003  0.11577  1.0000
  C   C326      1.0  0.16793  0.41059  0.10165  1.0000
  C   C327      1.0  0.18229  0.41723  0.08396  1.0000
  C   C328      1.0  0.15214  0.42616  0.10956  1.0000
  C   C329      1.0  0.18121  0.43813  0.07506  1.0000
  C   C330      1.0  0.15114  0.44700  0.10044  1.0000
  C   C331      1.0  0.16566  0.45298  0.08329  1.0000
  H   H375      1.0  0.13839  0.38923  0.12780  1.0000
  H   H376      1.0  0.15633  0.36746  0.13698  1.0000
  H   H377      1.0  0.15699  0.39232  0.14229  1.0000
  H   H378      1.0  0.15036  0.38245  0.09192  1.0000
  H   H379      1.0  0.16672  0.35989  0.10279  1.0000
  H   H380      1.0  0.17767  0.37756  0.08182  1.0000
  H   H381      1.0  0.19456  0.38896  0.12606  1.0000
  H   H382      1.0  0.19221  0.36346  0.12337  1.0000
  H   H383      1.0  0.20276  0.38034  0.10171  1.0000
  H   H384      1.0  0.19470  0.40634  0.07701  1.0000
  H   H385      1.0  0.14053  0.42282  0.12299  1.0000
  H   H386      1.0  0.19290  0.44289  0.06209  1.0000
  H   H387      1.0  0.13925  0.45866  0.10699  1.0000
  H   H388      1.0  0.20335  0.34601  0.31693  1.0000
  H   H389      1.0  0.23530  0.29066  0.98401  1.0000
  H   H390      1.0  0.10289  0.26983  0.04594  1.0000
  C   C332      1.0  0.28194  0.47511  0.30628  1.0000
  C   C333      1.0  0.06137  0.45627  0.15741  1.0000
  H   H391      1.0  0.17796  0.45805  0.23084  1.0000
  H   H392      1.0  0.99507  0.27502  0.26649  1.0000
  C   C334      1.0  0.22077  0.40249  0.17965  1.0000
  H   H393      1.0  0.06098  0.34908  0.35493  1.0000
  H   H394      1.0  0.02163  0.38045  0.32471  1.0000
  C   C335      1.0  0.00151  0.31689  0.23851  1.0000
  H   H395      1.0  0.00694  0.24851  0.26790  1.0000
  C   C336      1.0  0.25215  0.37466  0.16053  1.0000
  H   H396      1.0  0.20498  0.40447  0.40746  1.0000
  Fe  Fe54      1.0  0.11644  0.33785  0.98737  1.0000
  H   H397      1.0  0.18465  0.37761  0.03002  1.0000
  N   N20       1.0  0.08928  0.29568  0.25947  1.0000
  C   C337      1.0  0.10073  0.28849  0.27694  1.0000
  C   C338      1.0  0.09072  0.27798  0.24906  1.0000
  C   C339      1.0  0.10003  0.31140  0.24453  1.0000
  C   C340      1.0  0.06721  0.30358  0.26723  1.0000
  C   C341      1.0  0.05728  0.32419  0.26077  1.0000
  C   C342      1.0  0.05489  0.29042  0.28168  1.0000
  C   C343      1.0  0.03638  0.33105  0.26842  1.0000
  C   C344      1.0  0.03404  0.29744  0.28931  1.0000
  C   C345      1.0  0.02480  0.31772  0.28268  1.0000
  H   H398      1.0  0.09526  0.27499  0.28779  1.0000
  H   H399      1.0  0.11762  0.28347  0.27161  1.0000
  H   H400      1.0  0.09912  0.30109  0.28582  1.0000
  H   H401      1.0  0.08511  0.26448  0.25980  1.0000
  H   H402      1.0  0.10698  0.27233  0.24200  1.0000
  H   H403      1.0  0.08133  0.28247  0.23654  1.0000
  H   H404      1.0  0.09281  0.31685  0.23049  1.0000
  H   H405      1.0  0.10011  0.32497  0.25147  1.0000
  H   H406      1.0  0.11660  0.30513  0.23904  1.0000
  H   H407      1.0  0.06520  0.33515  0.24941  1.0000
  H   H408      1.0  0.06138  0.27451  0.28712  1.0000
  H   H409      1.0  0.02902  0.34665  0.26287  1.0000
  H   H410      1.0  0.02498  0.28702  0.30031  1.0000
  H   H411      1.0  0.00855  0.32305  0.28840  1.0000
  H   H412      1.0  0.18022  0.26248  0.34112  1.0000
  C   C346      1.0  0.20912  0.43551  0.40282  1.0000
  H   H413      1.0  0.04160  0.24728  0.03676  1.0000
  H   H414      1.0  0.10052  0.44501  0.18038  1.0000
  N   N21       1.0  0.10718  0.45104  0.20831  1.0000
  C   C347      1.0  0.00954  0.30493  0.36454  1.0000
  C   C348      1.0  0.23424  0.36804  0.17257  1.0000
  H   H415      1.0  0.11004  0.47075  0.26969  1.0000
  H   H416      1.0  0.15657  0.27583  0.33248  1.0000
  C   C349      1.0  0.10079  0.25892  0.03652  1.0000
  H   H417      1.0  0.15593  0.31060  0.32308  1.0000
  H   H418      1.0  0.04937  0.27757  0.03952  1.0000
  C   C350      1.0  0.10937  0.46115  0.24143  1.0000
  N   N22       1.0  0.00123  0.39898  0.21995  1.0000
  H   H419      1.0  0.04213  0.28323  0.18236  1.0000
  C   C351      1.0  0.19530  0.33357  0.32551  1.0000
  H   H420      1.0  0.26196  0.40621  0.11705  1.0000
  C   C352      1.0  0.08499  0.37476  0.28132  1.0000
  C   C353      1.0  0.29245  0.38987  0.15354  1.0000
  N   N23       1.0  0.25323  0.28645  0.00805  1.0000
  H   H421      1.0  0.12489  0.45223  0.24111  1.0000
  C   C354      1.0  0.08340  0.46069  0.12370  1.0000
  H   H422      1.0  0.24089  0.27307  0.03928  1.0000
  H   H423      1.0  0.01595  0.36059  0.34652  1.0000
  H   H424      1.0  0.11914  0.41965  0.20355  1.0000
  H   H425      1.0  0.19390  0.42356  0.14897  1.0000
  C   C355      1.0  0.99162  0.31041  0.33557  1.0000
  H   H426      1.0  0.01845  0.42362  0.21668  1.0000
  H   H427      1.0  0.18656  0.47627  0.37113  1.0000
  N   N24       1.0  0.07878  0.25645  0.03967  1.0000
  H   H428      1.0  0.13091  0.28235  0.37520  1.0000
  H   H429      1.0  0.13241  0.30010  0.35148  1.0000
  H   H430      1.0  0.16038  0.26129  0.38700  1.0000
  H   H431      1.0  0.13333  0.45154  0.18317  1.0000
  H   H432      1.0  0.19607  0.29760  0.36880  1.0000
  N   N25       1.0  0.10998  0.41522  0.06539  1.0000
  C   C356      1.0  0.10958  0.43644  0.06880  1.0000
  C   C357      1.0  0.09464  0.41683  0.05197  1.0000
  C   C358      1.0  0.10324  0.40252  0.08563  1.0000
  C   C359      1.0  0.13064  0.40522  0.05581  1.0000
  C   C360      1.0  0.13332  0.38524  0.05080  1.0000
  C   C361      1.0  0.14853  0.41473  0.05117  1.0000
  C   C362      1.0  0.15258  0.37551  0.04160  1.0000
  C   C363      1.0  0.16775  0.40481  0.04196  1.0000
  C   C364      1.0  0.16976  0.38525  0.03720  1.0000
  H   H433      1.0  0.12015  0.43648  0.07944  1.0000
  H   H434      1.0  0.11393  0.44701  0.05410  1.0000
  H   H435      1.0  0.09385  0.44365  0.07596  1.0000
  C   C365      1.0  0.21701  0.47934  0.33314  1.0000
  H   H436      1.0  0.09206  0.40143  0.05054  1.0000
  H   H437      1.0  0.09983  0.42511  0.03615  1.0000
  H   H438      1.0  0.11440  0.40073  0.09619  1.0000
  H   H439      1.0  0.08774  0.40953  0.09339  1.0000
  H   H440      1.0  0.10194  0.38664  0.08433  1.0000
  H   H441      1.0  0.06556  0.35254  0.28681  1.0000
  H   H442      1.0  0.14814  0.42986  0.05443  1.0000
  C   C366      1.0  0.00664  0.29850  0.34710  1.0000
  H   H443      1.0  0.18120  0.41233  0.03841  1.0000
  H   H444      1.0  0.10766  0.23292  0.01255  1.0000
  H   H445      1.0  0.18601  0.26563  0.37566  1.0000
  S   S106      1.0  0.30172  0.35470  0.02962  1.0000
  H   H446      1.0  0.15561  0.25617  0.35484  1.0000
  C   C367      1.0  0.18912  0.45373  0.13004  1.0000
  C   C368      1.0  0.27670  0.25291  0.01846  1.0000
  C   C369      1.0  0.19004  0.46055  0.37930  1.0000
  N   N26       1.0  0.27408  0.40209  0.14488  1.0000
  H   H447      1.0  0.25629  0.30538  0.97782  1.0000
  C   C370      1.0  0.26789  0.26769  0.00284  1.0000
  N   N27       1.0  0.16216  0.28474  0.35950  1.0000
  C   C371      1.0  0.16373  0.26918  0.34639  1.0000
  C   C372      1.0  0.16960  0.27359  0.37879  1.0000
  C   C373      1.0  0.14002  0.29394  0.36516  1.0000
  C   C374      1.0  0.17392  0.30122  0.34798  1.0000
  C   C375      1.0  0.19071  0.30597  0.35486  1.0000
  C   C376      1.0  0.16851  0.31328  0.32929  1.0000
  C   C377      1.0  0.20118  0.32193  0.34369  1.0000
  C   C378      1.0  0.17905  0.32921  0.31830  1.0000
  H   H448      1.0  0.98977  0.36368  0.24494  1.0000
  H   H449      1.0  0.22797  0.26964  0.01977  1.0000
  S   S107      1.0  0.09582  0.47661  0.10261  1.0000
  C   C379      1.0  0.26931  0.35915  0.00920  1.0000
  H   H450      1.0  0.27341  0.25528  0.03423  1.0000
  H   H451      1.0  0.27366  0.42824  0.15878  1.0000
  C   C380      1.0  0.27458  0.42435  0.14339  1.0000
  C   C381      1.0  0.24258  0.48191  0.35333  1.0000
  C   C382      1.0  0.09796  0.46222  0.22568  1.0000
  N   N28       1.0  0.04647  0.35444  0.32813  1.0000
  H   H452      1.0  0.12053  0.37691  0.05398  1.0000
  C   C383      1.0  0.11260  0.42859  0.21627  1.0000
  H   H453      1.0  0.07916  0.42536  0.05808  1.0000
  H   H454      1.0  0.99229  0.24543  0.36245  1.0000
  C   C384      1.0  0.20407  0.45581  0.39281  1.0000
  H   H455      1.0  0.05145  0.46292  0.17008  1.0000
  H   H456      1.0  0.26384  0.36328  0.15341  1.0000
  C   C385      1.0  0.26073  0.35710  0.99272  1.0000
  H   H457      1.0  0.23893  0.42557  0.16594  1.0000
  H   H458      1.0  0.26629  0.47174  0.31046  1.0000
  H   H459      1.0  0.27829  0.38164  0.12314  1.0000
  H   H460      1.0  0.21396  0.32530  0.34914  1.0000
  H   H461      1.0  0.09873  0.42225  0.22540  1.0000
  H   H462      1.0  0.13865  0.45563  0.20651  1.0000
  S   S108      1.0  0.12545  0.23989  0.39046  1.0000
  C   C386      1.0  0.23581  0.28048  0.02441  1.0000
  C   C387      1.0  0.07019  0.38042  0.32194  1.0000
  H   H463      1.0  0.12446  0.42515  0.22632  1.0000
  H   H464      1.0  0.22386  0.29414  0.02778  1.0000
  H   H465      1.0  0.06808  0.47675  0.21603  1.0000
  C   C388      1.0  0.07036  0.46920  0.14009  1.0000
  H   H466      1.0  0.28955  0.40424  0.11316  1.0000
  C   C389      1.0  0.17465  0.47167  0.21938  1.0000
  C   C390      1.0  0.10108  0.47174  0.25785  1.0000
  S   S109      1.0  0.14514  0.31662  0.97631  1.0000
  H   H467      1.0  0.21141  0.46783  0.39512  1.0000
  H   H468      1.0  0.21722  0.46725  0.08253  1.0000
  H   H469      1.0  0.31859  0.33451  0.99516  1.0000
  H   H470      1.0  0.06924  0.28334  0.01784  1.0000
  C   C391      1.0  0.03576  0.26117  0.21008  1.0000
  H   H471      1.0  0.01883  0.36804  0.21964  1.0000
  C   C392      1.0  0.98938  0.37592  0.25315  1.0000
  H   H472      1.0  0.07522  0.25807  0.07179  1.0000
  C   C393      1.0  0.07240  0.24810  0.06177  1.0000
  H   H473      1.0  0.31112  0.28937  0.00644  1.0000
  H   H474      1.0  0.31200  0.32191  0.06163  1.0000
  C   C394      1.0  0.07523  0.24258  0.02692  1.0000
  H   H475      1.0  0.29416  0.44823  0.29222  1.0000
  H   H476      1.0  0.01619  0.24050  0.30284  1.0000
  H   H477      1.0  0.99365  0.31000  0.25306  1.0000
  C   C395      1.0  0.99395  0.41024  0.25492  1.0000
  C   C396      1.0  0.32049  0.27712  0.99875  1.0000
  H   H478      1.0  0.31451  0.29633  0.05700  1.0000
  C   C397      1.0  0.99485  0.39522  0.24263  1.0000
  C   C398      1.0  0.31775  0.46609  0.29072  1.0000
  H   H479      1.0  0.05170  0.25316  0.20893  1.0000
  C   C399      1.0  0.29059  0.23509  0.01396  1.0000
  H   H480      1.0  0.31431  0.28464  0.09334  1.0000
  H   H481      1.0  0.05563  0.24716  0.06579  1.0000
  C   C400      1.0  0.28840  0.24598  0.97801  1.0000
  H   H482      1.0  0.18831  0.48199  0.10784  1.0000
  C   C401      1.0  0.99220  0.25941  0.26635  1.0000
  C   C402      1.0  0.29377  0.33852  0.97830  1.0000
  C   C403      1.0  0.27308  0.34705  0.97707  1.0000
  H   H483      1.0  0.08122  0.23226  0.06607  1.0000
  S   S110      1.0  0.11473  0.48212  0.14720  1.0000
  C   C404      1.0  0.32252  0.34367  0.12561  1.0000
  H   H484      1.0  0.07910  0.32086  0.81272  1.0000
  C   C405      1.0  0.28835  0.46723  0.76587  1.0000
  C   C406      1.0  0.11544  0.24178  0.95326  1.0000
  C   C407      1.0  0.08929  0.34183  0.88124  1.0000
  H   H485      1.0  0.02347  0.32177  0.72335  1.0000
  H   H486      1.0  0.13496  0.28117  0.92788  1.0000
  C   C408      1.0  0.26167  0.40634  0.81321  1.0000
  H   H487      1.0  0.25678  0.40140  0.87734  1.0000
  H   H488      1.0  0.01150  0.32081  0.69492  1.0000
  Fe  Fe55      1.0  0.28821  0.31024  0.89631  1.0000
  S   S111      1.0  0.26873  0.30001  0.87841  1.0000
  N   N29       1.0  0.12399  0.31405  0.92023  1.0000
  S   S112      1.0  0.28653  0.29851  0.93015  1.0000
  Fe  Fe56      1.0  0.00713  0.35757  0.76208  1.0000
  S   S113      1.0  0.01391  0.37557  0.78382  1.0000
  C   C409      1.0  0.31226  0.36871  0.82372  1.0000
  Fe  Fe57      1.0  0.02512  0.31639  0.78603  1.0000
  S   S114      1.0  0.03277  0.33038  0.81009  1.0000
  S   S115      1.0  0.03107  0.28264  0.78414  1.0000
  Fe  Fe58      1.0  0.00171  0.35056  0.80838  1.0000
  Fe  Fe59      1.0  0.04485  0.35412  0.78390  1.0000
  S   S116      1.0  0.07794  0.36017  0.78119  1.0000
  C   C410      1.0  0.18941  0.28354  0.95384  1.0000
  S   S117      1.0  0.03923  0.33842  0.75964  1.0000
  Fe  Fe60      1.0  0.17584  0.40463  0.86838  1.0000
  S   S118      1.0  0.16896  0.38105  0.85308  1.0000
  S   S119      1.0  0.17858  0.39768  0.90170  1.0000
  Fe  Fe61      1.0  0.18355  0.43562  0.82881  1.0000
  S   S120      1.0  0.17684  0.41463  0.80994  1.0000
  Fe  Fe62      1.0  0.15003  0.40799  0.83536  1.0000
  S   S121      1.0  0.11654  0.40755  0.83273  1.0000
  Fe  Fe63      1.0  0.19605  0.38948  0.82914  1.0000
  S   S122      1.0  0.22049  0.36577  0.81496  1.0000
  S   S123      1.0  0.15502  0.43131  0.85282  1.0000
  S   S124      1.0  0.20466  0.41073  0.84588  1.0000
  H   H489      1.0  0.12263  0.37565  0.87139  1.0000
  H   H490      1.0  0.10936  0.32239  0.78524  1.0000
  H   H491      1.0  0.30950  0.24246  0.47623  1.0000
  H   H492      1.0  0.15080  0.41955  0.74545  1.0000
  C   C411      1.0  0.05742  0.25827  0.83466  1.0000
  H   H493      1.0  0.29596  0.48045  0.75914  1.0000
  C   C412      1.0  0.10837  0.31502  0.93935  1.0000
  H   H494      1.0  0.24610  0.43710  0.85946  1.0000
  C   C413      1.0  0.08823  0.37379  0.79549  1.0000
  C   C414      1.0  0.07573  0.38453  0.81057  1.0000
  C   C415      1.0  0.08468  0.39483  0.82166  1.0000
  C   C416      1.0  0.10627  0.39419  0.81819  1.0000
  C   C417      1.0  0.11881  0.38330  0.80323  1.0000
  C   C418      1.0  0.10981  0.37340  0.79181  1.0000
  H   H495      1.0  0.05912  0.38506  0.81358  1.0000
  H   H496      1.0  0.07477  0.40330  0.83310  1.0000
  H   H497      1.0  0.13541  0.38279  0.80023  1.0000
  H   H498      1.0  0.11968  0.36520  0.78015  1.0000
  H   H499      1.0  0.29360  0.24362  0.96220  1.0000
  S   S125      1.0  0.30386  0.44791  0.63886  1.0000
  C   C419      1.0  0.25604  0.31908  0.86079  1.0000
  C   C420      1.0  0.24861  0.33937  0.86432  1.0000
  C   C421      1.0  0.23734  0.35379  0.85051  1.0000
  C   C422      1.0  0.23415  0.34811  0.83279  1.0000
  C   C423      1.0  0.24207  0.32801  0.82907  1.0000
  C   C424      1.0  0.25258  0.31345  0.84322  1.0000
  H   H500      1.0  0.25115  0.34390  0.87783  1.0000
  H   H501      1.0  0.23136  0.36930  0.85347  1.0000
  H   H502      1.0  0.23966  0.32354  0.81543  1.0000
  H   H503      1.0  0.25819  0.29778  0.84046  1.0000
  H   H504      1.0  0.23891  0.47113  0.56610  1.0000
  H   H505      1.0  0.15598  0.31792  0.91028  1.0000
  C   C425      1.0  0.20515  0.34693  0.91364  1.0000
  H   H506      1.0  0.27892  0.39083  0.77943  1.0000
  H   H507      1.0  0.04931  0.27863  0.91382  1.0000
  C   C426      1.0  0.12427  0.37309  0.94614  1.0000
  C   C427      1.0  0.12219  0.38179  0.92575  1.0000
  C   C428      1.0  0.13886  0.38933  0.91186  1.0000
  C   C429      1.0  0.15736  0.38868  0.91859  1.0000
  C   C430      1.0  0.15925  0.38032  0.93906  1.0000
  C   C431      1.0  0.14289  0.37217  0.95273  1.0000
  H   H508      1.0  0.10777  0.38256  0.92065  1.0000
  H   H509      1.0  0.13728  0.39594  0.89609  1.0000
  H   H510      1.0  0.17338  0.38027  0.94436  1.0000
  C   C432      1.0  0.11896  0.42105  0.76021  1.0000
  H   H511      1.0  0.27870  0.40155  0.81268  1.0000
  H   H512      1.0  0.10535  0.30036  0.77710  1.0000
  C   C433      1.0  0.04517  0.27142  0.82098  1.0000
  C   C434      1.0  0.04649  0.26698  0.80138  1.0000
  C   C435      1.0  0.06003  0.24953  0.79545  1.0000
  H   H513      1.0  0.20780  0.45982  0.85137  1.0000
  H   H514      1.0  0.03446  0.28472  0.82574  1.0000
  H   H515      1.0  0.06105  0.24605  0.78033  1.0000
  H   H516      1.0  0.01032  0.27307  0.71301  1.0000
  H   H517      1.0  0.19235  0.30910  0.96590  1.0000
  H   H518      1.0  0.14950  0.28292  0.85845  1.0000
  H   H519      1.0  0.21968  0.30723  0.90166  1.0000
  C   C436      1.0  0.31139  0.44299  0.67797  1.0000
  C   C437      1.0  0.28930  0.40292  0.86979  1.0000
  C   C438      1.0  0.23423  0.42265  0.79405  1.0000
  H   H520      1.0  0.09002  0.31416  0.90355  1.0000
  H   H521      1.0  0.09387  0.31003  0.93845  1.0000
  H   H522      1.0  0.30317  0.33018  0.96675  1.0000
  H   H523      1.0  0.13865  0.29166  0.90075  1.0000
  H   H524      1.0  0.99752  0.25558  0.80646  1.0000
  H   H525      1.0  0.22540  0.40964  0.79948  1.0000
  H   H526      1.0  0.22819  0.43332  0.80525  1.0000
  H   H527      1.0  0.21106  0.34202  0.89846  1.0000
  C   C439      1.0  0.07137  0.24111  0.82844  1.0000
  H   H528      1.0  0.03137  0.28677  0.71045  1.0000
  H   H529      1.0  0.14994  0.30552  0.93641  1.0000
  H   H530      1.0  0.27200  0.45859  0.84174  1.0000
  C   C440      1.0  0.10961  0.25754  0.96523  1.0000
  H   H531      1.0  0.30558  0.44920  0.74316  1.0000
  H   H532      1.0  0.10906  0.45714  0.81980  1.0000
  H   H533      1.0  0.23014  0.43101  0.77897  1.0000
  H   H534      1.0  0.25190  0.45197  0.80605  1.0000
  H   H535      1.0  0.11427  0.30492  0.95295  1.0000
  H   H536      1.0  0.99359  0.30522  0.69407  1.0000
  C   C441      1.0  0.09822  0.35926  0.87226  1.0000
  S   S126      1.0  0.28557  0.34343  0.89846  1.0000
  H   H537      1.0  0.02262  0.25767  0.92493  1.0000
  C   C442      1.0  0.09789  0.32707  0.89656  1.0000
  H   H538      1.0  0.25434  0.39245  0.82024  1.0000
  C   C443      1.0  0.12474  0.34718  0.89350  1.0000
  C   C444      1.0  0.01418  0.23317  0.83708  1.0000
  H   H539      1.0  0.10399  0.33107  0.94262  1.0000
  H   H540      1.0  0.20834  0.27434  0.90529  1.0000
  C   C445      1.0  0.11589  0.32929  0.90319  1.0000
  H   H541      1.0  0.18111  0.27655  0.96842  1.0000
  C   C446      1.0  0.11593  0.36187  0.87830  1.0000
  C   C447      1.0  0.20450  0.28236  0.91829  1.0000
  H   H542      1.0  0.18791  0.34931  0.91637  1.0000
  S   S127      1.0  0.19413  0.46582  0.81179  1.0000
  H   H543      1.0  0.05747  0.26597  0.96551  1.0000
  H   H544      1.0  0.07541  0.34000  0.87653  1.0000
  C   C448      1.0  0.31012  0.32339  0.80929  1.0000
  C   C449      1.0  0.07370  0.25932  0.96180  1.0000
  C   C450      1.0  0.32126  0.44665  0.69284  1.0000
  Fe  Fe64      1.0  0.28671  0.33132  0.93186  1.0000
  C   C451      1.0  0.12537  0.45931  0.81369  1.0000
  H   H545      1.0  0.25916  0.40392  0.76426  1.0000
  C   C452      1.0  0.01104  0.31433  0.73416  1.0000
  H   H546      1.0  0.01309  0.32120  0.87226  1.0000
  S   S128      1.0  0.05963  0.23355  0.94291  1.0000
  H   H547      1.0  0.18997  0.34452  0.95426  1.0000
  H   H548      1.0  0.13817  0.35054  0.89771  1.0000
  H   H549      1.0  0.14142  0.33272  0.92988  1.0000
  C   C453      1.0  0.22832  0.48180  0.84751  1.0000
  H   H550      1.0  0.23070  0.47763  0.86332  1.0000
  C   C454      1.0  0.21532  0.47164  0.84075  1.0000
  C   C455      1.0  0.26811  0.43276  0.78320  1.0000
  H   H551      1.0  0.24342  0.31805  0.93843  1.0000
  H   H552      1.0  0.23991  0.47904  0.64059  1.0000
  H   H553      1.0  0.99478  0.25023  0.88355  1.0000
  H   H554      1.0  0.04512  0.31055  0.88747  1.0000
  C   C456      1.0  0.03304  0.30122  0.89225  1.0000
  C   C457      1.0  0.21142  0.47737  0.82060  1.0000
  N   N30       1.0  0.21358  0.33199  0.93072  1.0000
  C   C458      1.0  0.20713  0.34170  0.94943  1.0000
  C   C459      1.0  0.20660  0.31200  0.93319  1.0000
  C   C460      1.0  0.19588  0.30239  0.95213  1.0000
  H   H555      1.0  0.29476  0.32902  0.80545  1.0000
  H   H556      1.0  0.24232  0.34358  0.92334  1.0000
  H   H557      1.0  0.02085  0.27337  0.73518  1.0000
  H   H558      1.0  0.05646  0.26167  0.84981  1.0000
  N   N31       1.0  0.31441  0.44867  0.83847  1.0000
  C   C461      1.0  0.13839  0.42683  0.75615  1.0000
  H   H559      1.0  0.08810  0.42509  0.77772  1.0000
  C   C462      1.0  0.00138  0.27668  0.90466  1.0000
  C   C463      1.0  0.99762  0.31442  0.70401  1.0000
  H   H560      1.0  0.99931  0.32690  0.74024  1.0000
  H   H561      1.0  0.24281  0.32213  0.91149  1.0000
  H   H562      1.0  0.31851  0.43833  0.70845  1.0000
  C   C464      1.0  0.26341  0.45080  0.79225  1.0000
  H   H563      1.0  0.27689  0.46103  0.55473  1.0000
  C   C465      1.0  0.27326  0.46781  0.78355  1.0000
  H   H564      1.0  0.29881  0.30513  0.83821  1.0000
  H   H565      1.0  0.13522  0.44399  0.81748  1.0000
  H   H566      1.0  0.01859  0.30494  0.74704  1.0000
  H   H567      1.0  0.25331  0.38562  0.78722  1.0000
  H   H568      1.0  0.32022  0.40787  0.86109  1.0000
  C   C466      1.0  0.03534  0.28335  0.90709  1.0000
  C   C467      1.0  0.31529  0.45337  0.65762  1.0000
  C   C468      1.0  0.12603  0.45127  0.78031  1.0000
  C   C469      1.0  0.01671  0.28294  0.72050  1.0000
  H   H569      1.0  0.00376  0.23446  0.91854  1.0000
  N   N32       1.0  0.00154  0.30185  0.72423  1.0000
  N   N33       1.0  0.25692  0.41524  0.79234  1.0000
  C   C470      1.0  0.10647  0.44490  0.78415  1.0000
  H   H570      1.0  0.21420  0.33206  0.96260  1.0000
  H   H571      1.0  0.11629  0.40927  0.75285  1.0000
  C   C471      1.0  0.26237  0.39827  0.78017  1.0000
  H   H572      1.0  0.11349  0.28751  0.91501  1.0000
  C   C472      1.0  0.27739  0.44308  0.84935  1.0000
  C   C473      1.0  0.14199  0.44172  0.76598  1.0000
  H   H573      1.0  0.25599  0.41753  0.82394  1.0000
  C   C474      1.0  0.01974  0.27129  0.91338  1.0000
  C   C475      1.0  0.07273  0.23684  0.80882  1.0000
  H   H574      1.0  0.30117  0.43172  0.68211  1.0000
  C   C476      1.0  0.15050  0.47196  0.78552  1.0000
  S   S129      1.0  0.26255  0.34516  0.95612  1.0000
  H   H575      1.0  0.30834  0.35049  0.85427  1.0000
  C   C477      1.0  0.26243  0.43090  0.85939  1.0000
  H   H576      1.0  0.09137  0.37090  0.86067  1.0000
  H   H577      1.0  0.20955  0.36237  0.91190  1.0000
  N   N34       1.0  0.10548  0.29599  0.80969  1.0000
  C   C478      1.0  0.11291  0.30518  0.78803  1.0000
  C   C479      1.0  0.10842  0.27325  0.81093  1.0000
  C   C480      1.0  0.08291  0.30369  0.81492  1.0000
  C   C481      1.0  0.11657  0.30216  0.82352  1.0000
  C   C482      1.0  0.11535  0.32339  0.82395  1.0000
  C   C483      1.0  0.12904  0.28765  0.83657  1.0000
  C   C484      1.0  0.12634  0.32981  0.83609  1.0000
  C   C485      1.0  0.13985  0.29423  0.84886  1.0000
  C   C486      1.0  0.13859  0.31527  0.84853  1.0000
  H   H578      1.0  0.12999  0.30053  0.78367  1.0000
  H   H579      1.0  0.12498  0.26642  0.80629  1.0000
  H   H580      1.0  0.09963  0.26910  0.80061  1.0000
  H   H581      1.0  0.10267  0.26537  0.82675  1.0000
  H   H582      1.0  0.07409  0.29907  0.80493  1.0000
  H   H583      1.0  0.07668  0.29747  0.83119  1.0000
  H   H584      1.0  0.10599  0.33521  0.81463  1.0000
  H   H585      1.0  0.13084  0.27114  0.83748  1.0000
  H   H586      1.0  0.12546  0.34620  0.83569  1.0000
  H   H587      1.0  0.26915  0.48156  0.79051  1.0000
  H   H588      1.0  0.14721  0.32038  0.85777  1.0000
  C   C487      1.0  0.21090  0.30127  0.91637  1.0000
  C   C488      1.0  0.07946  0.24320  0.95023  1.0000
  C   C489      1.0  0.23650  0.32876  0.92572  1.0000
  H   H589      1.0  0.99463  0.28817  0.76639  1.0000
  H   H590      1.0  0.01242  0.25017  0.83606  1.0000
  H   H591      1.0  0.28897  0.41932  0.75772  1.0000
  C   C490      1.0  0.28382  0.43256  0.76532  1.0000
  C   C491      1.0  0.19365  0.27357  0.93697  1.0000
  C   C492      1.0  0.10304  0.43008  0.77417  1.0000
  C   C493      1.0  0.31231  0.31000  0.82781  1.0000
  C   C494      1.0  0.29887  0.43551  0.84934  1.0000
  C   C495      1.0  0.99744  0.23876  0.80794  1.0000
  H   H592      1.0  0.09375  0.45098  0.79526  1.0000
  H   H593      1.0  0.31014  0.46456  0.86391  1.0000
  H   H594      1.0  0.18878  0.25886  0.93849  1.0000
  H   H595      1.0  0.29958  0.36393  0.81948  1.0000
  C   C496      1.0  0.12793  0.29277  0.91566  1.0000
  C   C497      1.0  0.14370  0.31781  0.92426  1.0000
  H   H596      1.0  0.21225  0.35693  0.94685  1.0000
  H   H597      1.0  0.16240  0.45813  0.78942  1.0000
  S   S130      1.0  0.10384  0.36280  0.96321  1.0000
  C   C498      1.0  0.29367  0.44962  0.75684  1.0000
  C   C499      1.0  0.26839  0.41082  0.86951  1.0000
  H   H598      1.0  0.15746  0.44528  0.76225  1.0000
  C   C500      1.0  0.99945  0.29514  0.88978  1.0000
  C   C501      1.0  0.01507  0.30716  0.88367  1.0000
  H   H599      1.0  0.14450  0.36569  0.96852  1.0000
  H   H600      1.0  0.12886  0.46996  0.82253  1.0000
  C   C502      1.0  0.30437  0.41502  0.85999  1.0000
  H   H601      1.0  0.29400  0.38731  0.87776  1.0000
  C   C503      1.0  0.31020  0.46802  0.84704  1.0000
  N   N35       1.0  0.12921  0.46697  0.79119  1.0000
  S   S131      1.0  0.99285  0.33430  0.78678  1.0000
  C   C504      1.0  0.08862  0.26655  0.96911  1.0000
  S   S132      1.0  0.99147  0.37205  0.73423  1.0000
  H   H602      1.0  0.29799  0.46379  0.81355  1.0000
  H   H603      1.0  0.13157  0.23461  0.95012  1.0000
  H   H604      1.0  0.29499  0.47775  0.84456  1.0000
  H   H605      1.0  0.99191  0.24749  0.94008  1.0000
  H   H606      1.0  0.31657  0.29378  0.96836  1.0000
  C   C505      1.0  0.10054  0.23473  0.94572  1.0000
  C   C506      1.0  0.27000  0.47718  0.55435  1.0000
  H   H607      1.0  0.31496  0.43981  0.80957  1.0000
  C   C507      1.0  0.31306  0.45402  0.81629  1.0000
  C   C508      1.0  0.31721  0.36109  0.84341  1.0000
  H   H608      1.0  0.29029  0.48139  0.48753  1.0000
  S   S133      1.0  0.31906  0.38990  0.78421  1.0000
  H   H609      1.0  0.15433  0.47845  0.76886  1.0000
  H   H610      1.0  0.28044  0.47836  0.61052  1.0000
  Fe  Fe65      1.0  0.32025  0.33624  0.89409  1.0000
  H   H611      1.0  0.25693  0.47708  0.60307  1.0000
  H   H612      1.0  0.26440  0.48095  0.64543  1.0000
  H   H613      1.0  0.26867  0.27406  0.96942  1.0000
  Fe  Fe66      1.0  0.32111  0.29524  0.92395  1.0000
  S   S134      1.0  0.32138  0.32746  0.92780  1.0000
  S   S135      1.0  0.32145  0.43909  0.58203  1.0000
  H   H614      1.0  0.32215  0.47791  0.83983  1.0000
  H   H615      1.0  0.01153  0.23235  0.79760  1.0000
  C   C509      1.0  0.98961  0.24457  0.92521  1.0000
  Fe  Fe67      1.0  0.28086  0.56394  0.35269  1.0000
  S   S136      1.0  0.28190  0.53725  0.37912  1.0000
  Fe  Fe68      1.0  0.23310  0.57304  0.36091  1.0000
  S   S137      1.0  0.23123  0.54736  0.38816  1.0000
  S   S138      1.0  0.20214  0.58927  0.35249  1.0000
  Fe  Fe69      1.0  0.25719  0.55880  0.39620  1.0000
  S   S139      1.0  0.25463  0.56698  0.42757  1.0000
  Fe  Fe70      1.0  0.25570  0.52869  0.36792  1.0000
  C   C510      1.0  0.28799  0.62203  0.41202  1.0000
  S   S140      1.0  0.25720  0.58590  0.37026  1.0000
  S   S141      1.0  0.25655  0.55394  0.34024  1.0000
  Fe  Fe71      1.0  0.01575  0.61478  0.26423  1.0000
  S   S142      1.0  0.04312  0.63125  0.25415  1.0000
  Fe  Fe72      1.0  0.04083  0.57833  0.28911  1.0000
  S   S143      1.0  0.06978  0.59231  0.28043  1.0000
  S   S144      1.0  0.04282  0.54603  0.30802  1.0000
  Fe  Fe73      1.0  0.04868  0.62174  0.28693  1.0000
  S   S145      1.0  0.06090  0.64373  0.30121  1.0000
  Fe  Fe74      1.0  0.06149  0.60026  0.24893  1.0000
  S   S146      1.0  0.08414  0.59618  0.21952  1.0000
  S   S147      1.0  0.01980  0.60743  0.29769  1.0000
  S   S148      1.0  0.03391  0.58445  0.25707  1.0000
  Fe  Fe75      1.0  0.09982  0.64371  0.45189  1.0000
  S   S149      1.0  0.11499  0.67159  0.44482  1.0000
  C   C511      1.0  0.27320  0.51443  0.46242  1.0000
  Fe  Fe76      1.0  0.08392  0.65377  0.41104  1.0000
  S   S150      1.0  0.09728  0.68314  0.40099  1.0000
  S   S151      1.0  0.06434  0.63999  0.39553  1.0000
  Fe  Fe77      1.0  0.12525  0.66355  0.41315  1.0000
  S   S152      1.0  0.15821  0.66479  0.39721  1.0000
  Fe  Fe78      1.0  0.08589  0.68862  0.43373  1.0000
  S   S153      1.0  0.11265  0.63392  0.42136  1.0000
  S   S154      1.0  0.06992  0.66104  0.44266  1.0000
  Fe  Fe79      1.0  0.10884  0.49782  0.11599  1.0000
  H   H616      1.0  0.02311  0.67194  0.39051  1.0000
  H   H617      1.0  0.30878  0.52859  0.33914  1.0000
  Fe  Fe80      1.0  0.12647  0.53489  0.11826  1.0000
  S   S155      1.0  0.13462  0.52099  0.14958  1.0000
  S   S156      1.0  0.13258  0.56766  0.10746  1.0000
  C   C512      1.0  0.06161  0.71207  0.37028  1.0000
  H   H618      1.0  0.00031  0.72221  0.01595  1.0000
  Fe  Fe81      1.0  0.10302  0.51290  0.15647  1.0000
  S   S157      1.0  0.08206  0.51549  0.18678  1.0000
  S   S158      1.0  0.14085  0.50565  0.10518  1.0000
  S   S159      1.0  0.09398  0.52815  0.12612  1.0000
  Fe  Fe82      1.0  0.05519  0.71461  0.03367  1.0000
  S   S160      1.0  0.08305  0.69664  0.04710  1.0000
  Fe  Fe83      1.0  0.02527  0.70105  0.07253  1.0000
  S   S161      1.0  0.05025  0.68306  0.08971  1.0000
  H   H619      1.0  0.21449  0.57754  0.45506  1.0000
  Fe  Fe84      1.0  0.06656  0.71000  0.07528  1.0000
  H   H620      1.0  0.13273  0.53976  0.18819  1.0000
  Fe  Fe85      1.0  0.06419  0.67122  0.06024  1.0000
  S   S162      1.0  0.07068  0.63688  0.05952  1.0000
  H   H621      1.0  0.02652  0.55356  0.16327  1.0000
  S   S163      1.0  0.03792  0.68803  0.04376  1.0000
  H   H622      1.0  0.01876  0.60772  0.11503  1.0000
  C   C513      1.0  0.29789  0.53482  0.30150  1.0000
  C   C514      1.0  0.01756  0.66897  0.36180  1.0000
  C   C515      1.0  0.27382  0.58453  0.44971  1.0000
  C   C516      1.0  0.99177  0.57630  0.12333  1.0000
  H   H623      1.0  0.29885  0.55152  0.41699  1.0000
  H   H624      1.0  0.08643  0.59520  0.32699  1.0000
  H   H625      1.0  0.20467  0.56742  0.42589  1.0000
  H   H626      1.0  0.05449  0.49480  0.24471  1.0000
  C   C517      1.0  0.09269  0.49924  0.30614  1.0000
  C   C518      1.0  0.03198  0.56585  0.15158  1.0000
  H   H627      1.0  0.01182  0.65460  0.36817  1.0000
  H   H628      1.0  0.20211  0.60200  0.46302  1.0000
  C   C519      1.0  0.11456  0.58680  0.09506  1.0000
  C   C520      1.0  0.11490  0.60782  0.09415  1.0000
  C   C521      1.0  0.10120  0.62340  0.08374  1.0000
  C   C522      1.0  0.08739  0.61803  0.07379  1.0000
  C   C523      1.0  0.08694  0.59702  0.07488  1.0000
  C   C524      1.0  0.10029  0.58146  0.08566  1.0000
  H   H629      1.0  0.12593  0.61204  0.10136  1.0000
  H   H630      1.0  0.10171  0.63953  0.08296  1.0000
  H   H631      1.0  0.07629  0.59275  0.06721  1.0000
  H   H632      1.0  0.09995  0.56535  0.08618  1.0000
  H   H633      1.0  0.13828  0.63556  0.46285  1.0000
  C   C525      1.0  0.05327  0.56603  0.14813  1.0000
  C   C526      1.0  0.28549  0.61312  0.39613  1.0000
  H   H634      1.0  0.30037  0.54930  0.30541  1.0000
  H   H635      1.0  0.15217  0.61528  0.32726  1.0000
  H   H636      1.0  0.01351  0.66371  0.07811  1.0000
  H   H637      1.0  0.01008  0.72721  0.38661  1.0000
  C   C527      1.0  0.08305  0.57402  0.21019  1.0000
  C   C528      1.0  0.07325  0.55830  0.22287  1.0000
  C   C529      1.0  0.07235  0.54074  0.21532  1.0000
  C   C530      1.0  0.08177  0.53850  0.19519  1.0000
  C   C531      1.0  0.09156  0.55423  0.18238  1.0000
  C   C532      1.0  0.09210  0.57202  0.18984  1.0000
  H   H638      1.0  0.06698  0.55921  0.23876  1.0000
  H   H639      1.0  0.06488  0.52861  0.22534  1.0000
  H   H640      1.0  0.09886  0.55266  0.16675  1.0000
  H   H641      1.0  0.09982  0.58408  0.17992  1.0000
  C   C533      1.0  0.06269  0.64154  0.32744  1.0000
  C   C534      1.0  0.05311  0.62752  0.34302  1.0000
  C   C535      1.0  0.05419  0.62696  0.36374  1.0000
  C   C536      1.0  0.06510  0.64015  0.36909  1.0000
  C   C537      1.0  0.07532  0.65365  0.35344  1.0000
  C   C538      1.0  0.07394  0.65447  0.33275  1.0000
  H   H642      1.0  0.04443  0.61747  0.33917  1.0000
  H   H643      1.0  0.04624  0.61644  0.37573  1.0000
  H   H644      1.0  0.08392  0.66373  0.35730  1.0000
  H   H645      1.0  0.08145  0.66532  0.32077  1.0000
  S   S164      1.0  0.99170  0.70394  0.08663  1.0000
  S   S165      1.0  0.08209  0.72539  0.09270  1.0000
  C   C539      1.0  0.10664  0.50777  0.28957  1.0000
  C   C540      1.0  0.10032  0.52716  0.27809  1.0000
  C   C541      1.0  0.08032  0.53814  0.28304  1.0000
  C   C542      1.0  0.06669  0.53042  0.30022  1.0000
  C   C543      1.0  0.07273  0.51072  0.31160  1.0000
  C   C544      1.0  0.17984  0.48927  0.18417  1.0000
  H   H646      1.0  0.11103  0.53402  0.26552  1.0000
  H   H647      1.0  0.07559  0.55279  0.27366  1.0000
  C   C545      1.0  0.09843  0.58169  0.32577  1.0000
  C   C546      1.0  0.19010  0.61059  0.36448  1.0000
  C   C547      1.0  0.20183  0.62329  0.36913  1.0000
  C   C548      1.0  0.19185  0.64055  0.37825  1.0000
  C   C549      1.0  0.17015  0.64480  0.38331  1.0000
  C   C550      1.0  0.15844  0.63205  0.37870  1.0000
  C   C551      1.0  0.16840  0.61508  0.36917  1.0000
  H   H648      1.0  0.21857  0.62006  0.36533  1.0000
  H   H649      1.0  0.20096  0.65037  0.38180  1.0000
  H   H650      1.0  0.14172  0.63530  0.38243  1.0000
  H   H651      1.0  0.15927  0.60519  0.36582  1.0000
  H   H652      1.0  0.00075  0.56114  0.11982  1.0000
  H   H653      1.0  0.22117  0.50794  0.34074  1.0000
  C   C552      1.0  0.27661  0.57177  0.43504  1.0000
  C   C553      1.0  0.30262  0.60704  0.38161  1.0000
  H   H654      1.0  0.01507  0.66796  0.33083  1.0000
  H   H655      1.0  0.06215  0.50459  0.32487  1.0000
  C   C554      1.0  0.29651  0.56141  0.42827  1.0000
  H   H656      1.0  0.27356  0.50224  0.31958  1.0000
  H   H657      1.0  0.27268  0.53072  0.45437  1.0000
  C   C555      1.0  0.31075  0.70974  0.00834  1.0000
  C   C556      1.0  0.31330  0.56299  0.43691  1.0000
  C   C557      1.0  0.30791  0.72439  0.46374  1.0000
  H   H658      1.0  0.16429  0.52006  0.17764  1.0000
  C   C558      1.0  0.17225  0.57647  0.47071  1.0000
  N   N36       1.0  0.03654  0.62348  0.18231  1.0000
  C   C559      1.0  0.03286  0.60216  0.19130  1.0000
  C   C560      1.0  0.05849  0.62210  0.17167  1.0000
  C   C561      1.0  0.03394  0.63507  0.19937  1.0000
  C   C562      1.0  0.02145  0.63369  0.16853  1.0000
  H   H659      1.0  0.04666  0.70587  0.40999  1.0000
  C   C563      1.0  0.02741  0.63996  0.14693  1.0000
  C   C564      1.0  0.01265  0.64970  0.13449  1.0000
  H   H660      1.0  0.15436  0.59624  0.42547  1.0000
  H   H661      1.0  0.11575  0.51367  0.21482  1.0000
  H   H662      1.0  0.03477  0.59280  0.17911  1.0000
  H   H663      1.0  0.04382  0.59406  0.20193  1.0000
  H   H664      1.0  0.01703  0.60194  0.20051  1.0000
  H   H665      1.0  0.06211  0.61219  0.15968  1.0000
  H   H666      1.0  0.06945  0.61503  0.18253  1.0000
  H   H667      1.0  0.06229  0.63768  0.16457  1.0000
  H   H668      1.0  0.01885  0.63443  0.21004  1.0000
  H   H669      1.0  0.04604  0.62855  0.20917  1.0000
  H   H670      1.0  0.03499  0.65164  0.19337  1.0000
  C   C565      1.0  0.99731  0.66291  0.08381  1.0000
  H   H671      1.0  0.04337  0.63761  0.13921  1.0000
  C   C566      1.0  0.04028  0.69753  0.40082  1.0000
  H   H672      1.0  0.29457  0.70911  0.00959  1.0000
  S   S166      1.0  0.25566  0.49523  0.36547  1.0000
  C   C567      1.0  0.29070  0.58650  0.45800  1.0000
  H   H673      1.0  0.15449  0.48838  0.24137  1.0000
  C   C568      1.0  0.28630  0.49261  0.31138  1.0000
  H   H674      1.0  0.06824  0.71901  0.38043  1.0000
  H   H675      1.0  0.26853  0.71961  0.46735  1.0000
  C   C569      1.0  0.14821  0.60041  0.32588  1.0000
  C   C570      1.0  0.06186  0.58110  0.13317  1.0000
  H   H676      1.0  0.30131  0.71798  0.05726  1.0000
  C   C571      1.0  0.22644  0.49140  0.34224  1.0000
  H   H677      1.0  0.27028  0.61059  0.39533  1.0000
  H   H678      1.0  0.06324  0.55409  0.15686  1.0000
  C   C572      1.0  0.99155  0.72868  0.02979  1.0000
  H   H679      1.0  0.12656  0.61406  0.29454  1.0000
  H   H680      1.0  0.07608  0.56319  0.32481  1.0000
  C   C573      1.0  0.99166  0.65339  0.14305  1.0000
  C   C574      1.0  0.11936  0.61854  0.30975  1.0000
  H   H681      1.0  0.99591  0.54885  0.15753  1.0000
  H   H682      1.0  0.15052  0.56296  0.32274  1.0000
  C   C575      1.0  0.09910  0.72374  0.46322  1.0000
  H   H683      1.0  0.12387  0.63342  0.31018  1.0000
  H   H684      1.0  0.15728  0.59640  0.31100  1.0000
  H   H685      1.0  0.05589  0.60768  0.10970  1.0000
  C   C576      1.0  0.06974  0.48516  0.24389  1.0000
  N   N37       1.0  0.04010  0.70871  0.37932  1.0000
  C   C577      1.0  0.20787  0.59395  0.44956  1.0000
  H   H686      1.0  0.30162  0.53617  0.28446  1.0000
  H   H687      1.0  0.99669  0.68988  0.03030  1.0000
  C   C578      1.0  0.03362  0.70515  0.34499  1.0000
  N   N38       1.0  0.99615  0.58063  0.14243  1.0000
  C   C579      1.0  0.31709  0.72418  0.01721  1.0000
  C   C580      1.0  0.16133  0.48922  0.22526  1.0000
  H   H688      1.0  0.99426  0.63290  0.19283  1.0000
  C   C581      1.0  0.11482  0.60834  0.34671  1.0000
  H   H689      1.0  0.25976  0.50910  0.45923  1.0000
  H   H690      1.0  0.28833  0.51514  0.34005  1.0000
  C   C582      1.0  0.09229  0.56344  0.32457  1.0000
  H   H691      1.0  0.28176  0.71653  0.04347  1.0000
  C   C583      1.0  0.03269  0.69755  0.36641  1.0000
  H   H692      1.0  0.28831  0.59608  0.46957  1.0000
  C   C584      1.0  0.99993  0.63748  0.17664  1.0000
  N   N39       1.0  0.19122  0.59552  0.43762  1.0000
  Fe  Fe86      1.0  0.14584  0.49128  0.13736  1.0000
  C   C585      1.0  0.20011  0.58427  0.42023  1.0000
  C   C586      1.0  0.18504  0.61772  0.42915  1.0000
  C   C587      1.0  0.17289  0.58696  0.44998  1.0000
  C   C588      1.0  0.02729  0.69458  0.33237  1.0000
  H   H693      1.0  0.12859  0.55706  0.20590  1.0000
  H   H694      1.0  0.28102  0.53453  0.30615  1.0000
  C   C589      1.0  0.15491  0.58891  0.44128  1.0000
  C   C590      1.0  0.13413  0.56393  0.32334  1.0000
  H   H695      1.0  0.11875  0.59613  0.35997  1.0000
  H   H696      1.0  0.22113  0.60108  0.44000  1.0000
  S   S167      1.0  0.13234  0.49547  0.28272  1.0000
  C   C591      1.0  0.31041  0.57534  0.45195  1.0000
  H   H697      1.0  0.21425  0.58994  0.41079  1.0000
  H   H698      1.0  0.18906  0.58614  0.40954  1.0000
  H   H699      1.0  0.17372  0.62025  0.41875  1.0000
  H   H700      1.0  0.17762  0.62682  0.44147  1.0000
  H   H701      1.0  0.19851  0.62476  0.42001  1.0000
  S   S168      1.0  0.30962  0.57443  0.33172  1.0000
  H   H702      1.0  0.99387  0.58936  0.23962  1.0000
  N   N40       1.0  0.31068  0.51622  0.31171  1.0000
  C   C592      1.0  0.02785  0.59606  0.12483  1.0000
  N   N41       1.0  0.14229  0.52566  0.21727  1.0000
  C   C593      1.0  0.12167  0.51982  0.22607  1.0000
  C   C594      1.0  0.14991  0.53270  0.23319  1.0000
  C   C595      1.0  0.13946  0.54358  0.20030  1.0000
  H   H703      1.0  0.02888  0.70016  0.31592  1.0000
  C   C596      1.0  0.15685  0.50745  0.21067  1.0000
  H   H704      1.0  0.03953  0.71918  0.33772  1.0000
  H   H705      1.0  0.15395  0.58864  0.33868  1.0000
  H   H706      1.0  0.07515  0.49232  0.27161  1.0000
  C   C597      1.0  0.01858  0.58089  0.13993  1.0000
  H   H707      1.0  0.30066  0.59986  0.36938  1.0000
  H   H708      1.0  0.11002  0.53327  0.23055  1.0000
  H   H709      1.0  0.32002  0.68580  0.98975  1.0000
  H   H710      1.0  0.13956  0.54678  0.23807  1.0000
  H   H711      1.0  0.16577  0.53637  0.22740  1.0000
  H   H712      1.0  0.15059  0.52089  0.24742  1.0000
  N   N42       1.0  0.12556  0.60200  0.32686  1.0000
  C   C598      1.0  0.30765  0.62474  0.41357  1.0000
  H   H713      1.0  0.15434  0.54903  0.19310  1.0000
  C   C599      1.0  0.01935  0.67648  0.34076  1.0000
  H   H714      1.0  0.29487  0.69301  0.45127  1.0000
  H   H715      1.0  0.25845  0.59256  0.45508  1.0000
  C   C600      1.0  0.16665  0.50701  0.18988  1.0000
  C   C601      1.0  0.02418  0.67920  0.37452  1.0000
  H   H716      1.0  0.28771  0.50535  0.45501  1.0000
  C   C602      1.0  0.04914  0.59615  0.12161  1.0000
  H   H717      1.0  0.10208  0.53144  0.32197  1.0000
  C   C603      1.0  0.30512  0.51513  0.33431  1.0000
  H   H718      1.0  0.10232  0.62196  0.31023  1.0000
  H   H719      1.0  0.02442  0.69567  0.40924  1.0000
  H   H720      1.0  0.07847  0.58088  0.13025  1.0000
  H   H721      1.0  0.10912  0.71198  0.45532  1.0000
  C   C604      1.0  0.11955  0.58250  0.32529  1.0000
  H   H722      1.0  0.27468  0.62633  0.42353  1.0000
  C   C605      1.0  0.10693  0.54554  0.32282  1.0000
  C   C606      1.0  0.99042  0.64410  0.08616  1.0000
  C   C607      1.0  0.29029  0.72736  0.04717  1.0000
  H   H723      1.0  0.09769  0.61128  0.34809  1.0000
  H   H724      1.0  0.05015  0.68192  0.40117  1.0000
  H   H725      1.0  0.12196  0.50782  0.24020  1.0000
  C   C608      1.0  0.13680  0.57211  0.47332  1.0000
  H   H726      1.0  0.13908  0.53176  0.32043  1.0000
  C   C609      1.0  0.12779  0.54578  0.32207  1.0000
  H   H727      1.0  0.11901  0.62289  0.34864  1.0000
  S   S169      1.0  0.06779  0.71800  0.44502  1.0000
  H   H728      1.0  0.31357  0.50076  0.34262  1.0000
  H   H729      1.0  0.07197  0.69717  0.36780  1.0000
  H   H730      1.0  0.01755  0.65454  0.11810  1.0000
  C   C610      1.0  0.30183  0.68889  0.46547  1.0000
  H   H731      1.0  0.00128  0.63057  0.08212  1.0000
  C   C611      1.0  0.30660  0.49746  0.30622  1.0000
  H   H732      1.0  0.30889  0.63100  0.42660  1.0000
  H   H733      1.0  0.09748  0.48425  0.31511  1.0000
  H   H734      1.0  0.99861  0.72021  0.04337  1.0000
  H   H735      1.0  0.20461  0.48669  0.32467  1.0000
  H   H736      1.0  0.99113  0.56740  0.17477  1.0000
  H   H737      1.0  0.06729  0.48578  0.13943  1.0000
  C   C612      1.0  0.13708  0.58183  0.45292  1.0000
  H   H738      1.0  0.12325  0.58427  0.44621  1.0000
  S   S170      1.0  0.03992  0.72916  0.06111  1.0000
  H   H739      1.0  0.06265  0.72277  0.35525  1.0000
  S   S171      1.0  0.31755  0.63402  0.46949  1.0000
  C   C613      1.0  0.07836  0.72974  0.46070  1.0000
  H   H740      1.0  0.99584  0.58829  0.10972  1.0000
  H   H741      1.0  0.31870  0.68273  0.46141  1.0000
  C   C614      1.0  0.31818  0.72465  0.44297  1.0000
  H   H742      1.0  0.31995  0.71184  0.43511  1.0000
  C   C615      1.0  0.02645  0.72909  0.38020  1.0000
  C   C616      1.0  0.08138  0.48383  0.25902  1.0000
  H   H743      1.0  0.99389  0.73041  0.11342  1.0000
  H   H744      1.0  0.18690  0.48915  0.16816  1.0000
  C   C617      1.0  0.32229  0.48362  0.29569  1.0000
  C   C618      1.0  0.32234  0.60989  0.38287  1.0000
  H   H745      1.0  0.19981  0.55799  0.51473  1.0000
  S   S172      1.0  0.01257  0.63235  0.61886  1.0000
  H   H746      1.0  0.99480  0.69745  0.55359  1.0000
  H   H747      1.0  0.31409  0.52049  0.63057  1.0000
  S   S173      1.0  0.01676  0.67899  0.59392  1.0000
  C   C619      1.0  0.27493  0.49001  0.49381  1.0000
  H   H748      1.0  0.23802  0.49885  0.51303  1.0000
  Fe  Fe87      1.0  0.03246  0.65581  0.61734  1.0000
  S   S174      1.0  0.06696  0.65510  0.61034  1.0000
  H   H749      1.0  0.30198  0.55804  0.61944  1.0000
  S   S175      1.0  0.01267  0.66891  0.64444  1.0000
  Fe  Fe88      1.0  0.16270  0.57408  0.58401  1.0000
  S   S176      1.0  0.17098  0.55978  0.55559  1.0000
  S   S177      1.0  0.13011  0.57195  0.60075  1.0000
  Fe  Fe89      1.0  0.20592  0.58388  0.57899  1.0000
  S   S178      1.0  0.21718  0.57060  0.55023  1.0000
  S   S179      1.0  0.23133  0.59454  0.58869  1.0000
  Fe  Fe90      1.0  0.18673  0.58701  0.54181  1.0000
  S   S180      1.0  0.18645  0.60525  0.50996  1.0000
  Fe  Fe91      1.0  0.20053  0.54472  0.56704  1.0000
  C   C620      1.0  0.10217  0.69108  0.57441  1.0000
  S   S181      1.0  0.17643  0.60265  0.56926  1.0000
  S   S182      1.0  0.19123  0.55677  0.59666  1.0000
  H   H750      1.0  0.29280  0.49539  0.63043  1.0000
  C   C621      1.0  0.02011  0.72687  0.51178  1.0000
  C   C622      1.0  0.11448  0.48649  0.78648  1.0000
  S   S183      1.0  0.27497  0.65260  0.51264  1.0000
  C   C623      1.0  0.30672  0.69926  0.49556  1.0000
  C   C624      1.0  0.26645  0.48806  0.60489  1.0000
  H   H751      1.0  0.27199  0.56992  0.56569  1.0000
  C   C625      1.0  0.23645  0.51530  0.50744  1.0000
  Fe  Fe92      1.0  0.27824  0.52915  0.82553  1.0000
  H   H752      1.0  0.09879  0.62698  0.54354  1.0000
  S   S184      1.0  0.25359  0.51027  0.84380  1.0000
  Fe  Fe93      1.0  0.30358  0.54480  0.78435  1.0000
  C   C626      1.0  0.31215  0.62411  0.61913  1.0000
  C   C627      1.0  0.30830  0.60121  0.86076  1.0000
  S   S185      1.0  0.31766  0.60297  0.51383  1.0000
  C   C628      1.0  0.04811  0.63703  0.56603  1.0000
  Fe  Fe94      1.0  0.29854  0.56801  0.81971  1.0000
  S   S186      1.0  0.29692  0.60144  0.82336  1.0000
  C   C629      1.0  0.29028  0.52033  0.48808  1.0000
  S   S187      1.0  0.27538  0.55993  0.80400  1.0000
  H   H753      1.0  0.03494  0.71575  0.48361  1.0000
  H   H754      1.0  0.13155  0.64243  0.54333  1.0000
  H   H755      1.0  0.16445  0.68433  0.52945  1.0000
  H   H756      1.0  0.26001  0.55445  0.47766  1.0000
  H   H757      1.0  0.00545  0.67239  0.53084  1.0000
  H   H758      1.0  0.11632  0.49227  0.76958  1.0000
  C   C630      1.0  0.30994  0.55358  0.51770  1.0000
  N   N43       1.0  0.27236  0.51241  0.48483  1.0000
  H   H759      1.0  0.24173  0.51495  0.80334  1.0000
  H   H760      1.0  0.06477  0.67143  0.56466  1.0000
  C   C631      1.0  0.09796  0.71234  0.56744  1.0000
  H   H761      1.0  0.07325  0.71443  0.50848  1.0000
  H   H762      1.0  0.15620  0.64186  0.52715  1.0000
  H   H763      1.0  0.02870  0.70689  0.62870  1.0000
  H   H764      1.0  0.27408  0.48749  0.51074  1.0000
  N   N44       1.0  0.29824  0.70678  0.47619  1.0000
  H   H765      1.0  0.11693  0.49887  0.79386  1.0000
  H   H766      1.0  0.09805  0.48455  0.79210  1.0000
  C   C632      1.0  0.12578  0.60673  0.51010  1.0000
  H   H767      1.0  0.22172  0.58201  0.88992  1.0000
  C   C633      1.0  0.31765  0.64137  0.84867  1.0000
  H   H768      1.0  0.06043  0.60744  0.54439  1.0000
  C   C634      1.0  0.00339  0.70236  0.53849  1.0000
  H   H769      1.0  0.31351  0.62027  0.60362  1.0000
  C   C635      1.0  0.22120  0.49296  0.80715  1.0000
  C   C636      1.0  0.10590  0.72052  0.54726  1.0000
  C   C637      1.0  0.24855  0.48290  0.56066  1.0000
  C   C638      1.0  0.11834  0.70755  0.53407  1.0000
  C   C639      1.0  0.31417  0.61087  0.87470  1.0000
  S   S188      1.0  0.30870  0.48587  0.53708  1.0000
  C   C640      1.0  0.24327  0.61108  0.56780  1.0000
  C   C641      1.0  0.26364  0.61368  0.56694  1.0000
  C   C642      1.0  0.27354  0.62616  0.54984  1.0000
  C   C643      1.0  0.26281  0.63669  0.53394  1.0000
  C   C644      1.0  0.24234  0.63437  0.53498  1.0000
  C   C645      1.0  0.23271  0.62129  0.55170  1.0000
  H   H770      1.0  0.27189  0.60575  0.57930  1.0000
  H   H771      1.0  0.28937  0.62788  0.54910  1.0000
  H   H772      1.0  0.23404  0.64235  0.52266  1.0000
  H   H773      1.0  0.21702  0.61931  0.55222  1.0000
  C   C646      1.0  0.11482  0.67798  0.56142  1.0000
  C   C647      1.0  0.25212  0.51892  0.55303  1.0000
  C   C648      1.0  0.27344  0.51323  0.54651  1.0000
  H   H774      1.0  0.24548  0.53498  0.55267  1.0000
  H   H775      1.0  0.28306  0.52494  0.54112  1.0000
  C   C649      1.0  0.16175  0.61105  0.50342  1.0000
  H   H776      1.0  0.26647  0.65427  0.85342  1.0000
  C   C650      1.0  0.14503  0.60303  0.51648  1.0000
  C   C651      1.0  0.23957  0.50380  0.55992  1.0000
  H   H777      1.0  0.14700  0.59363  0.53127  1.0000
  H   H778      1.0  0.31496  0.60272  0.89023  1.0000
  C   C652      1.0  0.08417  0.63160  0.60898  1.0000
  C   C653      1.0  0.07701  0.61306  0.61118  1.0000
  C   C654      1.0  0.09128  0.59475  0.60877  1.0000
  C   C655      1.0  0.11266  0.59504  0.60379  1.0000
  C   C656      1.0  0.11976  0.61362  0.60152  1.0000
  C   C657      1.0  0.10553  0.63179  0.60438  1.0000
  H   H779      1.0  0.06056  0.61278  0.61486  1.0000
  H   H780      1.0  0.08579  0.58033  0.61071  1.0000
  H   H781      1.0  0.13621  0.61384  0.59816  1.0000
  H   H782      1.0  0.11112  0.64600  0.60326  1.0000
  H   H783      1.0  0.15248  0.48364  0.79410  1.0000
  C   C658      1.0  0.02595  0.71211  0.49891  1.0000
  H   H784      1.0  0.03340  0.64573  0.56103  1.0000
  H   H785      1.0  0.31615  0.58303  0.75861  1.0000
  C   C659      1.0  0.06256  0.62301  0.53534  1.0000
  C   C660      1.0  0.25015  0.49029  0.63995  1.0000
  H   H786      1.0  0.24646  0.54608  0.60719  1.0000
  H   H787      1.0  0.29874  0.61763  0.62923  1.0000
  H   H788      1.0  0.20938  0.60327  0.87308  1.0000
  H   H789      1.0  0.26769  0.70050  0.49058  1.0000
  C   C661      1.0  0.12377  0.68592  0.54095  1.0000
  H   H790      1.0  0.26814  0.57017  0.60779  1.0000
  H   H791      1.0  0.05081  0.64395  0.57851  1.0000
  H   H792      1.0  0.28431  0.56661  0.50163  1.0000
  H   H793      1.0  0.12195  0.68680  0.50144  1.0000
  C   C662      1.0  0.15682  0.68146  0.51747  1.0000
  H   H794      1.0  0.27217  0.57528  0.85519  1.0000
  H   H795      1.0  0.22458  0.52207  0.62239  1.0000
  H   H796      1.0  0.02540  0.68110  0.49579  1.0000
  C   C663      1.0  0.12328  0.61850  0.49073  1.0000
  C   C664      1.0  0.26738  0.51797  0.61893  1.0000
  C   C665      1.0  0.26103  0.53958  0.61243  1.0000
  C   C666      1.0  0.29254  0.54694  0.61915  1.0000
  C   C667      1.0  0.02064  0.69256  0.50576  1.0000
  Fe  Fe95      1.0  0.30731  0.63658  0.50273  1.0000
  H   H797      1.0  0.09562  0.68476  0.59006  1.0000
  C   C668      1.0  0.30319  0.55590  0.55386  1.0000
  H   H798      1.0  0.99641  0.71906  0.57472  1.0000
  C   C669      1.0  0.28692  0.51158  0.62540  1.0000
  H   H799      1.0  0.06159  0.72040  0.62114  1.0000
  H   H800      1.0  0.13708  0.66166  0.49946  1.0000
  C   C670      1.0  0.21434  0.54874  0.50886  1.0000
  H   H801      1.0  0.04552  0.62113  0.57357  1.0000
  S   S189      1.0  0.09942  0.62253  0.48254  1.0000
  C   C671      1.0  0.00947  0.68768  0.52551  1.0000
  C   C672      1.0  0.28238  0.49244  0.54703  1.0000
  H   H802      1.0  0.12368  0.71477  0.51845  1.0000
  S   S190      1.0  0.30477  0.51363  0.80473  1.0000
  C   C673      1.0  0.15898  0.62350  0.48452  1.0000
  C   C674      1.0  0.24863  0.54644  0.48813  1.0000
  H   H803      1.0  0.23312  0.58630  0.83403  1.0000
  C   C675      1.0  0.02935  0.72222  0.61986  1.0000
  H   H804      1.0  0.26050  0.57780  0.53217  1.0000
  C   C676      1.0  0.23455  0.50282  0.81380  1.0000
  C   C677      1.0  0.23803  0.49744  0.83412  1.0000
  H   H805      1.0  0.24824  0.59072  0.90020  1.0000
  H   H806      1.0  0.27142  0.72593  0.49094  1.0000
  H   H807      1.0  0.07534  0.68707  0.48844  1.0000
  H   H808      1.0  0.11744  0.66172  0.56784  1.0000
  H   H809      1.0  0.11306  0.59998  0.51993  1.0000
  H   H810      1.0  0.30059  0.68526  0.50473  1.0000
  C   C678      1.0  0.23458  0.51164  0.61205  1.0000
  C   C679      1.0  0.27615  0.56978  0.53340  1.0000
  C   C680      1.0  0.22988  0.55832  0.49573  1.0000
  H   H811      1.0  0.30729  0.55314  0.56892  1.0000
  H   H812      1.0  0.21459  0.57737  0.86768  1.0000
  H   H813      1.0  0.25753  0.56575  0.87950  1.0000
  Fe  Fe96      1.0  0.99580  0.69058  0.62091  1.0000
  H   H814      1.0  0.04860  0.62955  0.52807  1.0000
  C   C681      1.0  0.25258  0.52458  0.49376  1.0000
  H   H815      1.0  0.20563  0.51998  0.52541  1.0000
  C   C682      1.0  0.21762  0.52732  0.51473  1.0000
  C   C683      1.0  0.28278  0.56553  0.55226  1.0000
  H   H816      1.0  0.08838  0.72246  0.57765  1.0000
  N   N45       1.0  0.13779  0.67257  0.52703  1.0000
  H   H817      1.0  0.22761  0.61299  0.83657  1.0000
  H   H818      1.0  0.25330  0.63018  0.83983  1.0000
  N   N46       1.0  0.25472  0.50241  0.61891  1.0000
  H   H819      1.0  0.26184  0.61563  0.91283  1.0000
  H   H820      1.0  0.06743  0.70640  0.54644  1.0000
  C   C684      1.0  0.06824  0.69436  0.53776  1.0000
  H   H821      1.0  0.30988  0.64029  0.81955  1.0000
  H   H822      1.0  0.08490  0.61194  0.56532  1.0000
  S   S191      1.0  0.21277  0.51064  0.56803  1.0000
  C   C685      1.0  0.12697  0.67130  0.51051  1.0000
  H   H823      1.0  0.30826  0.64127  0.61743  1.0000
  C   C686      1.0  0.27349  0.55376  0.61263  1.0000
  H   H824      1.0  0.23686  0.52057  0.59610  1.0000
  N   N47       1.0  0.06570  0.63688  0.54838  1.0000
  H   H825      1.0  0.22735  0.57506  0.49151  1.0000
  C   C687      1.0  0.29928  0.52587  0.62547  1.0000
  C   C688      1.0  0.08524  0.62788  0.55631  1.0000
  C   C689      1.0  0.06707  0.65820  0.53717  1.0000
  C   C690      1.0  0.06641  0.67428  0.54806  1.0000
  C   C691      1.0  0.07044  0.66338  0.51530  1.0000
  C   C692      1.0  0.14462  0.65114  0.53763  1.0000
  C   C693      1.0  0.07272  0.68345  0.50515  1.0000
  C   C694      1.0  0.07155  0.69890  0.51637  1.0000
  H   H826      1.0  0.15219  0.65111  0.55079  1.0000
  H   H827      1.0  0.30449  0.58587  0.86568  1.0000
  Fe  Fe97      1.0  0.99496  0.65706  0.59792  1.0000
  H   H828      1.0  0.11288  0.66423  0.51701  1.0000
  S   S192      1.0  0.29888  0.53859  0.84310  1.0000
  H   H829      1.0  0.27117  0.64732  0.88966  1.0000
  H   H830      1.0  0.08823  0.63728  0.56668  1.0000
  H   H831      1.0  0.25215  0.56068  0.85650  1.0000
  H   H832      1.0  0.07623  0.62007  0.52306  1.0000
  H   H833      1.0  0.15363  0.69629  0.50669  1.0000
  H   H834      1.0  0.07160  0.65219  0.50563  1.0000
  C   C695      1.0  0.28960  0.56354  0.51621  1.0000
  C   C696      1.0  0.13990  0.62690  0.47798  1.0000
  H   H835      1.0  0.16839  0.67093  0.50820  1.0000
  N   N48       1.0  0.24134  0.59232  0.86119  1.0000
  C   C697      1.0  0.23887  0.59833  0.83925  1.0000
  C   C698      1.0  0.25638  0.57265  0.86322  1.0000
  C   C699      1.0  0.22089  0.58862  0.87352  1.0000
  C   C700      1.0  0.24879  0.60801  0.86884  1.0000
  C   C701      1.0  0.25413  0.62653  0.85602  1.0000
  C   C702      1.0  0.25159  0.60461  0.88963  1.0000
  C   C703      1.0  0.26181  0.64061  0.86364  1.0000
  C   C704      1.0  0.25935  0.61876  0.89705  1.0000
  C   C705      1.0  0.26450  0.63670  0.88406  1.0000
  H   H836      1.0  0.25394  0.60022  0.82890  1.0000
  H   H837      1.0  0.15403  0.56191  0.49811  1.0000
  H   H838      1.0  0.02949  0.72977  0.55898  1.0000
  C   C706      1.0  0.04801  0.72986  0.61557  1.0000
  H   H839      1.0  0.24233  0.50063  0.65121  1.0000
  H   H840      1.0  0.30534  0.51036  0.48324  1.0000
  S   S193      1.0  0.30821  0.54519  0.75034  1.0000
  C   C707      1.0  0.30666  0.61176  0.84079  1.0000
  H   H841      1.0  0.27173  0.49674  0.58936  1.0000
  Fe  Fe98      1.0  0.99109  0.64769  0.64393  1.0000
  H   H842      1.0  0.30259  0.71086  0.50588  1.0000
  H   H843      1.0  0.29451  0.67590  0.47530  1.0000
  H   H844      1.0  0.28919  0.52081  0.50461  1.0000
  H   H845      1.0  0.21832  0.49755  0.79153  1.0000
  C   C708      1.0  0.31767  0.55029  0.53635  1.0000
  H   H846      1.0  0.12276  0.56716  0.48245  1.0000
  H   H847      1.0  0.22552  0.49964  0.61174  1.0000
  H   H848      1.0  0.31964  0.54876  0.50400  1.0000
  C   C709      1.0  0.00839  0.72256  0.53189  1.0000
  H   H849      1.0  0.31489  0.61904  0.65846  1.0000
  H   H850      1.0  0.29151  0.53609  0.47916  1.0000
  C   C710      1.0  0.15442  0.56920  0.48211  1.0000
  H   H851      1.0  0.32115  0.65685  0.84386  1.0000
  H   H852      1.0  0.12343  0.72919  0.47667  1.0000
  C   C711      1.0  0.31133  0.63189  0.83488  1.0000
  C   C712      1.0  0.27551  0.71354  0.48148  1.0000
  H   H853      1.0  0.18508  0.57422  0.47872  1.0000
  C   C713      1.0  0.31891  0.63098  0.86875  1.0000
  H   H854      1.0  0.26298  0.48256  0.49053  1.0000
  H   H855      1.0  0.17176  0.63022  0.47482  1.0000
  C   C714      1.0  0.32241  0.56399  0.73536  1.0000
  S   S194      1.0  0.32253  0.70333  0.89021  1.0000
  H   H856      1.0  0.29775  0.87239  0.10252  1.0000
  Fe  Fe99      1.0  0.99155  0.87218  0.11798  1.0000
  Fe  Fe100     1.0  0.19670  0.89496  0.06440  1.0000
  S   S195      1.0  0.21071  0.91638  0.03747  1.0000
  S   S196      1.0  0.21415  0.86525  0.07954  1.0000
  Fe  Fe101     1.0  0.15418  0.92200  0.06716  1.0000
  S   S197      1.0  0.16530  0.94642  0.04085  1.0000
  S   S198      1.0  0.12107  0.92351  0.08487  1.0000
  Fe  Fe102     1.0  0.18114  0.91912  0.02565  1.0000
  S   S199      1.0  0.18107  0.91586  0.99294  1.0000
  Fe  Fe103     1.0  0.19401  0.94170  0.05537  1.0000
  S   S200      1.0  0.05772  0.73341  0.00141  1.0000
  S   S201      1.0  0.16874  0.89523  0.05116  1.0000
  S   S202      1.0  0.18128  0.91978  0.08299  1.0000
  C   C715      1.0  0.26172  0.92002  0.05061  1.0000
  H   H857      1.0  0.13309  0.78953  0.00323  1.0000
  Fe  Fe104     1.0  0.01345  0.82848  0.11411  1.0000
  S   S203      1.0  0.02054  0.83529  0.07964  1.0000
  S   S204      1.0  0.02227  0.79754  0.13345  1.0000
  Fe  Fe105     1.0  0.02952  0.86428  0.08444  1.0000
  S   S205      1.0  0.05931  0.87330  0.06436  1.0000
  H   H858      1.0  0.25622  0.93530  0.04241  1.0000
  S   S206      1.0  0.02449  0.85614  0.11888  1.0000
  C   C716      1.0  0.03955  0.79305  0.01048  1.0000
  C   C717      1.0  0.21166  0.97668  0.09377  1.0000
  H   H859      1.0  0.10639  0.91429  0.00926  1.0000
  H   H860      1.0  0.27480  0.76270  0.02294  1.0000
  S   S207      1.0  0.29698  0.93595  0.29765  1.0000
  H   H861      1.0  0.09580  0.74950  0.98125  1.0000
  C   C718      1.0  0.11555  0.75881  0.04737  1.0000
  C   C719      1.0  0.11868  0.76306  0.00414  1.0000
  C   C720      1.0  0.30601  0.92463  0.13475  1.0000
  Fe  Fe106     1.0  0.30708  0.96223  0.30660  1.0000
  H   H862      1.0  0.17298  0.97963  0.14535  1.0000
  Fe  Fe107     1.0  0.31253  0.94815  0.26594  1.0000
  C   C721      1.0  0.26246  0.95021  0.12958  1.0000
  H   H863      1.0  0.27686  0.74082  0.01132  1.0000
  C   C722      1.0  0.05187  0.76069  0.99760  1.0000
  S   S208      1.0  0.04251  0.83130  0.98722  1.0000
  C   C723      1.0  0.20414  0.85157  0.98117  1.0000
  H   H864      1.0  0.99430  0.74489  0.02698  1.0000
  H   H865      1.0  0.02929  0.78862  0.09196  1.0000
  C   C724      1.0  0.04545  0.80424  0.99081  1.0000
  S   S209      1.0  0.27575  0.80702  0.02288  1.0000
  H   H866      1.0  0.24478  0.88520  0.09124  1.0000
  C   C725      1.0  0.29060  0.84410  0.06942  1.0000
  H   H867      1.0  0.32105  0.74690  0.04602  1.0000
  H   H868      1.0  0.03196  0.92743  0.99444  1.0000
  C   C726      1.0  0.31640  0.75880  0.46103  1.0000
  C   C727      1.0  0.10906  0.74734  0.01811  1.0000
  C   C728      1.0  0.03904  0.77685  0.10097  1.0000
  H   H869      1.0  0.03275  0.80118  0.02318  1.0000
  C   C729      1.0  0.30705  0.74215  0.47231  1.0000
  H   H870      1.0  0.31609  0.77196  0.46802  1.0000
  H   H871      1.0  0.00488  0.74943  0.11988  1.0000
  C   C730      1.0  0.29124  0.93702  0.14760  1.0000
  H   H872      1.0  0.21832  0.88579  0.98569  1.0000
  H   H873      1.0  0.15540  0.86379  0.00921  1.0000
  C   C731      1.0  0.24896  0.91105  0.06777  1.0000
  C   C732      1.0  0.32011  0.88934  0.23422  1.0000
  H   H874      1.0  0.27796  0.93762  0.18026  1.0000
  C   C733      1.0  0.23044  0.84973  0.06266  1.0000
  C   C734      1.0  0.24200  0.85831  0.04416  1.0000
  C   C735      1.0  0.25615  0.84529  0.03181  1.0000
  C   C736      1.0  0.25825  0.82375  0.03776  1.0000
  C   C737      1.0  0.24630  0.81529  0.05596  1.0000
  C   C738      1.0  0.23276  0.82823  0.06857  1.0000
  H   H875      1.0  0.24058  0.87493  0.03975  1.0000
  H   H876      1.0  0.26546  0.85190  0.01777  1.0000
  H   H877      1.0  0.24786  0.79868  0.06061  1.0000
  H   H878      1.0  0.22391  0.82157  0.08290  1.0000
  H   H879      1.0  0.05136  0.90953  0.98078  1.0000
  H   H880      1.0  0.19987  0.96714  0.09963  1.0000
  C   C739      1.0  0.10411  0.90921  0.07924  1.0000
  C   C740      1.0  0.10858  0.90096  0.06113  1.0000
  C   C741      1.0  0.09459  0.89025  0.05675  1.0000
  C   C742      1.0  0.07608  0.88735  0.07054  1.0000
  C   C743      1.0  0.07165  0.89538  0.08877  1.0000
  C   C744      1.0  0.08553  0.90640  0.09299  1.0000
  H   H881      1.0  0.12265  0.90318  0.05028  1.0000
  H   H882      1.0  0.09812  0.88431  0.04250  1.0000
  H   H883      1.0  0.05747  0.89329  0.09954  1.0000
  H   H884      1.0  0.08187  0.91274  0.10701  1.0000
  H   H885      1.0  0.11427  0.75700  0.06391  1.0000
  C   C745      1.0  0.13924  0.91453  0.00246  1.0000
  C   C746      1.0  0.15778  0.91041  0.98873  1.0000
  C   C747      1.0  0.01231  0.89788  0.98572  1.0000
  C   C748      1.0  0.31807  0.90629  0.14302  1.0000
  H   H886      1.0  0.00868  0.76452  0.08373  1.0000
  N   N49       1.0  0.30143  0.73896  0.02839  1.0000
  C   C749      1.0  0.03866  0.77780  0.12153  1.0000
  C   C750      1.0  0.05152  0.76267  0.13302  1.0000
  H   H887      1.0  0.25519  0.96198  0.16552  1.0000
  C   C751      1.0  0.16763  0.85651  0.99832  1.0000
  H   H888      1.0  0.05125  0.76334  0.14894  1.0000
  H   H889      1.0  0.30405  0.97218  0.12759  1.0000
  C   C752      1.0  0.04439  0.91361  0.99616  1.0000
  C   C753      1.0  0.05204  0.76050  0.09210  1.0000
  C   C754      1.0  0.14729  0.97541  0.10797  1.0000
  H   H890      1.0  0.01451  0.91490  0.03022  1.0000
  C   C755      1.0  0.98987  0.74573  0.11840  1.0000
  C   C756      1.0  0.27579  0.87995  0.07212  1.0000
  H   H891      1.0  0.30398  0.88209  0.04900  1.0000
  H   H892      1.0  0.14220  0.93065  0.14300  1.0000
  C   C757      1.0  0.30068  0.91092  0.17722  1.0000
  N   N50       1.0  0.09142  0.81567  0.08676  1.0000
  C   C758      1.0  0.10143  0.79446  0.09509  1.0000
  C   C759      1.0  0.10408  0.83038  0.08915  1.0000
  C   C760      1.0  0.07067  0.82037  0.09951  1.0000
  C   C761      1.0  0.08901  0.81702  0.06518  1.0000
  C   C762      1.0  0.07903  0.80269  0.06009  1.0000
  C   C763      1.0  0.09563  0.83279  0.04887  1.0000
  C   C764      1.0  0.07585  0.80397  0.04007  1.0000
  C   C765      1.0  0.09226  0.83404  0.02886  1.0000
  C   C766      1.0  0.08230  0.81970  0.02451  1.0000
  H   H893      1.0  0.11635  0.78959  0.08499  1.0000
  H   H894      1.0  0.10473  0.79342  0.11078  1.0000
  H   H895      1.0  0.09143  0.78272  0.09686  1.0000
  H   H896      1.0  0.11984  0.82803  0.07961  1.0000
  H   H897      1.0  0.10609  0.82864  0.10541  1.0000
  H   H898      1.0  0.09649  0.84676  0.08490  1.0000
  H   H899      1.0  0.07154  0.81938  0.11597  1.0000
  H   H900      1.0  0.06273  0.83623  0.09391  1.0000
  H   H901      1.0  0.06038  0.80957  0.09917  1.0000
  H   H902      1.0  0.07333  0.79053  0.07167  1.0000
  H   H903      1.0  0.10282  0.84478  0.05128  1.0000
  H   H904      1.0  0.06816  0.79277  0.03667  1.0000
  H   H905      1.0  0.09695  0.84653  0.01680  1.0000
  H   H906      1.0  0.07928  0.82091  0.00914  1.0000
  C   C767      1.0  0.25573  0.89129  0.07837  1.0000
  C   C768      1.0  0.04308  0.77132  0.01394  1.0000
  H   H907      1.0  0.31939  0.76332  0.02120  1.0000
  H   H908      1.0  0.26974  0.94126  0.11703  1.0000
  H   H909      1.0  0.30865  0.84575  0.10070  1.0000
  H   H910      1.0  0.25253  0.94057  0.14143  1.0000
  H   H911      1.0  0.13061  0.78528  0.04044  1.0000
  C   C769      1.0  0.01089  0.87192  0.01675  1.0000
  H   H912      1.0  0.24444  0.87318  0.98692  1.0000
  H   H913      1.0  0.13291  0.94823  0.11033  1.0000
  N   N51       1.0  0.27818  0.95609  0.13858  1.0000
  H   H914      1.0  0.04976  0.75045  0.46877  1.0000
  H   H915      1.0  0.29710  0.96178  0.10815  1.0000
  H   H916      1.0  0.25212  0.96413  0.12284  1.0000
  H   H917      1.0  0.01598  0.86404  0.03100  1.0000
  C   C770      1.0  0.28141  0.90931  0.04399  1.0000
  H   H918      1.0  0.11402  0.97531  0.08992  1.0000
  H   H919      1.0  0.31482  0.86572  0.07971  1.0000
  C   C771      1.0  0.14674  0.94554  0.13626  1.0000
  H   H920      1.0  0.30001  0.90827  0.25508  1.0000
  N   N52       1.0  0.03657  0.89589  0.01074  1.0000
  C   C772      1.0  0.02853  0.90264  0.03089  1.0000
  C   C773      1.0  0.05446  0.87873  0.01289  1.0000
  C   C774      1.0  0.28845  0.88963  0.05460  1.0000
  C   C775      1.0  0.12058  0.90228  0.98145  1.0000
  H   H921      1.0  0.99173  0.78457  0.11328  1.0000
  H   H922      1.0  0.30321  0.84833  0.05662  1.0000
  H   H923      1.0  0.13684  0.96113  0.07634  1.0000
  H   H924      1.0  0.02664  0.73900  0.36473  1.0000
  H   H925      1.0  0.03898  0.76290  0.02922  1.0000
  H   H926      1.0  0.26344  0.86108  0.11272  1.0000
  H   H927      1.0  0.04038  0.90876  0.03607  1.0000
  C   C776      1.0  0.28879  0.92945  0.16917  1.0000
  H   H928      1.0  0.05045  0.86553  0.02512  1.0000
  H   H929      1.0  0.06752  0.88382  0.01713  1.0000
  H   H930      1.0  0.06046  0.87270  0.99826  1.0000
  C   C777      1.0  0.26713  0.96936  0.15395  1.0000
  C   C778      1.0  0.10767  0.74532  0.03935  1.0000
  H   H931      1.0  0.02429  0.88969  0.04326  1.0000
  H   H932      1.0  0.14696  0.84275  0.98727  1.0000
  H   H933      1.0  0.25581  0.83761  0.98272  1.0000
  H   H934      1.0  0.12146  0.73415  0.97970  1.0000
  C   C779      1.0  0.06575  0.74549  0.47077  1.0000
  N   N53       1.0  0.28387  0.85938  0.08349  1.0000
  H   H935      1.0  0.05260  0.75998  0.07614  1.0000
  C   C780      1.0  0.22817  0.87048  0.98990  1.0000
  H   H936      1.0  0.29843  0.76585  0.04233  1.0000
  H   H937      1.0  0.27481  0.83539  0.10874  1.0000
  H   H938      1.0  0.22417  0.86511  0.00678  1.0000
  C   C781      1.0  0.12625  0.77679  0.01285  1.0000
  H   H939      1.0  0.29130  0.91632  0.03057  1.0000
  C   C782      1.0  0.06492  0.74675  0.12399  1.0000
  S   S210      1.0  0.31967  0.97582  0.27433  1.0000
  H   H940      1.0  0.19030  0.86975  0.00578  1.0000
  H   H941      1.0  0.29676  0.82846  0.07749  1.0000
  H   H942      1.0  0.07496  0.73520  0.13295  1.0000
  H   H943      1.0  0.23436  0.82885  0.00083  1.0000
  H   H944      1.0  0.13908  0.92110  0.01577  1.0000
  H   H945      1.0  0.27751  0.84265  0.06253  1.0000
  N   N54       1.0  0.11991  0.76612  0.98158  1.0000
  C   C783      1.0  0.06502  0.74543  0.10363  1.0000
  S   S211      1.0  0.31555  0.84677  0.01158  1.0000
  C   C784      1.0  0.29081  0.96896  0.12202  1.0000
  C   C785      1.0  0.99634  0.89084  0.98034  1.0000
  S   S212      1.0  0.30282  0.95027  0.23589  1.0000
  C   C786      1.0  0.12478  0.77458  0.03415  1.0000
  C   C787      1.0  0.12072  0.91066  0.99872  1.0000
  C   C788      1.0  0.18792  0.85996  0.99604  1.0000
  H   H946      1.0  0.03131  0.73784  0.39010  1.0000
  H   H947      1.0  0.29869  0.90554  0.19374  1.0000
  C   C789      1.0  0.15796  0.95411  0.14638  1.0000
  C   C790      1.0  0.16285  0.84471  0.98596  1.0000
  N   N55       1.0  0.22573  0.85522  0.97800  1.0000
  H   H948      1.0  0.23359  0.91944  0.07273  1.0000
  C   C791      1.0  0.02003  0.88863  0.00423  1.0000
  C   C792      1.0  0.30200  0.86089  0.09202  1.0000
  S   S213      1.0  0.21389  0.96598  0.05526  1.0000
  Fe  Fe108     1.0  0.30731  0.81585  0.01341  1.0000
  C   C793      1.0  0.22125  0.97823  0.07308  1.0000
  H   H949      1.0  0.16207  0.94594  0.16101  1.0000
  H   H950      1.0  0.27868  0.73795  0.05632  1.0000
  H   H951      1.0  0.05700  0.91841  0.00149  1.0000
  C   C794      1.0  0.26842  0.85103  0.10083  1.0000
  H   H952      1.0  0.25440  0.84939  0.09533  1.0000
  H   H953      1.0  0.09134  0.78780  0.98438  1.0000
  H   H954      1.0  0.29403  0.75907  0.00058  1.0000
  C   C795      1.0  0.99498  0.86501  0.01120  1.0000
  C   C796      1.0  0.31056  0.75434  0.03477  1.0000
  H   H955      1.0  0.10229  0.73645  0.01312  1.0000
  C   C797      1.0  0.16403  0.97308  0.13758  1.0000
  C   C798      1.0  0.23946  0.83547  0.98437  1.0000
  H   H956      1.0  0.30046  0.87881  0.97549  1.0000
  C   C799      1.0  0.14144  0.95594  0.11734  1.0000
  H   H957      1.0  0.30840  0.92897  0.11821  1.0000
  C   C800      1.0  0.28616  0.75077  0.01524  1.0000
  C   C801      1.0  0.12902  0.97681  0.07929  1.0000
  H   H958      1.0  0.27825  0.97335  0.16198  1.0000
  H   H959      1.0  0.99429  0.74797  0.07720  1.0000
  C   C802      1.0  0.31058  0.90817  0.24053  1.0000
  C   C803      1.0  0.31438  0.92680  0.22784  1.0000
  S   S214      1.0  0.99731  0.88252  0.08369  1.0000
  H   H960      1.0  0.10037  0.73319  0.04974  1.0000
  C   C804      1.0  0.99279  0.76257  0.08308  1.0000
  C   C805      1.0  0.31541  0.89946  0.16422  1.0000
  C   C806      1.0  0.05671  0.77201  0.97772  1.0000
  H   H961      1.0  0.17098  0.97190  0.07173  1.0000
  H   H962      1.0  0.31662  0.87497  0.24379  1.0000
  S   S215      1.0  0.09667  0.89856  0.97714  1.0000
  H   H963      1.0  0.01836  0.91056  0.97514  1.0000
  H   H964      1.0  0.15207  0.75182  0.97625  1.0000
  H   H965      1.0  0.23236  0.98212  0.37052  1.0000
  H   H966      1.0  0.11398  0.79953  0.97582  1.0000
  H   H967      1.0  0.23967  0.82367  0.97503  1.0000
  C   C807      1.0  0.11246  0.74977  0.97488  1.0000
  C   C808      1.0  0.10706  0.78628  0.97475  1.0000
  C   C809      1.0  0.05562  0.93566  0.67252  1.0000
  Fe  Fe109     1.0  0.23326  0.85717  0.89573  1.0000
  S   S216      1.0  0.21686  0.88861  0.90140  1.0000
  S   S217      1.0  0.22582  0.82686  0.91390  1.0000
  Fe  Fe110     1.0  0.26785  0.87351  0.86332  1.0000
  S   S218      1.0  0.25498  0.90659  0.86650  1.0000
  Fe  Fe111     1.0  0.24887  0.89419  0.90040  1.0000
  S   S219      1.0  0.25336  0.90771  0.92627  1.0000
  Fe  Fe112     1.0  0.22412  0.89821  0.86708  1.0000
  S   S220      1.0  0.20322  0.91874  0.84609  1.0000
  S   S221      1.0  0.26483  0.86193  0.89726  1.0000
  S   S222      1.0  0.23745  0.86591  0.86144  1.0000
  H   H968      1.0  0.07301  0.84385  0.59548  1.0000
  Fe  Fe113     1.0  0.04282  0.80146  0.53947  1.0000
  S   S223      1.0  0.05224  0.81165  0.56497  1.0000
  S   S224      1.0  0.00944  0.80097  0.53945  1.0000
  Fe  Fe114     1.0  0.08687  0.78303  0.52164  1.0000
  S   S225      1.0  0.10041  0.79170  0.54592  1.0000
  Fe  Fe115     1.0  0.07307  0.78085  0.56790  1.0000
  C   C810      1.0  0.19576  0.93051  0.93312  1.0000
  Fe  Fe116     1.0  0.07860  0.82228  0.54109  1.0000
  S   S226      1.0  0.08446  0.85489  0.54005  1.0000
  S   S227      1.0  0.06166  0.76978  0.54435  1.0000
  S   S228      1.0  0.06719  0.81453  0.51477  1.0000
  Fe  Fe117     1.0  0.15498  0.95521  0.59231  1.0000
  S   S229      1.0  0.13312  0.94667  0.57555  1.0000
  C   C811      1.0  0.01411  0.97382  0.71357  1.0000
  Fe  Fe118     1.0  0.12842  0.94317  0.63403  1.0000
  S   S230      1.0  0.10447  0.93395  0.62094  1.0000
  S   S231      1.0  0.12404  0.94368  0.66788  1.0000
  Fe  Fe119     1.0  0.13147  0.91851  0.60033  1.0000
  S   S232      1.0  0.13354  0.88537  0.59592  1.0000
  C   C812      1.0  0.29251  0.78799  0.88241  1.0000
  H   H969      1.0  0.99915  0.76386  0.59605  1.0000
  S   S233      1.0  0.15558  0.92557  0.61548  1.0000
  H   H970      1.0  0.11658  0.92248  0.73460  1.0000
  Fe  Fe120     1.0  0.02735  0.92544  0.76498  1.0000
  S   S234      1.0  0.05341  0.89999  0.77318  1.0000
  S   S235      1.0  0.03079  0.95887  0.76220  1.0000
  Fe  Fe121     1.0  0.00227  0.89554  0.75600  1.0000
  S   S236      1.0  0.02619  0.86788  0.76472  1.0000
  Fe  Fe122     1.0  0.02797  0.88294  0.79110  1.0000
  S   S237      1.0  0.03245  0.86315  0.82228  1.0000
  Fe  Fe123     1.0  0.04937  0.88738  0.74647  1.0000
  S   S238      1.0  0.07426  0.87525  0.72183  1.0000
  S   S239      1.0  0.00170  0.90924  0.78417  1.0000
  S   S240      1.0  0.02568  0.91430  0.73648  1.0000
  Fe  Fe124     1.0  0.06549  0.84571  0.96185  1.0000
  S   S241      1.0  0.06026  0.88002  0.95205  1.0000
  H   H971      1.0  0.14296  0.76799  0.95384  1.0000
  Fe  Fe125     1.0  0.10764  0.84075  0.93509  1.0000
  S   S242      1.0  0.10628  0.87489  0.92314  1.0000
  S   S243      1.0  0.13294  0.81385  0.92926  1.0000
  Fe  Fe126     1.0  0.09305  0.87808  0.95608  1.0000
  H   H972      1.0  0.23020  0.95719  0.86297  1.0000
  Fe  Fe127     1.0  0.07361  0.87387  0.92010  1.0000
  S   S244      1.0  0.05720  0.89420  0.89487  1.0000
  H   H973      1.0  0.21231  0.94797  0.95655  1.0000
  S   S245      1.0  0.07601  0.83946  0.92969  1.0000
  C   C813      1.0  0.31112  0.80744  0.85248  1.0000
  C   C814      1.0  0.05381  0.79371  0.97437  1.0000
  C   C815      1.0  0.09470  0.74941  0.48529  1.0000
  H   H974      1.0  0.03172  0.74885  0.53583  1.0000
  C   C816      1.0  0.04015  0.87212  0.84179  1.0000
  C   C817      1.0  0.03731  0.89321  0.84242  1.0000
  C   C818      1.0  0.04266  0.89970  0.85877  1.0000
  C   C819      1.0  0.05116  0.88523  0.87445  1.0000
  C   C820      1.0  0.05447  0.86417  0.87359  1.0000
  C   C821      1.0  0.04874  0.85765  0.85746  1.0000
  H   H975      1.0  0.03062  0.90447  0.83051  1.0000
  H   H976      1.0  0.04006  0.91602  0.85934  1.0000
  H   H977      1.0  0.06125  0.85290  0.88542  1.0000
  H   H978      1.0  0.05103  0.84131  0.85702  1.0000
  H   H979      1.0  0.01659  0.81592  0.92147  1.0000
  H   H980      1.0  0.18082  0.95565  0.82572  1.0000
  H   H981      1.0  0.05830  0.80221  0.95912  1.0000
  C   C822      1.0  0.11027  0.92461  0.68278  1.0000
  C   C823      1.0  0.11297  0.90539  0.67689  1.0000
  C   C824      1.0  0.10238  0.89001  0.68936  1.0000
  C   C825      1.0  0.08856  0.89407  0.70731  1.0000
  C   C826      1.0  0.08572  0.91337  0.71312  1.0000
  C   C827      1.0  0.09671  0.92859  0.70091  1.0000
  H   H982      1.0  0.12357  0.90223  0.66297  1.0000
  H   H983      1.0  0.10484  0.87497  0.68503  1.0000
  H   H984      1.0  0.07498  0.91652  0.72693  1.0000
  H   H985      1.0  0.09444  0.94359  0.70525  1.0000
  C   C828      1.0  0.09737  0.86286  0.55659  1.0000
  C   C829      1.0  0.11044  0.84877  0.56872  1.0000
  C   C830      1.0  0.12116  0.85591  0.58088  1.0000
  C   C831      1.0  0.11892  0.87716  0.58110  1.0000
  C   C832      1.0  0.10552  0.89122  0.56930  1.0000
  C   C833      1.0  0.09489  0.88409  0.55707  1.0000
  H   H986      1.0  0.11253  0.83241  0.56849  1.0000
  H   H987      1.0  0.13143  0.84489  0.59000  1.0000
  H   H988      1.0  0.10370  0.90761  0.56924  1.0000
  H   H989      1.0  0.08488  0.89512  0.54769  1.0000
  H   H990      1.0  0.99149  0.85265  0.73899  1.0000
  C   C834      1.0  0.13734  0.89395  0.52237  1.0000
  H   H991      1.0  0.29513  0.75532  0.93757  1.0000
  H   H992      1.0  0.01198  0.84152  0.54502  1.0000
  C   C835      1.0  0.03504  0.97588  0.66084  1.0000
  H   H993      1.0  0.00631  0.87538  0.93848  1.0000
  H   H994      1.0  0.05384  0.96899  0.71624  1.0000
  C   C836      1.0  0.03771  0.96922  0.68171  1.0000
  H   H995      1.0  0.01136  0.82333  0.65557  1.0000
  C   C837      1.0  0.08705  0.89630  0.80954  1.0000
  H   H996      1.0  0.00092  0.97206  0.70688  1.0000
  C   C838      1.0  0.30849  0.75839  0.90551  1.0000
  H   H997      1.0  0.18327  0.97645  0.61417  1.0000
  C   C839      1.0  0.19823  0.96282  0.90926  1.0000
  H   H998      1.0  0.03900  0.79578  0.64339  1.0000
  C   C840      1.0  0.19979  0.82414  0.91773  1.0000
  C   C841      1.0  0.19511  0.80419  0.92265  1.0000
  C   C842      1.0  0.17454  0.80132  0.92591  1.0000
  C   C843      1.0  0.15845  0.81837  0.92487  1.0000
  C   C844      1.0  0.16299  0.83842  0.92043  1.0000
  C   C845      1.0  0.18375  0.84132  0.91653  1.0000
  H   H999      1.0  0.20747  0.79090  0.92357  1.0000
  H   H1000     1.0  0.17113  0.78581  0.92918  1.0000
  H   H1001     1.0  0.15058  0.85165  0.91976  1.0000
  H   H1002     1.0  0.18729  0.85679  0.91294  1.0000
  C   C846      1.0  0.27734  0.89571  0.93322  1.0000
  H   H1003     1.0  0.06808  0.92214  0.82223  1.0000
  C   C847      1.0  0.03924  0.88770  0.64079  1.0000
  H   H1004     1.0  0.16251  0.96012  0.93851  1.0000
  H   H1005     1.0  0.00738  0.86660  0.66449  1.0000
  H   H1006     1.0  0.20948  0.89694  0.52373  1.0000
  C   C848      1.0  0.04345  0.88190  0.66123  1.0000
  H   H1007     1.0  0.03998  0.78874  0.61884  1.0000
  H   H1008     1.0  0.19408  0.92263  0.94946  1.0000
  C   C849      1.0  0.03345  0.85679  0.69159  1.0000
  H   H1009     1.0  0.10244  0.73707  0.54179  1.0000
  C   C850      1.0  0.00178  0.81927  0.64597  1.0000
  C   C851      1.0  0.01773  0.86135  0.93516  1.0000
  C   C852      1.0  0.03642  0.96562  0.78398  1.0000
  C   C853      1.0  0.03240  0.95350  0.80346  1.0000
  C   C854      1.0  0.03668  0.95935  0.82066  1.0000
  H   H1010     1.0  0.29901  0.82842  0.93247  1.0000
  H   H1011     1.0  0.02578  0.93973  0.80532  1.0000
  H   H1012     1.0  0.03316  0.95010  0.83575  1.0000
  H   H1013     1.0  0.13928  0.89119  0.95458  1.0000
  C   C855      1.0  0.17600  0.93628  0.87697  1.0000
  H   H1014     1.0  0.17506  0.95342  0.96042  1.0000
  H   H1015     1.0  0.26719  0.80807  0.89912  1.0000
  H   H1016     1.0  0.18266  0.92351  0.88766  1.0000
  C   C856      1.0  0.04269  0.96279  0.64636  1.0000
  N   N56       1.0  0.19591  0.95286  0.93122  1.0000
  H   H1017     1.0  0.99644  0.85126  0.60844  1.0000
  H   H1018     1.0  0.12990  0.94908  0.77213  1.0000
  H   H1019     1.0  0.31072  0.81680  0.83677  1.0000
  C   C857      1.0  0.00110  0.80802  0.61453  1.0000
  H   H1020     1.0  0.07987  0.94806  0.79334  1.0000
  C   C858      1.0  0.29388  0.88894  0.91833  1.0000
  C   C859      1.0  0.27975  0.89220  0.95382  1.0000
  H   H1021     1.0  0.24889  0.86681  0.95319  1.0000
  H   H1022     1.0  0.06391  0.92016  0.67693  1.0000
  H   H1023     1.0  0.12492  0.89069  0.51624  1.0000
  H   H1024     1.0  0.08743  0.89332  0.61382  1.0000
  H   H1025     1.0  0.03899  0.89257  0.69878  1.0000
  H   H1026     1.0  0.12708  0.94570  0.72777  1.0000
  H   H1027     1.0  0.21452  0.97177  0.93852  1.0000
  C   C860      1.0  0.08640  0.93201  0.79278  1.0000
  C   C861      1.0  0.02506  0.83035  0.61478  1.0000
  H   H1028     1.0  0.13044  0.92670  0.51197  1.0000
  H   H1029     1.0  0.13732  0.92517  0.74656  1.0000
  C   C862      1.0  0.31963  0.86223  0.84546  1.0000
  H   H1030     1.0  0.11894  0.89842  0.76351  1.0000
  H   H1031     1.0  0.25881  0.81235  0.86643  1.0000
  H   H1032     1.0  0.27508  0.77796  0.85495  1.0000
  H   H1033     1.0  0.05912  0.93279  0.64083  1.0000
  S   S246      1.0  0.12960  0.97332  0.61210  1.0000
  H   H1034     1.0  0.00968  0.80577  0.59891  1.0000
  C   C863      1.0  0.12274  0.93340  0.74100  1.0000
  H   H1035     1.0  0.08057  0.94249  0.74450  1.0000
  H   H1036     1.0  0.31463  0.84501  0.89818  1.0000
  H   H1037     1.0  0.01221  0.89073  0.70654  1.0000
  H   H1038     1.0  0.31461  0.79302  0.94742  1.0000
  H   H1039     1.0  0.02480  0.85461  0.94913  1.0000
  C   C864      1.0  0.31295  0.87897  0.92397  1.0000
  C   C865      1.0  0.03167  0.76151  0.59632  1.0000
  H   H1040     1.0  0.23376  0.85195  0.94577  1.0000
  C   C866      1.0  0.01275  0.75430  0.60148  1.0000
  H   H1041     1.0  0.26703  0.89763  0.96531  1.0000
  H   H1042     1.0  0.22714  0.94239  0.89949  1.0000
  C   C867      1.0  0.04797  0.94859  0.68713  1.0000
  H   H1043     1.0  0.27573  0.82906  0.86878  1.0000
  C   C868      1.0  0.27893  0.79432  0.90007  1.0000
  C   C869      1.0  0.02940  0.79380  0.63265  1.0000
  H   H1044     1.0  0.05172  0.87492  0.57882  1.0000
  C   C870      1.0  0.14969  0.87787  0.53329  1.0000
  C   C871      1.0  0.99489  0.83059  0.96551  1.0000
  S   S247      1.0  0.18307  0.96866  0.57322  1.0000
  N   N57       1.0  0.11199  0.92546  0.86544  1.0000
  C   C872      1.0  0.09100  0.93344  0.86009  1.0000
  C   C873      1.0  0.11186  0.93174  0.88522  1.0000
  C   C874      1.0  0.12694  0.93572  0.84913  1.0000
  C   C875      1.0  0.11839  0.90273  0.86731  1.0000
  C   C876      1.0  0.13789  0.89288  0.87284  1.0000
  C   C877      1.0  0.10586  0.88981  0.86361  1.0000
  C   C878      1.0  0.14413  0.87142  0.87511  1.0000
  C   C879      1.0  0.11212  0.86832  0.86619  1.0000
  C   C880      1.0  0.13115  0.85913  0.87207  1.0000
  H   H1045     1.0  0.09007  0.93020  0.84491  1.0000
  H   H1046     1.0  0.07882  0.92670  0.87199  1.0000
  H   H1047     1.0  0.08668  0.95056  0.85902  1.0000
  H   H1048     1.0  0.10113  0.92388  0.89798  1.0000
  H   H1049     1.0  0.10685  0.94877  0.88448  1.0000
  H   H1050     1.0  0.12743  0.92801  0.88963  1.0000
  H   H1051     1.0  0.12739  0.93155  0.83396  1.0000
  H   H1052     1.0  0.12294  0.95284  0.84755  1.0000
  H   H1053     1.0  0.14297  0.93136  0.85244  1.0000
  H   H1054     1.0  0.14852  0.90170  0.87549  1.0000
  H   H1055     1.0  0.09098  0.89590  0.85902  1.0000
  H   H1056     1.0  0.15906  0.86427  0.87940  1.0000
  H   H1057     1.0  0.10205  0.85874  0.86377  1.0000
  H   H1058     1.0  0.13586  0.84245  0.87432  1.0000
  N   N58       1.0  0.18590  0.90621  0.54867  1.0000
  C   C881      1.0  0.20597  0.89367  0.54086  1.0000
  C   C882      1.0  0.18867  0.92820  0.54398  1.0000
  C   C883      1.0  0.18117  0.90016  0.57134  1.0000
  C   C884      1.0  0.16915  0.90238  0.53953  1.0000
  C   C885      1.0  0.15611  0.91849  0.52846  1.0000
  C   C886      1.0  0.16526  0.88196  0.54189  1.0000
  C   C887      1.0  0.14046  0.91421  0.52005  1.0000
  H   H1059     1.0  0.01686  0.75617  0.55905  1.0000
  H   H1060     1.0  0.03630  0.83177  0.91214  1.0000
  C   C888      1.0  0.23298  0.86318  0.95593  1.0000
  H   H1061     1.0  0.21905  0.89695  0.54668  1.0000
  H   H1062     1.0  0.20605  0.87679  0.54576  1.0000
  H   H1063     1.0  0.17457  0.93850  0.55044  1.0000
  H   H1064     1.0  0.19254  0.93380  0.52714  1.0000
  H   H1065     1.0  0.20137  0.93061  0.55103  1.0000
  H   H1066     1.0  0.18033  0.88345  0.57640  1.0000
  H   H1067     1.0  0.19289  0.90353  0.57903  1.0000
  H   H1068     1.0  0.16584  0.90873  0.57756  1.0000
  H   H1069     1.0  0.15742  0.93456  0.52633  1.0000
  H   H1070     1.0  0.21038  0.83160  0.95813  1.0000
  C   C889      1.0  0.02273  0.86497  0.59330  1.0000
  C   C890      1.0  0.21361  0.95517  0.93995  1.0000
  H   H1071     1.0  0.10673  0.87356  0.79280  1.0000
  C   C891      1.0  0.06423  0.88064  0.66361  1.0000
  C   C892      1.0  0.07984  0.88470  0.64666  1.0000
  N   N59       1.0  0.00780  0.84648  0.92897  1.0000
  H   H1072     1.0  0.02498  0.74169  0.50590  1.0000
  H   H1073     1.0  0.06854  0.87652  0.67868  1.0000
  C   C893      1.0  0.30751  0.76985  0.88583  1.0000
  H   H1074     1.0  0.02098  0.85258  0.70471  1.0000
  H   H1075     1.0  0.30257  0.77287  0.84588  1.0000
  H   H1076     1.0  0.30764  0.88020  0.86953  1.0000
  C   C894      1.0  0.32166  0.82957  0.90465  1.0000
  H   H1077     1.0  0.22258  0.87767  0.95037  1.0000
  H   H1078     1.0  0.12193  0.96894  0.75139  1.0000
  C   C895      1.0  0.11644  0.95704  0.76451  1.0000
  H   H1079     1.0  0.31386  0.81768  0.86221  1.0000
  C   C896      1.0  0.17489  0.95439  0.84206  1.0000
  H   H1080     1.0  0.04091  0.96835  0.63042  1.0000
  H   H1081     1.0  0.31133  0.74620  0.96743  1.0000
  H   H1082     1.0  0.09567  0.88353  0.64879  1.0000
  H   H1083     1.0  0.10525  0.78832  0.95839  1.0000
  H   H1084     1.0  0.02031  0.95836  0.72182  1.0000
  C   C897      1.0  0.21743  0.96377  0.87383  1.0000
  H   H1085     1.0  0.02395  0.88915  0.63733  1.0000
  N   N60       1.0  0.10722  0.94204  0.75765  1.0000
  H   H1086     1.0  0.03122  0.82075  0.93875  1.0000
  H   H1087     1.0  0.29930  0.74322  0.48789  1.0000
  H   H1088     1.0  0.00025  0.89386  0.66639  1.0000
  C   C898      1.0  0.08879  0.95334  0.74862  1.0000
  H   H1089     1.0  0.07733  0.96207  0.75947  1.0000
  H   H1090     1.0  0.21043  0.92223  0.92532  1.0000
  H   H1091     1.0  0.99417  0.84578  0.90295  1.0000
  C   C899      1.0  0.99822  0.83686  0.55503  1.0000
  C   C900      1.0  0.02363  0.82793  0.92520  1.0000
  Fe  Fe128     1.0  0.10784  0.96265  0.59737  1.0000
  C   C901      1.0  0.27993  0.78265  0.91974  1.0000
  C   C902      1.0  0.15046  0.96752  0.87031  1.0000
  H   H1092     1.0  0.26907  0.78755  0.93290  1.0000
  C   C903      1.0  0.99334  0.81760  0.55530  1.0000
  H   H1093     1.0  0.01337  0.87868  0.58602  1.0000
  C   C904      1.0  0.10085  0.92612  0.77545  1.0000
  H   H1094     1.0  0.08139  0.88489  0.82229  1.0000
  H   H1095     1.0  0.03043  0.86659  0.92281  1.0000
  H   H1096     1.0  0.17386  0.86902  0.55087  1.0000
  C   C905      1.0  0.99079  0.75780  0.53398  1.0000
  H   H1097     1.0  0.28689  0.79387  0.83237  1.0000
  H   H1098     1.0  0.29211  0.89186  0.90239  1.0000
  H   H1099     1.0  0.18285  0.92802  0.92649  1.0000
  C   C906      1.0  0.14166  0.76634  0.97082  1.0000
  C   C907      1.0  0.04694  0.82922  0.61120  1.0000
  C   C908      1.0  0.27411  0.81729  0.86018  1.0000
  C   C909      1.0  0.18367  0.93784  0.85587  1.0000
  C   C910      1.0  0.07381  0.75516  0.48317  1.0000
  C   C911      1.0  0.00665  0.87821  0.67425  1.0000
  H   H1100     1.0  0.03712  0.84467  0.68182  1.0000
  N   N61       1.0  0.02722  0.87761  0.67949  1.0000
  C   C912      1.0  0.29861  0.88152  0.95958  1.0000
  S   S248      1.0  0.07267  0.75890  0.59788  1.0000
  C   C913      1.0  0.04924  0.74946  0.60366  1.0000
  C   C914      1.0  0.28890  0.78543  0.84809  1.0000
  H   H1101     1.0  0.04725  0.85584  0.69867  1.0000
  C   C915      1.0  0.05300  0.94276  0.65217  1.0000
  H   H1102     1.0  0.10516  0.96579  0.77561  1.0000
  H   H1103     1.0  0.01041  0.82744  0.96881  1.0000
  H   H1104     1.0  0.06405  0.76744  0.49063  1.0000
  N   N62       1.0  0.29153  0.79944  0.86123  1.0000
  H   H1105     1.0  0.14666  0.86223  0.53569  1.0000
  C   C916      1.0  0.02461  0.89321  0.69279  1.0000
  H   H1106     1.0  0.27362  0.82557  0.84409  1.0000
  H   H1107     1.0  0.02033  0.90918  0.68430  1.0000
  S   S249      1.0  0.29523  0.86177  0.84037  1.0000
  H   H1108     1.0  0.15059  0.97544  0.65073  1.0000
  H   H1109     1.0  0.22872  0.94755  0.93207  1.0000
  S   S250      1.0  0.09718  0.84410  0.96810  1.0000
  H   H1110     1.0  0.03258  0.77649  0.58682  1.0000
  N   N63       1.0  0.01468  0.81306  0.62680  1.0000
  C   C917      1.0  0.32140  0.87239  0.86080  1.0000
  H   H1111     1.0  0.99370  0.80665  0.65554  1.0000
  H   H1112     1.0  0.05732  0.81577  0.61729  1.0000
  H   H1113     1.0  0.11385  0.75228  0.95784  1.0000
  S   S251      1.0  0.10599  0.76172  0.49978  1.0000
  H   H1114     1.0  0.15333  0.94978  0.90048  1.0000
  H   H1115     1.0  0.31844  0.76419  0.87323  1.0000
  C   C918      1.0  0.07524  0.89023  0.62689  1.0000
  H   H1116     1.0  0.99053  0.89826  0.96630  1.0000
  C   C919      1.0  0.07961  0.91728  0.80948  1.0000
  H   H1117     1.0  0.06323  0.76392  0.96495  1.0000
  C   C920      1.0  0.05627  0.84534  0.59863  1.0000
  C   C921      1.0  0.15839  0.96928  0.84926  1.0000
  H   H1118     1.0  0.09293  0.96491  0.73461  1.0000
  C   C922      1.0  0.15938  0.95109  0.88417  1.0000
  C   C923      1.0  0.17649  0.96164  0.94411  1.0000
  C   C924      1.0  0.01320  0.84905  0.60603  1.0000
  C   C925      1.0  0.10819  0.90454  0.77601  1.0000
  C   C926      1.0  0.05499  0.89181  0.62396  1.0000
  C   C927      1.0  0.15769  0.90198  0.97143  1.0000
  H   H1119     1.0  0.01411  0.86101  0.89697  1.0000
  C   C928      1.0  0.10134  0.88996  0.79287  1.0000
  H   H1120     1.0  0.05031  0.94238  0.70273  1.0000
  C   C929      1.0  0.29459  0.76462  0.92243  1.0000
  C   C930      1.0  0.02087  0.74347  0.54991  1.0000
  C   C931      1.0  0.00094  0.85644  0.90910  1.0000
  H   H1121     1.0  0.05155  0.89623  0.60849  1.0000
  C   C932      1.0  0.04573  0.97688  0.81842  1.0000
  C   C933      1.0  0.31276  0.82021  0.92399  1.0000
  H   H1122     1.0  0.17200  0.89817  0.96100  1.0000
  C   C934      1.0  0.13919  0.89772  0.96790  1.0000
  H   H1123     1.0  0.17477  0.82653  0.96208  1.0000
  H   H1124     1.0  0.00103  0.76564  0.52075  1.0000
  H   H1125     1.0  0.14792  0.77960  0.97297  1.0000
  C   C935      1.0  0.04425  0.86296  0.58934  1.0000
  H   H1126     1.0  0.17597  0.97821  0.94449  1.0000
  C   C936      1.0  0.31528  0.87511  0.94460  1.0000
  H   H1127     1.0  0.30774  0.90983  0.81085  1.0000
  C   C937      1.0  0.18384  0.98008  0.90157  1.0000
  H   H1128     1.0  0.99492  0.87462  0.68823  1.0000
  C   C938      1.0  0.01166  0.73450  0.61297  1.0000
  C   C939      1.0  0.99073  0.84035  0.94565  1.0000
  C   C940      1.0  0.19884  0.83894  0.96941  1.0000
  N   N64       1.0  0.00212  0.73864  0.54504  1.0000
  C   C941      1.0  0.17847  0.83575  0.97169  1.0000
  H   H1129     1.0  0.99467  0.79371  0.62200  1.0000
  H   H1130     1.0  0.02125  0.78067  0.64055  1.0000
  H   H1131     1.0  0.31988  0.74436  0.90758  1.0000
  C   C942      1.0  0.21534  0.95522  0.89478  1.0000
  H   H1132     1.0  0.15178  0.98206  0.83852  1.0000
  C   C943      1.0  0.10723  0.73359  0.47533  1.0000
  H   H1133     1.0  0.14783  0.97518  0.67771  1.0000
  C   C944      1.0  0.32162  0.80036  0.93241  1.0000
  C   C945      1.0  0.20288  0.98043  0.86676  1.0000
  H   H1134     1.0  0.98944  0.87090  0.91059  1.0000
  H   H1135     1.0  0.98948  0.83295  0.64280  1.0000
  H   H1136     1.0  0.32223  0.90397  0.77532  1.0000
  Fe  Fe129     1.0  0.50598  0.18626  0.12665  1.0000
  S   S252      1.0  0.52996  0.17875  0.09963  1.0000
  S   S253      1.0  0.50877  0.21278  0.14042  1.0000
  Fe  Fe130     1.0  0.48417  0.15069  0.12725  1.0000
  S   S254      1.0  0.50722  0.14003  0.10049  1.0000
  S   S255      1.0  0.45562  0.13581  0.13765  1.0000
  Fe  Fe131     1.0  0.53127  0.14602  0.11606  1.0000
  S   S256      1.0  0.56282  0.12817  0.12117  1.0000
  Fe  Fe132     1.0  0.50350  0.17387  0.08711  1.0000
  S   S257      1.0  0.50079  0.18655  0.05417  1.0000
  S   S258      1.0  0.50849  0.15375  0.14417  1.0000
  S   S259      1.0  0.47919  0.18433  0.11280  1.0000
  S   S260      1.0  0.34567  0.12566  0.45947  1.0000
  H   H1137     1.0  0.39485  0.21441  0.47032  1.0000
  S   S261      1.0  0.62496  0.09574  0.04578  1.0000
  H   H1138     1.0  0.63749  0.08652  0.98154  1.0000
  H   H1139     1.0  0.42555  0.11064  0.12515  1.0000
  H   H1140     1.0  0.34553  0.14283  0.06683  1.0000
  S   S262      1.0  0.34740  0.17385  0.41648  1.0000
  H   H1141     1.0  0.54256  0.22252  0.15441  1.0000
  H   H1142     1.0  0.33697  0.02037  0.30870  1.0000
  C   C946      1.0  0.33117  0.05046  0.22063  1.0000
  H   H1143     1.0  0.32930  0.06559  0.33017  1.0000
  N   N65       1.0  0.33013  0.09956  0.34622  1.0000
  S   S263      1.0  0.35519  0.16795  0.35828  1.0000
  Fe  Fe133     1.0  0.35533  0.08637  0.26511  1.0000
  H   H1144     1.0  0.63194  0.98462  0.30569  1.0000
  S   S264      1.0  0.37350  0.08837  0.23291  1.0000
  H   H1145     1.0  0.44387  0.11820  0.06588  1.0000
  H   H1146     1.0  0.38050  0.20932  0.21178  1.0000
  S   S265      1.0  0.36875  0.11071  0.27315  1.0000
  Fe  Fe134     1.0  0.33467  0.16987  0.38941  1.0000
  Fe  Fe135     1.0  0.38429  0.11507  0.24001  1.0000
  S   S266      1.0  0.41701  0.12131  0.23227  1.0000
  H   H1147     1.0  0.34503  0.09345  0.31579  1.0000
  H   H1148     1.0  0.65090  0.00771  0.09928  1.0000
  S   S267      1.0  0.35823  0.13911  0.22928  1.0000
  C   C947      1.0  0.42219  0.17496  0.22571  1.0000
  H   H1149     1.0  0.59756  0.15184  0.04419  1.0000
  C   C948      1.0  0.33065  0.23001  0.45120  1.0000
  H   H1150     1.0  0.34951  0.15658  0.18669  1.0000
  H   H1151     1.0  0.61003  0.11727  0.98811  1.0000
  Fe  Fe136     1.0  0.38404  0.20013  0.05628  1.0000
  S   S268      1.0  0.37769  0.18924  0.09052  1.0000
  S   S269      1.0  0.41233  0.19082  0.03357  1.0000
  Fe  Fe137     1.0  0.34632  0.18713  0.08480  1.0000
  H   H1152     1.0  0.41334  0.15643  0.09875  1.0000
  Fe  Fe138     1.0  0.36477  0.22277  0.09191  1.0000
  C   C949      1.0  0.37078  0.99504  0.27319  1.0000
  S   S270      1.0  0.35362  0.19582  0.05038  1.0000
  H   H1153     1.0  0.34121  0.10969  0.05869  1.0000
  H   H1154     1.0  0.60796  0.20828  0.08479  1.0000
  C   C950      1.0  0.33335  0.11429  0.07316  1.0000
  C   C951      1.0  0.38540  0.20658  0.15309  1.0000
  H   H1155     1.0  0.36259  0.99169  0.20714  1.0000
  Fe  Fe139     1.0  0.33190  0.14731  0.43365  1.0000
  C   C952      1.0  0.65099  0.04116  0.11343  1.0000
  H   H1156     1.0  0.60829  0.12579  0.01198  1.0000
  H   H1157     1.0  0.40315  0.09458  0.15506  1.0000
  H   H1158     1.0  0.38904  0.18192  0.19223  1.0000
  S   S271      1.0  0.34806  0.05941  0.28961  1.0000
  C   C953      1.0  0.41659  0.22086  0.18620  1.0000
  C   C954      1.0  0.34609  0.08419  0.35615  1.0000
  C   C955      1.0  0.57369  0.07188  0.11860  1.0000
  C   C956      1.0  0.59890  0.05190  0.09575  1.0000
  H   H1159     1.0  0.39984  0.12718  0.06295  1.0000
  H   H1160     1.0  0.52405  0.22440  0.09698  1.0000
  C   C957      1.0  0.35132  0.14990  0.14854  1.0000
  C   C958      1.0  0.58860  0.07052  0.13056  1.0000
  Fe  Fe140     1.0  0.34610  0.11208  0.22438  1.0000
  C   C959      1.0  0.37298  0.03162  0.26603  1.0000
  C   C960      1.0  0.37974  0.01168  0.26111  1.0000
  C   C961      1.0  0.45309  0.19963  0.16596  1.0000
  Fe  Fe141     1.0  0.34182  0.13263  0.26199  1.0000
  C   C962      1.0  0.32580  0.13900  0.09654  1.0000
  H   H1161     1.0  0.37979  0.04447  0.25664  1.0000
  H   H1162     1.0  0.39162  0.00924  0.24783  1.0000
  C   C963      1.0  0.60146  0.18115  0.00346  1.0000
  C   C964      1.0  0.32438  0.17005  0.33585  1.0000
  C   C965      1.0  0.34558  0.16533  0.33675  1.0000
  C   C966      1.0  0.35966  0.15812  0.32014  1.0000
  C   C967      1.0  0.35268  0.15541  0.30287  1.0000
  H   H1163     1.0  0.36102  0.13757  0.15797  1.0000
  C   C968      1.0  0.40559  0.17549  0.14201  1.0000
  H   H1164     1.0  0.39754  0.21181  0.22828  1.0000
  H   H1165     1.0  0.37607  0.15454  0.32069  1.0000
  H   H1166     1.0  0.36374  0.14989  0.29020  1.0000
  C   C969      1.0  0.39713  0.10124  0.14094  1.0000
  H   H1167     1.0  0.47376  0.22922  0.04785  1.0000
  H   H1168     1.0  0.42050  0.16677  0.13634  1.0000
  C   C970      1.0  0.37683  0.10022  0.14003  1.0000
  C   C971      1.0  0.35094  0.22853  0.44012  1.0000
  C   C972      1.0  0.39187  0.20063  0.22176  1.0000
  N   N66       1.0  0.60249  0.15041  0.98651  1.0000
  C   C973      1.0  0.44084  0.18899  0.18251  1.0000
  C   C974      1.0  0.47592  0.18775  0.04904  1.0000
  C   C975      1.0  0.47389  0.18605  0.02936  1.0000
  C   C976      1.0  0.45425  0.18706  0.02482  1.0000
  C   C977      1.0  0.43650  0.19031  0.03976  1.0000
  C   C978      1.0  0.43834  0.19281  0.05926  1.0000
  C   C979      1.0  0.45809  0.19125  0.06398  1.0000
  H   H1169     1.0  0.48756  0.18358  0.01770  1.0000
  H   H1170     1.0  0.45284  0.18522  0.00968  1.0000
  H   H1171     1.0  0.42461  0.19559  0.07077  1.0000
  H   H1172     1.0  0.45943  0.19315  0.07902  1.0000
  C   C980      1.0  0.44567  0.13061  0.16411  1.0000
  C   C981      1.0  0.45718  0.13140  0.17879  1.0000
  C   C982      1.0  0.44859  0.12759  0.19981  1.0000
  C   C983      1.0  0.42843  0.12319  0.20618  1.0000
  C   C984      1.0  0.41702  0.12213  0.19149  1.0000
  C   C985      1.0  0.42567  0.12584  0.17051  1.0000
  H   H1173     1.0  0.47270  0.13486  0.17398  1.0000
  H   H1174     1.0  0.45751  0.12827  0.21116  1.0000
  H   H1175     1.0  0.40142  0.11884  0.19629  1.0000
  H   H1176     1.0  0.41669  0.12536  0.15922  1.0000
  C   C986      1.0  0.57996  0.12005  0.09973  1.0000
  C   C987      1.0  0.57279  0.11921  0.08202  1.0000
  C   C988      1.0  0.58670  0.11143  0.06560  1.0000
  C   C989      1.0  0.60782  0.10498  0.06668  1.0000
  C   C990      1.0  0.61500  0.10620  0.08424  1.0000
  C   C991      1.0  0.60105  0.11354  0.10080  1.0000
  H   H1177     1.0  0.55650  0.12410  0.08117  1.0000
  H   H1178     1.0  0.58110  0.11053  0.05201  1.0000
  H   H1179     1.0  0.63123  0.10140  0.08515  1.0000
  H   H1180     1.0  0.60660  0.11397  0.11456  1.0000
  C   C992      1.0  0.53102  0.22279  0.12696  1.0000
  C   C993      1.0  0.33581  0.13307  0.07775  1.0000
  H   H1181     1.0  0.34899  0.22903  0.00916  1.0000
  C   C994      1.0  0.59183  0.16556  0.00005  1.0000
  H   H1182     1.0  0.40267  0.23003  0.19319  1.0000
  C   C995      1.0  0.62477  0.15156  0.97876  1.0000
  N   N67       1.0  0.40935  0.18744  0.21045  1.0000
  S   S272      1.0  0.33651  0.11414  0.19375  1.0000
  H   H1183     1.0  0.60611  0.98742  0.30050  1.0000
  H   H1184     1.0  0.32429  0.16084  0.18012  1.0000
  H   H1185     1.0  0.41253  0.16366  0.19249  1.0000
  H   H1186     1.0  0.57238  0.17000  0.10799  1.0000
  C   C996      1.0  0.36910  0.10853  0.12189  1.0000
  H   H1187     1.0  0.35541  0.22016  0.42740  1.0000
  H   H1188     1.0  0.45647  0.22880  0.14628  1.0000
  H   H1189     1.0  0.41268  0.16672  0.23938  1.0000
  H   H1190     1.0  0.61958  0.05985  0.13497  1.0000
  C   C997      1.0  0.57086  0.16540  0.00987  1.0000
  C   C998      1.0  0.56033  0.17972  0.02248  1.0000
  C   C999      1.0  0.57025  0.19474  0.02552  1.0000
  H   H1191     1.0  0.35963  0.09119  0.35653  1.0000
  H   H1192     1.0  0.54426  0.17935  0.02972  1.0000
  H   H1193     1.0  0.56195  0.20602  0.03505  1.0000
  N   N68       1.0  0.60276  0.17824  0.10149  1.0000
  C   C1000     1.0  0.57979  0.18392  0.10508  1.0000
  C   C1001     1.0  0.60852  0.16379  0.12010  1.0000
  C   C1002     1.0  0.61124  0.19744  0.09917  1.0000
  C   C1003     1.0  0.61140  0.16845  0.08311  1.0000
  C   C1004     1.0  0.63319  0.16239  0.07745  1.0000
  C   C1005     1.0  0.59876  0.16452  0.07045  1.0000
  C   C1006     1.0  0.61470  0.23075  0.97640  1.0000
  H   H1194     1.0  0.34128  0.05999  0.20980  1.0000
  H   H1195     1.0  0.56231  0.15439  0.00762  1.0000
  H   H1196     1.0  0.57373  0.19143  0.11885  1.0000
  H   H1197     1.0  0.57426  0.19508  0.09183  1.0000
  H   H1198     1.0  0.40967  0.22665  0.10255  1.0000
  H   H1199     1.0  0.60244  0.14915  0.12216  1.0000
  H   H1200     1.0  0.60197  0.17056  0.13428  1.0000
  H   H1201     1.0  0.62557  0.15969  0.11939  1.0000
  C   C1007     1.0  0.60144  0.12899  0.99775  1.0000
  H   H1202     1.0  0.60427  0.20590  0.11218  1.0000
  H   H1203     1.0  0.62827  0.19444  0.09856  1.0000
  H   H1204     1.0  0.35844  0.15082  0.13199  1.0000
  C   C1008     1.0  0.33920  0.10649  0.32443  1.0000
  H   H1205     1.0  0.35509  0.99517  0.12767  1.0000
  C   C1009     1.0  0.54510  0.22633  0.13782  1.0000
  C   C1010     1.0  0.59074  0.19547  0.01603  1.0000
  C   C1011     1.0  0.63516  0.01683  0.10357  1.0000
  H   H1206     1.0  0.64696  0.03411  0.12991  1.0000
  C   C1012     1.0  0.60753  0.15519  0.05327  1.0000
  N   N69       1.0  0.63582  0.03913  0.10117  1.0000
  H   H1207     1.0  0.43046  0.18479  0.23126  1.0000
  H   H1208     1.0  0.58203  0.16808  0.07369  1.0000
  H   H1209     1.0  0.33961  0.07780  0.37229  1.0000
  H   H1210     1.0  0.33907  0.12472  0.35569  1.0000
  C   C1013     1.0  0.34893  0.01804  0.29543  1.0000
  C   C1014     1.0  0.38155  0.11805  0.10463  1.0000
  H   H1211     1.0  0.63351  0.14878  0.99163  1.0000
  H   H1212     1.0  0.41844  0.20188  0.14294  1.0000
  H   H1213     1.0  0.63536  0.04344  0.06843  1.0000
  H   H1214     1.0  0.39243  0.15090  0.07322  1.0000
  H   H1215     1.0  0.35333  0.10756  0.12114  1.0000
  C   C1015     1.0  0.35541  0.99830  0.29034  1.0000
  H   H1216     1.0  0.42699  0.09948  0.07625  1.0000
  H   H1217     1.0  0.62514  0.01398  0.09368  1.0000
  C   C1016     1.0  0.57882  0.06260  0.10123  1.0000
  H   H1218     1.0  0.35281  0.20796  0.16143  1.0000
  H   H1219     1.0  0.36704  0.09297  0.15340  1.0000
  H   H1220     1.0  0.43516  0.15241  0.07840  1.0000
  C   C1017     1.0  0.42554  0.14447  0.09211  1.0000
  H   H1221     1.0  0.44594  0.17252  0.18661  1.0000
  H   H1222     1.0  0.46730  0.19144  0.15810  1.0000
  H   H1223     1.0  0.62891  0.01039  0.11978  1.0000
  C   C1018     1.0  0.33875  0.16750  0.17722  1.0000
  H   H1224     1.0  0.33633  0.14444  0.15032  1.0000
  C   C1019     1.0  0.64176  0.15296  0.06029  1.0000
  H   H1225     1.0  0.34850  0.98557  0.29984  1.0000
  H   H1226     1.0  0.58453  0.07827  0.14376  1.0000
  C   C1020     1.0  0.36776  0.17837  0.15213  1.0000
  H   H1227     1.0  0.35244  0.07099  0.34781  1.0000
  C   C1021     1.0  0.38759  0.16701  0.14517  1.0000
  C   C1022     1.0  0.53476  0.22737  0.10542  1.0000
  C   C1023     1.0  0.62893  0.14938  0.04821  1.0000
  C   C1024     1.0  0.40449  0.19524  0.14585  1.0000
  C   C1025     1.0  0.64388  0.04695  0.07928  1.0000
  C   C1026     1.0  0.40978  0.11058  0.12373  1.0000
  Fe  Fe142     1.0  0.34298  0.22873  0.05514  1.0000
  H   H1228     1.0  0.38962  0.15164  0.14182  1.0000
  H   H1229     1.0  0.32794  0.19982  0.14885  1.0000
  C   C1027     1.0  0.60880  0.05999  0.12515  1.0000
  C   C1028     1.0  0.40236  0.11938  0.10502  1.0000
  S   S273      1.0  0.32935  0.16160  0.10397  1.0000
  N   N70       1.0  0.34827  0.17020  0.15514  1.0000
  C   C1029     1.0  0.36728  0.19832  0.15625  1.0000
  H   H1230     1.0  0.61717  0.18287  0.99641  1.0000
  H   H1231     1.0  0.38341  0.98228  0.22087  1.0000
  H   H1232     1.0  0.58535  0.12584  0.00228  1.0000
  C   C1030     1.0  0.35751  0.03477  0.28320  1.0000
  C   C1031     1.0  0.40569  0.13856  0.06903  1.0000
  S   S274      1.0  0.33281  0.21991  0.08912  1.0000
  H   H1233     1.0  0.60205  0.04498  0.08214  1.0000
  H   H1234     1.0  0.41630  0.14610  0.05585  1.0000
  C   C1032     1.0  0.61462  0.05047  0.10739  1.0000
  H   H1235     1.0  0.43391  0.16244  0.21947  1.0000
  H   H1236     1.0  0.35266  0.11424  0.32311  1.0000
  C   C1033     1.0  0.43328  0.11206  0.07991  1.0000
  H   H1237     1.0  0.38290  0.19120  0.23490  1.0000
  H   H1238     1.0  0.56724  0.06404  0.09177  1.0000
  H   H1239     1.0  0.64381  0.16476  0.08637  1.0000
  H   H1240     1.0  0.63548  0.14163  0.03520  1.0000
  H   H1241     1.0  0.37446  0.12410  0.09115  1.0000
  C   C1034     1.0  0.42227  0.19927  0.19329  1.0000
  H   H1242     1.0  0.59831  0.20742  0.01815  1.0000
  H   H1243     1.0  0.55826  0.08068  0.12252  1.0000
  H   H1244     1.0  0.64265  0.06403  0.07649  1.0000
  H   H1245     1.0  0.43611  0.13785  0.10338  1.0000
  H   H1246     1.0  0.44304  0.10489  0.09188  1.0000
  C   C1035     1.0  0.44706  0.22072  0.15937  1.0000
  N   N71       1.0  0.41629  0.12854  0.08679  1.0000
  H   H1247     1.0  0.39255  0.16243  0.21464  1.0000
  C   C1036     1.0  0.40045  0.17329  0.20212  1.0000
  C   C1037     1.0  0.42889  0.23132  0.16948  1.0000
  H   H1248     1.0  0.40782  0.18811  0.47419  1.0000
  C   C1038     1.0  0.33153  0.16015  0.30192  1.0000
  H   H1249     1.0  0.34069  0.18856  0.12672  1.0000
  H   H1250     1.0  0.65214  0.05768  0.11226  1.0000
  H   H1251     1.0  0.33763  0.05916  0.24711  1.0000
  S   S275      1.0  0.32709  0.10791  0.25603  1.0000
  H   H1252     1.0  0.38888  0.99025  0.19341  1.0000
  C   C1039     1.0  0.32901  0.05018  0.24163  1.0000
  H   H1253     1.0  0.33075  0.17197  0.46832  1.0000
  H   H1254     1.0  0.32764  0.10590  0.15720  1.0000
  H   H1255     1.0  0.38451  0.22218  0.15559  1.0000
  C   C1040     1.0  0.32510  0.11780  0.35668  1.0000
  H   H1256     1.0  0.33457  0.18231  0.18311  1.0000
  H   H1257     1.0  0.49301  0.22513  0.07279  1.0000
  C   C1041     1.0  0.33345  0.18495  0.14317  1.0000
  H   H1258     1.0  0.32756  0.11766  0.31620  1.0000
  C   C1042     1.0  0.32834  0.10975  0.47430  1.0000
  H   H1259     1.0  0.51730  0.10598  0.59245  1.0000
  H   H1260     1.0  0.35921  0.20992  0.50561  1.0000
  C   C1043     1.0  0.64746  0.06789  0.66590  1.0000
  Fe  Fe143     1.0  0.43688  0.11677  0.64897  1.0000
  S   S276      1.0  0.44106  0.10427  0.61947  1.0000
  S   S277      1.0  0.45160  0.09703  0.67589  1.0000
  Fe  Fe144     1.0  0.41803  0.15975  0.62956  1.0000
  S   S278      1.0  0.42198  0.15085  0.59882  1.0000
  S   S279      1.0  0.40569  0.19314  0.63228  1.0000
  Fe  Fe145     1.0  0.40903  0.12244  0.61611  1.0000
  S   S280      1.0  0.38489  0.11938  0.59786  1.0000
  Fe  Fe146     1.0  0.45297  0.13361  0.60466  1.0000
  S   S281      1.0  0.48155  0.13449  0.58011  1.0000
  S   S282      1.0  0.40358  0.13247  0.64703  1.0000
  S   S283      1.0  0.45041  0.14502  0.63402  1.0000
  Fe  Fe147     1.0  0.55558  0.10714  0.77545  1.0000
  S   S284      1.0  0.53016  0.09402  0.76813  1.0000
  S   S285      1.0  0.55038  0.11809  0.80633  1.0000
  Fe  Fe148     1.0  0.58477  0.09696  0.73642  1.0000
  S   S286      1.0  0.56237  0.08256  0.72610  1.0000
  S   S287      1.0  0.61666  0.10170  0.71942  1.0000
  Fe  Fe149     1.0  0.53856  0.10951  0.73525  1.0000
  S   S288      1.0  0.51692  0.12844  0.71335  1.0000
  Fe  Fe150     1.0  0.55553  0.06801  0.75942  1.0000
  S   S289      1.0  0.54866  0.03560  0.76893  1.0000
  S   S290      1.0  0.56166  0.12522  0.74332  1.0000
  S   S291      1.0  0.58026  0.07979  0.76897  1.0000
  Fe  Fe151     1.0  0.62843  0.13499  0.91698  1.0000
  S   S292      1.0  0.63953  0.16213  0.92229  1.0000
  S   S293      1.0  0.62855  0.10754  0.94231  1.0000
  Fe  Fe152     1.0  0.61821  0.15532  0.87471  1.0000
  S   S294      1.0  0.62761  0.18494  0.87711  1.0000
  S   S295      1.0  0.61535  0.15100  0.84275  1.0000
  S   S296      1.0  0.60399  0.98252  0.67399  1.0000
  Fe  Fe153     1.0  0.61150  0.18058  0.91018  1.0000
  S   S297      1.0  0.64682  0.13517  0.88523  1.0000
  S   S298      1.0  0.59899  0.15300  0.90679  1.0000
  Fe  Fe154     1.0  0.55382  0.21020  0.56920  1.0000
  S   S299      1.0  0.57064  0.20335  0.59582  1.0000
  Fe  Fe155     1.0  0.64367  0.00693  0.60541  1.0000
  Fe  Fe156     1.0  0.59254  0.21306  0.53737  1.0000
  S   S300      1.0  0.61320  0.20557  0.56104  1.0000
  Fe  Fe157     1.0  0.59356  0.18179  0.57748  1.0000
  S   S301      1.0  0.60823  0.15241  0.59595  1.0000
  C   C1044     1.0  0.47244  0.19980  0.54164  1.0000
  H   H1261     1.0  0.38939  0.15656  0.56674  1.0000
  S   S302      1.0  0.57540  0.18666  0.55197  1.0000
  H   H1262     1.0  0.34465  0.16735  0.61314  1.0000
  H   H1263     1.0  0.39036  0.12534  0.55270  1.0000
  Fe  Fe158     1.0  0.61385  0.00511  0.64585  1.0000
  C   C1045     1.0  0.39072  0.16081  0.50830  1.0000
  H   H1264     1.0  0.62524  0.14177  0.55593  1.0000
  S   S303      1.0  0.60712  0.03935  0.64457  1.0000
  H   H1265     1.0  0.59371  0.03890  0.71047  1.0000
  N   N72       1.0  0.44368  0.22218  0.56261  1.0000
  H   H1266     1.0  0.41280  0.22155  0.49348  1.0000
  C   C1046     1.0  0.62861  0.21719  0.96454  1.0000
  Fe  Fe159     1.0  0.60630  0.04132  0.61124  1.0000
  C   C1047     1.0  0.65140  0.10256  0.95245  1.0000
  C   C1048     1.0  0.64760  0.09215  0.68777  1.0000
  H   H1267     1.0  0.47296  0.15331  0.52907  1.0000
  C   C1049     1.0  0.56571  0.98869  0.81364  1.0000
  H   H1268     1.0  0.64380  0.21136  0.90323  1.0000
  C   C1050     1.0  0.60046  0.12905  0.59609  1.0000
  C   C1051     1.0  0.60990  0.11088  0.60744  1.0000
  C   C1052     1.0  0.60454  0.09186  0.60759  1.0000
  C   C1053     1.0  0.41067  0.20680  0.50434  1.0000
  H   H1269     1.0  0.33108  0.13918  0.50433  1.0000
  C   C1054     1.0  0.58563  0.12811  0.58473  1.0000
  H   H1270     1.0  0.62170  0.11136  0.61592  1.0000
  C   C1055     1.0  0.33805  0.07642  0.60259  1.0000
  H   H1271     1.0  0.57842  0.14205  0.57575  1.0000
  C   C1056     1.0  0.62828  0.08841  0.69902  1.0000
  S   S304      1.0  0.58368  0.06670  0.59602  1.0000
  C   C1057     1.0  0.63854  0.13766  0.54363  1.0000
  C   C1058     1.0  0.58756  0.22831  0.95860  1.0000
  C   C1059     1.0  0.62815  0.06406  0.67725  1.0000
  C   C1060     1.0  0.61856  0.07435  0.69375  1.0000
  H   H1272     1.0  0.62681  0.16675  0.96887  1.0000
  H   H1273     1.0  0.34606  0.09887  0.49883  1.0000
  H   H1274     1.0  0.62077  0.05289  0.67368  1.0000
  H   H1275     1.0  0.60368  0.07144  0.70243  1.0000
  C   C1061     1.0  0.56897  0.12646  0.81645  1.0000
  C   C1062     1.0  0.56475  0.12875  0.83724  1.0000
  C   C1063     1.0  0.57888  0.13584  0.84573  1.0000
  C   C1064     1.0  0.59726  0.14106  0.83338  1.0000
  C   C1065     1.0  0.60150  0.13865  0.81261  1.0000
  C   C1066     1.0  0.58759  0.13117  0.80425  1.0000
  H   H1276     1.0  0.55034  0.12528  0.84680  1.0000
  H   H1277     1.0  0.57531  0.13771  0.86167  1.0000
  H   H1278     1.0  0.61543  0.14296  0.80276  1.0000
  H   H1279     1.0  0.59098  0.12965  0.78820  1.0000
  C   C1067     1.0  0.49245  0.15631  0.57899  1.0000
  C   C1068     1.0  0.51148  0.15888  0.56619  1.0000
  C   C1069     1.0  0.52000  0.17652  0.56520  1.0000
  C   C1070     1.0  0.50960  0.19140  0.57726  1.0000
  C   C1071     1.0  0.49078  0.18867  0.59012  1.0000
  C   C1072     1.0  0.48206  0.17138  0.59073  1.0000
  H   H1280     1.0  0.51950  0.14736  0.55690  1.0000
  H   H1281     1.0  0.53436  0.17873  0.55490  1.0000
  H   H1282     1.0  0.48293  0.19998  0.59965  1.0000
  H   H1283     1.0  0.46709  0.16994  0.60001  1.0000
  C   C1073     1.0  0.46919  0.10597  0.68694  1.0000
  C   C1074     1.0  0.46963  0.12706  0.68475  1.0000
  C   C1075     1.0  0.48397  0.13362  0.69338  1.0000
  C   C1076     1.0  0.49823  0.11924  0.70413  1.0000
  C   C1077     1.0  0.49776  0.09813  0.70643  1.0000
  C   C1078     1.0  0.48326  0.09157  0.69796  1.0000
  H   H1284     1.0  0.45871  0.13837  0.67668  1.0000
  H   H1285     1.0  0.48399  0.14998  0.69169  1.0000
  H   H1286     1.0  0.50856  0.08686  0.71473  1.0000
  H   H1287     1.0  0.48299  0.07523  0.69988  1.0000
  H   H1288     1.0  0.33411  0.14649  0.53412  1.0000
  H   H1289     1.0  0.63953  0.08612  0.54932  1.0000
  C   C1079     1.0  0.35444  0.10604  0.58524  1.0000
  C   C1080     1.0  0.36724  0.10229  0.60014  1.0000
  C   C1081     1.0  0.36533  0.08554  0.61633  1.0000
  C   C1082     1.0  0.35080  0.07270  0.61752  1.0000
  C   C1083     1.0  0.33278  0.15793  0.61552  1.0000
  H   H1290     1.0  0.35570  0.11897  0.57270  1.0000
  H   H1291     1.0  0.37504  0.08244  0.62791  1.0000
  H   H1292     1.0  0.34947  0.05977  0.63011  1.0000
  C   C1084     1.0  0.60157  0.21500  0.94650  1.0000
  H   H1293     1.0  0.61909  0.01159  0.83866  1.0000
  H   H1294     1.0  0.65165  0.01628  0.67397  1.0000
  H   H1295     1.0  0.64631  0.12338  0.81771  1.0000
  C   C1085     1.0  0.55443  0.00258  0.79968  1.0000
  C   C1086     1.0  0.56337  0.01841  0.78603  1.0000
  C   C1087     1.0  0.58369  0.02024  0.78627  1.0000
  C   C1088     1.0  0.59534  0.00571  0.79961  1.0000
  H   H1296     1.0  0.53861  0.00128  0.79970  1.0000
  H   H1297     1.0  0.59057  0.03256  0.77588  1.0000
  H   H1298     1.0  0.61118  0.00694  0.79955  1.0000
  H   H1299     1.0  0.65117  0.14156  0.57528  1.0000
  C   C1089     1.0  0.46689  0.16760  0.53495  1.0000
  Fe  Fe160     1.0  0.65483  0.16443  0.88935  1.0000
  S   S305      1.0  0.59297  0.20641  0.92714  1.0000
  H   H1300     1.0  0.43683  0.15961  0.54751  1.0000
  H   H1301     1.0  0.41245  0.22617  0.55667  1.0000
  C   C1090     1.0  0.37044  0.20173  0.58867  1.0000
  C   C1091     1.0  0.38111  0.19261  0.60495  1.0000
  C   C1092     1.0  0.38942  0.20482  0.61429  1.0000
  H   H1302     1.0  0.63317  0.19928  0.94050  1.0000
  C   C1093     1.0  0.58037  0.10894  0.58474  1.0000
  H   H1303     1.0  0.36432  0.19209  0.58142  1.0000
  H   H1304     1.0  0.38290  0.17609  0.61032  1.0000
  C   C1094     1.0  0.36820  0.22309  0.58153  1.0000
  H   H1305     1.0  0.37977  0.19440  0.47686  1.0000
  N   N73       1.0  0.64847  0.11560  0.54846  1.0000
  H   H1306     1.0  0.57824  0.98575  0.64378  1.0000
  C   C1095     1.0  0.62214  0.20937  0.94968  1.0000
  H   H1307     1.0  0.37093  0.21616  0.52445  1.0000
  C   C1096     1.0  0.47970  0.18199  0.53286  1.0000
  C   C1097     1.0  0.32480  0.20483  0.53663  1.0000
  H   H1308     1.0  0.42322  0.19090  0.56226  1.0000
  H   H1309     1.0  0.34207  0.15756  0.56302  1.0000
  C   C1098     1.0  0.38974  0.15785  0.55037  1.0000
  S   S306      1.0  0.51910  0.21406  0.57602  1.0000
  C   C1099     1.0  0.61368  0.02648  0.73288  1.0000
  H   H1310     1.0  0.40959  0.21001  0.52001  1.0000
  H   H1311     1.0  0.39116  0.16079  0.49224  1.0000
  H   H1312     1.0  0.65551  0.21372  0.87649  1.0000
  C   C1100     1.0  0.58976  0.09078  0.59628  1.0000
  H   H1313     1.0  0.52866  0.06385  0.81877  1.0000
  H   H1314     1.0  0.62065  0.04021  0.73006  1.0000
  H   H1315     1.0  0.56938  0.10814  0.57546  1.0000
  H   H1316     1.0  0.34929  0.16639  0.48514  1.0000
  H   H1317     1.0  0.62525  0.10772  0.53500  1.0000
  H   H1318     1.0  0.42501  0.19522  0.50117  1.0000
  Fe  Fe161     1.0  0.64131  0.03747  0.63390  1.0000
  S   S307      1.0  0.60941  0.00689  0.61348  1.0000
  S   S308      1.0  0.64826  0.00297  0.63790  1.0000
  H   H1319     1.0  0.57741  0.00868  0.71701  1.0000
  H   H1320     1.0  0.62044  0.10390  0.56254  1.0000
  C   C1101     1.0  0.33570  0.16906  0.55098  1.0000
  H   H1321     1.0  0.38949  0.19021  0.54421  1.0000
  C   C1102     1.0  0.39079  0.17902  0.51578  1.0000
  H   H1322     1.0  0.65521  0.10300  0.69182  1.0000
  H   H1323     1.0  0.61724  0.07549  0.81077  1.0000
  C   C1103     1.0  0.33586  0.13781  0.62645  1.0000
  N   N74       1.0  0.55357  0.05369  0.83641  1.0000
  C   C1104     1.0  0.54587  0.06157  0.81669  1.0000
  C   C1105     1.0  0.54444  0.03497  0.84650  1.0000
  C   C1106     1.0  0.54571  0.06950  0.84983  1.0000
  C   C1107     1.0  0.57656  0.04976  0.83251  1.0000
  C   C1108     1.0  0.58762  0.06603  0.82257  1.0000
  C   C1109     1.0  0.58861  0.03005  0.83849  1.0000
  C   C1110     1.0  0.60928  0.06277  0.81860  1.0000
  C   C1111     1.0  0.61030  0.02693  0.83443  1.0000
  C   C1112     1.0  0.39372  0.19884  0.47997  1.0000
  H   H1324     1.0  0.53227  0.17506  0.63011  1.0000
  H   H1325     1.0  0.63204  0.00973  0.75562  1.0000
  H   H1326     1.0  0.55238  0.05080  0.80567  1.0000
  H   H1327     1.0  0.54939  0.02271  0.83680  1.0000
  H   H1328     1.0  0.52718  0.03838  0.84899  1.0000
  H   H1329     1.0  0.54889  0.02857  0.86186  1.0000
  H   H1330     1.0  0.55035  0.08468  0.84242  1.0000
  H   H1331     1.0  0.52845  0.07259  0.85346  1.0000
  H   H1332     1.0  0.55174  0.06456  0.86456  1.0000
  H   H1333     1.0  0.57955  0.08144  0.81762  1.0000
  H   H1334     1.0  0.58177  0.01656  0.84587  1.0000
  H   H1335     1.0  0.64455  0.21290  0.96677  1.0000
  H   H1336     1.0  0.65114  0.10733  0.85020  1.0000
  H   H1337     1.0  0.61211  0.07801  0.61633  1.0000
  N   N75       1.0  0.58203  0.13378  0.66499  1.0000
  C   C1113     1.0  0.57892  0.12451  0.68718  1.0000
  C   C1114     1.0  0.57121  0.12348  0.65420  1.0000
  C   C1115     1.0  0.60463  0.12915  0.65688  1.0000
  C   C1116     1.0  0.57337  0.15619  0.66220  1.0000
  C   C1117     1.0  0.55276  0.16333  0.67164  1.0000
  C   C1118     1.0  0.58470  0.17145  0.64978  1.0000
  C   C1119     1.0  0.54436  0.18441  0.66954  1.0000
  C   C1120     1.0  0.57616  0.19251  0.64783  1.0000
  C   C1121     1.0  0.55608  0.19899  0.65775  1.0000
  H   H1338     1.0  0.58632  0.10798  0.68981  1.0000
  H   H1339     1.0  0.58575  0.13269  0.69610  1.0000
  H   H1340     1.0  0.56233  0.12477  0.69425  1.0000
  H   H1341     1.0  0.57801  0.10676  0.65491  1.0000
  H   H1342     1.0  0.57226  0.13077  0.63764  1.0000
  H   H1343     1.0  0.55451  0.12438  0.66114  1.0000
  H   H1344     1.0  0.61359  0.13663  0.66438  1.0000
  H   H1345     1.0  0.61085  0.11223  0.65974  1.0000
  H   H1346     1.0  0.60814  0.13425  0.63994  1.0000
  H   H1347     1.0  0.54293  0.15266  0.68079  1.0000
  H   H1348     1.0  0.60017  0.16757  0.64132  1.0000
  H   H1349     1.0  0.52871  0.18941  0.67726  1.0000
  H   H1350     1.0  0.44974  0.20696  0.59269  1.0000
  S   S309      1.0  0.64028  0.04156  0.60030  1.0000
  H   H1351     1.0  0.32451  0.10983  0.63783  1.0000
  H   H1352     1.0  0.37416  0.23012  0.49891  1.0000
  C   C1122     1.0  0.37332  0.21443  0.50812  1.0000
  H   H1353     1.0  0.58521  0.20385  0.63844  1.0000
  C   C1123     1.0  0.34001  0.09316  0.58637  1.0000
  C   C1124     1.0  0.39016  0.14023  0.54250  1.0000
  C   C1125     1.0  0.43673  0.21565  0.58495  1.0000
  S   S310      1.0  0.60669  0.22072  0.50386  1.0000
  H   H1354     1.0  0.63742  0.04065  0.82118  1.0000
  H   H1355     1.0  0.33053  0.09609  0.57463  1.0000
  H   H1356     1.0  0.51369  0.15391  0.66033  1.0000
  C   C1126     1.0  0.58891  0.00850  0.72609  1.0000
  C   C1127     1.0  0.38992  0.17699  0.53730  1.0000
  H   H1357     1.0  0.63740  0.98575  0.71345  1.0000
  C   C1128     1.0  0.62062  0.04323  0.82447  1.0000
  H   H1358     1.0  0.55011  0.07675  0.80906  1.0000
  H   H1359     1.0  0.33627  0.19477  0.56505  1.0000
  C   C1129     1.0  0.33403  0.17583  0.48240  1.0000
  C   C1130     1.0  0.44654  0.17117  0.54539  1.0000
  C   C1131     1.0  0.62001  0.00938  0.74731  1.0000
  H   H1360     1.0  0.42943  0.22907  0.59268  1.0000
  C   C1132     1.0  0.59389  0.99145  0.74175  1.0000
  C   C1133     1.0  0.59846  0.02584  0.72199  1.0000
  C   C1134     1.0  0.59214  0.15417  0.96840  1.0000
  H   H1361     1.0  0.48348  0.20986  0.54006  1.0000
  H   H1362     1.0  0.46032  0.20879  0.63933  1.0000
  H   H1363     1.0  0.35029  0.13160  0.63220  1.0000
  C   C1135     1.0  0.39041  0.14173  0.52158  1.0000
  C   C1136     1.0  0.43902  0.18904  0.55399  1.0000
  H   H1364     1.0  0.59998  0.14344  0.95748  1.0000
  H   H1365     1.0  0.54959  0.21534  0.65625  1.0000
  C   C1137     1.0  0.61035  0.99205  0.75172  1.0000
  C   C1138     1.0  0.33213  0.09831  0.49346  1.0000
  H   H1366     1.0  0.39067  0.12792  0.51559  1.0000
  N   N76       1.0  0.39210  0.19930  0.50216  1.0000
  C   C1139     1.0  0.45185  0.20375  0.55272  1.0000
  H   H1367     1.0  0.42519  0.20528  0.58827  1.0000
  H   H1368     1.0  0.64403  0.02270  0.69891  1.0000
  H   H1369     1.0  0.49570  0.17888  0.52518  1.0000
  N   N77       1.0  0.51822  0.10022  0.62493  1.0000
  C   C1140     1.0  0.52919  0.08405  0.63949  1.0000
  C   C1141     1.0  0.49564  0.09997  0.63073  1.0000
  C   C1142     1.0  0.52511  0.09451  0.60418  1.0000
  C   C1143     1.0  0.52231  0.12076  0.62596  1.0000
  C   C1144     1.0  0.53280  0.13332  0.60896  1.0000
  C   C1145     1.0  0.51585  0.12868  0.64458  1.0000
  C   C1146     1.0  0.53656  0.15253  0.61066  1.0000
  C   C1147     1.0  0.51918  0.14813  0.64597  1.0000
  C   C1148     1.0  0.52960  0.16001  0.62905  1.0000
  H   H1370     1.0  0.52357  0.08620  0.65574  1.0000
  H   H1371     1.0  0.52687  0.06831  0.63879  1.0000
  H   H1372     1.0  0.54621  0.08404  0.63581  1.0000
  H   H1373     1.0  0.48940  0.10203  0.64686  1.0000
  H   H1374     1.0  0.49173  0.08509  0.62937  1.0000
  H   H1375     1.0  0.48683  0.11257  0.62072  1.0000
  H   H1376     1.0  0.52138  0.07924  0.60383  1.0000
  H   H1377     1.0  0.59221  0.17027  0.95978  1.0000
  H   H1378     1.0  0.54217  0.09308  0.59930  1.0000
  H   H1379     1.0  0.53801  0.12882  0.59407  1.0000
  H   H1380     1.0  0.50805  0.11986  0.65819  1.0000
  H   H1381     1.0  0.54460  0.16187  0.59749  1.0000
  C   C1149     1.0  0.33253  0.18996  0.55218  1.0000
  H   H1382     1.0  0.57570  0.15201  0.97277  1.0000
  H   H1383     1.0  0.55431  0.99018  0.73574  1.0000
  Fe  Fe162     1.0  0.58891  0.22749  0.57757  1.0000
  C   C1150     1.0  0.63284  0.10279  0.54881  1.0000
  H   H1384     1.0  0.64968  0.14836  0.54162  1.0000
  C   C1151     1.0  0.58624  0.99009  0.81349  1.0000
  C   C1152     1.0  0.33095  0.16290  0.53426  1.0000
  H   H1385     1.0  0.64327  0.98339  0.68682  1.0000
  H   H1386     1.0  0.33571  0.19238  0.47868  1.0000
  H   H1387     1.0  0.55523  0.99162  0.76160  1.0000
  H   H1388     1.0  0.63238  0.13967  0.96900  1.0000
  H   H1389     1.0  0.63225  0.14116  0.52905  1.0000
  H   H1390     1.0  0.47284  0.22773  0.56705  1.0000
  C   C1153     1.0  0.45698  0.22468  0.63145  1.0000
  C   C1154     1.0  0.38652  0.22630  0.60766  1.0000
  H   H1391     1.0  0.42397  0.22593  0.63905  1.0000
  H   H1392     1.0  0.48873  0.22693  0.62222  1.0000
  H   H1393     1.0  0.61171  0.23207  0.89185  1.0000
  C   C1155     1.0  0.65259  0.22114  0.89032  1.0000
  H   H1394     1.0  0.65554  0.07341  0.87225  1.0000
  H   H1395     1.0  0.32282  0.22111  0.53749  1.0000
  C   C1156     1.0  0.65135  0.09196  0.97260  1.0000
  H   H1396     1.0  0.53485  0.35887  0.41618  1.0000
  H   H1397     1.0  0.34905  0.38377  0.10807  1.0000
  Fe  Fe163     1.0  0.60405  0.30381  0.03131  1.0000
  S   S311      1.0  0.59231  0.29698  0.00493  1.0000
  S   S312      1.0  0.61791  0.33326  0.02606  1.0000
  Fe  Fe164     1.0  0.58923  0.26625  0.06025  1.0000
  S   S313      1.0  0.57595  0.25655  0.03679  1.0000
  H   H1398     1.0  0.42892  0.23977  0.05942  1.0000
  Fe  Fe165     1.0  0.60509  0.26338  0.01506  1.0000
  Fe  Fe166     1.0  0.56423  0.29056  0.02845  1.0000
  S   S314      1.0  0.53238  0.30333  0.02114  1.0000
  S   S315      1.0  0.61955  0.27065  0.03943  1.0000
  S   S316      1.0  0.57478  0.29976  0.05390  1.0000
  Fe  Fe167     1.0  0.62233  0.45735  0.09632  1.0000
  H   H1399     1.0  0.63138  0.46269  0.35856  1.0000
  H   H1400     1.0  0.46053  0.27813  0.07427  1.0000
  S   S317      1.0  0.62207  0.42723  0.11823  1.0000
  Fe  Fe168     1.0  0.60230  0.36087  0.40465  1.0000
  S   S318      1.0  0.60747  0.32637  0.40941  1.0000
  S   S319      1.0  0.59237  0.38154  0.37591  1.0000
  Fe  Fe169     1.0  0.61436  0.36107  0.44618  1.0000
  S   S320      1.0  0.62107  0.32640  0.45364  1.0000
  H   H1401     1.0  0.55293  0.47782  0.15786  1.0000
  Fe  Fe170     1.0  0.59198  0.32776  0.44201  1.0000
  N   N78       1.0  0.39688  0.26680  0.00150  1.0000
  S   S321      1.0  0.63220  0.36296  0.41372  1.0000
  S   S322      1.0  0.58404  0.36234  0.43645  1.0000
  Fe  Fe171     1.0  0.55480  0.41717  0.25268  1.0000
  S   S323      1.0  0.57874  0.39295  0.26667  1.0000
  S   S324      1.0  0.55460  0.45110  0.25193  1.0000
  Fe  Fe172     1.0  0.53765  0.38578  0.23590  1.0000
  S   S325      1.0  0.56015  0.35909  0.24960  1.0000
  S   S326      1.0  0.51989  0.38660  0.20989  1.0000
  Fe  Fe173     1.0  0.55328  0.37436  0.27764  1.0000
  S   S327      1.0  0.55306  0.35499  0.30974  1.0000
  Fe  Fe174     1.0  0.58375  0.37978  0.23798  1.0000
  S   S328      1.0  0.61604  0.36725  0.22369  1.0000
  S   S329      1.0  0.52839  0.39960  0.26518  1.0000
  S   S330      1.0  0.56225  0.40562  0.22273  1.0000
  Fe  Fe175     1.0  0.45918  0.34377  0.11179  1.0000
  S   S331      1.0  0.47109  0.31611  0.13368  1.0000
  S   S332      1.0  0.48083  0.35855  0.08530  1.0000
  Fe  Fe176     1.0  0.41437  0.34499  0.13364  1.0000
  S   S333      1.0  0.42305  0.31752  0.15795  1.0000
  S   S334      1.0  0.38282  0.36419  0.12889  1.0000
  Fe  Fe177     1.0  0.45039  0.33247  0.15840  1.0000
  S   S335      1.0  0.46297  0.33126  0.18792  1.0000
  Fe  Fe178     1.0  0.44314  0.30389  0.13117  1.0000
  S   S336      1.0  0.44682  0.27150  0.12438  1.0000
  S   S337      1.0  0.43991  0.36101  0.13630  1.0000
  S   S338      1.0  0.43309  0.33039  0.10706  1.0000
  H   H1402     1.0  0.44107  0.23741  0.10788  1.0000
  H   H1403     1.0  0.38306  0.35576  0.07929  1.0000
  H   H1404     1.0  0.58997  0.47209  0.22916  1.0000
  C   C1157     1.0  0.36039  0.35522  0.12701  1.0000
  C   C1158     1.0  0.35611  0.33570  0.13706  1.0000
  H   H1405     1.0  0.33659  0.34222  0.05248  1.0000
  H   H1406     1.0  0.51987  0.24382  0.05287  1.0000
  C   C1159     1.0  0.34585  0.36868  0.11595  1.0000
  H   H1407     1.0  0.36709  0.32525  0.14576  1.0000
  C   C1160     1.0  0.47205  0.26304  0.00332  1.0000
  C   C1161     1.0  0.42426  0.26407  0.12084  1.0000
  C   C1162     1.0  0.40458  0.27498  0.12738  1.0000
  C   C1163     1.0  0.38679  0.26811  0.12554  1.0000
  C   C1164     1.0  0.40892  0.27765  0.98285  1.0000
  S   S339      1.0  0.63096  0.38180  0.09273  1.0000
  H   H1408     1.0  0.40301  0.28841  0.13438  1.0000
  H   H1409     1.0  0.37160  0.27625  0.13132  1.0000
  C   C1165     1.0  0.50420  0.37078  0.20419  1.0000
  C   C1166     1.0  0.49655  0.37658  0.18551  1.0000
  C   C1167     1.0  0.48416  0.36465  0.18016  1.0000
  C   C1168     1.0  0.47906  0.34672  0.19352  1.0000
  C   C1169     1.0  0.48681  0.34085  0.21214  1.0000
  C   C1170     1.0  0.49935  0.35270  0.21741  1.0000
  H   H1410     1.0  0.50009  0.39054  0.17514  1.0000
  H   H1411     1.0  0.47827  0.36951  0.16586  1.0000
  H   H1412     1.0  0.48294  0.32711  0.22268  1.0000
  H   H1413     1.0  0.50503  0.34795  0.23183  1.0000
  C   C1171     1.0  0.63711  0.43471  0.40228  1.0000
  H   H1414     1.0  0.58312  0.24648  0.98258  1.0000
  C   C1172     1.0  0.64951  0.40971  0.37947  1.0000
  C   C1173     1.0  0.58259  0.37337  0.35717  1.0000
  C   C1174     1.0  0.58136  0.35267  0.35815  1.0000
  C   C1175     1.0  0.57270  0.34707  0.34330  1.0000
  C   C1176     1.0  0.56569  0.36203  0.32708  1.0000
  C   C1177     1.0  0.56775  0.38257  0.32571  1.0000
  C   C1178     1.0  0.57607  0.38819  0.34072  1.0000
  H   H1415     1.0  0.58690  0.34104  0.37038  1.0000
  H   H1416     1.0  0.57116  0.33114  0.34448  1.0000
  H   H1417     1.0  0.56225  0.39424  0.31345  1.0000
  H   H1418     1.0  0.57715  0.40420  0.33972  1.0000
  H   H1419     1.0  0.60471  0.43630  0.34721  1.0000
  H   H1420     1.0  0.61310  0.46734  0.38137  1.0000
  H   H1421     1.0  0.49032  0.29048  0.02975  1.0000
  S   S340      1.0  0.37824  0.26279  0.46630  1.0000
  H   H1422     1.0  0.42427  0.24778  0.16420  1.0000
  H   H1423     1.0  0.62326  0.24912  0.46908  1.0000
  C   C1179     1.0  0.62820  0.38474  0.20427  1.0000
  C   C1180     1.0  0.61676  0.40030  0.19170  1.0000
  C   C1181     1.0  0.62695  0.41372  0.17578  1.0000
  H   H1424     1.0  0.42573  0.27088  0.98130  1.0000
  H   H1425     1.0  0.64675  0.39649  0.31930  1.0000
  H   H1426     1.0  0.60014  0.40188  0.19413  1.0000
  H   H1427     1.0  0.61814  0.42573  0.16602  1.0000
  C   C1182     1.0  0.62125  0.34662  0.04485  1.0000
  C   C1183     1.0  0.61754  0.33857  0.06590  1.0000
  H   H1428     1.0  0.60836  0.28401  0.45205  1.0000
  C   C1184     1.0  0.48230  0.25989  0.04267  1.0000
  C   C1185     1.0  0.62751  0.36604  0.03841  1.0000
  H   H1429     1.0  0.52058  0.37618  0.35006  1.0000
  C   C1186     1.0  0.63031  0.46810  0.23269  1.0000
  C   C1187     1.0  0.51684  0.31755  0.03946  1.0000
  C   C1188     1.0  0.51734  0.31079  0.06047  1.0000
  C   C1189     1.0  0.50503  0.32267  0.07488  1.0000
  C   C1190     1.0  0.49299  0.34168  0.06813  1.0000
  C   C1191     1.0  0.49240  0.34826  0.04716  1.0000
  C   C1192     1.0  0.50396  0.33600  0.03290  1.0000
  H   H1430     1.0  0.52741  0.29660  0.06552  1.0000
  H   H1431     1.0  0.50567  0.31776  0.09108  1.0000
  H   H1432     1.0  0.48312  0.36298  0.04193  1.0000
  H   H1433     1.0  0.50350  0.34121  0.01667  1.0000
  C   C1193     1.0  0.47520  0.24358  0.03739  1.0000
  C   C1194     1.0  0.56434  0.44930  0.30963  1.0000
  C   C1195     1.0  0.55990  0.44373  0.29236  1.0000
  C   C1196     1.0  0.55950  0.45796  0.27401  1.0000
  C   C1197     1.0  0.63365  0.43843  0.21505  1.0000
  H   H1434     1.0  0.64865  0.40242  0.36705  1.0000
  H   H1435     1.0  0.56416  0.43836  0.32391  1.0000
  H   H1436     1.0  0.55648  0.42851  0.29334  1.0000
  C   C1198     1.0  0.36523  0.23869  0.44490  1.0000
  C   C1199     1.0  0.63023  0.37723  0.05280  1.0000
  C   C1200     1.0  0.35966  0.24998  0.46114  1.0000
  C   C1201     1.0  0.42599  0.24646  0.11214  1.0000
  Fe  Fe179     1.0  0.65220  0.43222  0.12374  1.0000
  C   C1202     1.0  0.41735  0.27245  0.05621  1.0000
  H   H1437     1.0  0.53475  0.36759  0.38145  1.0000
  C   C1203     1.0  0.62703  0.36893  0.07382  1.0000
  C   C1204     1.0  0.37718  0.32461  0.08861  1.0000
  H   H1438     1.0  0.46703  0.23865  0.08012  1.0000
  C   C1205     1.0  0.40772  0.28982  0.04416  1.0000
  C   C1206     1.0  0.47767  0.27662  0.07230  1.0000
  C   C1207     1.0  0.40163  0.28800  0.02617  1.0000
  H   H1439     1.0  0.36810  0.27450  0.98969  1.0000
  C   C1208     1.0  0.56368  0.47780  0.27301  1.0000
  H   H1440     1.0  0.61115  0.46334  0.13402  1.0000
  H   H1441     1.0  0.63578  0.36203  0.36889  1.0000
  S   S341      1.0  0.32419  0.25583  0.03738  1.0000
  H   H1442     1.0  0.48203  0.29137  0.06316  1.0000
  N   N79       1.0  0.48850  0.25834  0.06278  1.0000
  H   H1443     1.0  0.33361  0.31526  0.14497  1.0000
  C   C1209     1.0  0.33962  0.25077  0.47275  1.0000
  H   H1444     1.0  0.38805  0.32032  0.09925  1.0000
  H   H1445     1.0  0.46484  0.25393  0.18152  1.0000
  H   H1446     1.0  0.50799  0.35010  0.33763  1.0000
  C   C1210     1.0  0.61306  0.43878  0.24858  1.0000
  H   H1447     1.0  0.61276  0.32365  0.07110  1.0000
  H   H1448     1.0  0.51821  0.30786  0.42376  1.0000
  H   H1449     1.0  0.54230  0.36394  0.17426  1.0000
  H   H1450     1.0  0.48112  0.29296  0.99633  1.0000
  C   C1211     1.0  0.51117  0.25766  0.05950  1.0000
  N   N80       1.0  0.58117  0.37413  0.16172  1.0000
  C   C1212     1.0  0.58254  0.36180  0.18261  1.0000
  C   C1213     1.0  0.60263  0.37628  0.15102  1.0000
  C   C1214     1.0  0.56937  0.39512  0.16384  1.0000
  C   C1215     1.0  0.57025  0.36416  0.15071  1.0000
  C   C1216     1.0  0.57893  0.35875  0.13103  1.0000
  H   H1451     1.0  0.56711  0.36176  0.19279  1.0000
  H   H1452     1.0  0.59348  0.45098  0.21608  1.0000
  H   H1453     1.0  0.59193  0.36802  0.19082  1.0000
  H   H1454     1.0  0.61240  0.36099  0.14898  1.0000
  H   H1455     1.0  0.61068  0.38334  0.15982  1.0000
  H   H1456     1.0  0.60283  0.38647  0.13565  1.0000
  H   H1457     1.0  0.57738  0.40345  0.17145  1.0000
  C   C1217     1.0  0.57835  0.28437  0.47159  1.0000
  H   H1458     1.0  0.56736  0.40466  0.14855  1.0000
  H   H1459     1.0  0.59405  0.36165  0.12289  1.0000
  H   H1460     1.0  0.60594  0.47257  0.16816  1.0000
  C   C1218     1.0  0.48425  0.27774  0.02723  1.0000
  S   S342      1.0  0.62408  0.24072  0.99428  1.0000
  H   H1461     1.0  0.41855  0.38012  0.47043  1.0000
  H   H1462     1.0  0.57503  0.34555  0.10606  1.0000
  H   H1463     1.0  0.36129  0.27373  0.07883  1.0000
  C   C1219     1.0  0.65088  0.47068  0.22302  1.0000
  N   N81       1.0  0.33763  0.30069  0.07296  1.0000
  H   H1464     1.0  0.57362  0.23716  0.13572  1.0000
  C   C1220     1.0  0.52125  0.46134  0.21197  1.0000
  H   H1465     1.0  0.38064  0.23801  0.43575  1.0000
  H   H1466     1.0  0.37193  0.29351  0.00220  1.0000
  H   H1467     1.0  0.61823  0.34291  0.09643  1.0000
  N   N82       1.0  0.62004  0.45219  0.22887  1.0000
  H   H1468     1.0  0.41882  0.23592  0.02836  1.0000
  C   C1221     1.0  0.37436  0.34462  0.07737  1.0000
  C   C1222     1.0  0.34207  0.24323  0.00032  1.0000
  H   H1469     1.0  0.59747  0.41591  0.39351  1.0000
  H   H1470     1.0  0.56865  0.31543  0.39130  1.0000
  C   C1223     1.0  0.34789  0.33644  0.06253  1.0000
  N   N83       1.0  0.54799  0.36962  0.05594  1.0000
  C   C1224     1.0  0.52901  0.38011  0.04741  1.0000
  C   C1225     1.0  0.56527  0.36724  0.03824  1.0000
  C   C1226     1.0  0.54504  0.34863  0.06695  1.0000
  C   C1227     1.0  0.55177  0.38134  0.07058  1.0000
  C   C1228     1.0  0.57113  0.38751  0.06912  1.0000
  C   C1229     1.0  0.53601  0.38628  0.08740  1.0000
  C   C1230     1.0  0.57419  0.39844  0.08333  1.0000
  C   C1231     1.0  0.53922  0.39725  0.10150  1.0000
  C   C1232     1.0  0.55824  0.40343  0.09938  1.0000
  H   H1471     1.0  0.52644  0.37225  0.03547  1.0000
  H   H1472     1.0  0.51466  0.38009  0.05926  1.0000
  H   H1473     1.0  0.53000  0.39648  0.04027  1.0000
  H   H1474     1.0  0.56864  0.38249  0.02937  1.0000
  H   H1475     1.0  0.56177  0.35879  0.02725  1.0000
  H   H1476     1.0  0.57967  0.35794  0.04333  1.0000
  H   H1477     1.0  0.53125  0.34901  0.07948  1.0000
  H   H1478     1.0  0.54265  0.33916  0.05631  1.0000
  H   H1479     1.0  0.55885  0.34033  0.07386  1.0000
  H   H1480     1.0  0.58422  0.38407  0.05718  1.0000
  H   H1481     1.0  0.52105  0.38159  0.08986  1.0000
  H   H1482     1.0  0.58909  0.40303  0.08189  1.0000
  H   H1483     1.0  0.52689  0.40091  0.11416  1.0000
  H   H1484     1.0  0.56069  0.41203  0.11023  1.0000
  C   C1233     1.0  0.33711  0.33008  0.13658  1.0000
  H   H1485     1.0  0.33217  0.31258  0.04184  1.0000
  H   H1486     1.0  0.55494  0.23976  0.07819  1.0000
  H   H1487     1.0  0.51648  0.25727  0.07406  1.0000
  H   H1488     1.0  0.39811  0.36532  0.47446  1.0000
  C   C1234     1.0  0.64465  0.34847  0.36197  1.0000
  H   H1489     1.0  0.64784  0.43010  0.22128  1.0000
  C   C1235     1.0  0.63421  0.36199  0.32923  1.0000
  C   C1236     1.0  0.35117  0.28150  0.06740  1.0000
  H   H1490     1.0  0.63035  0.37245  0.02216  1.0000
  H   H1491     1.0  0.60136  0.44747  0.25936  1.0000
  H   H1492     1.0  0.63244  0.43093  0.34404  1.0000
  H   H1493     1.0  0.46682  0.27241  0.15820  1.0000
  H   H1494     1.0  0.59473  0.43994  0.40211  1.0000
  C   C1237     1.0  0.60174  0.47791  0.13672  1.0000
  S   S343      1.0  0.57451  0.47515  0.33067  1.0000
  H   H1495     1.0  0.52380  0.34779  0.15647  1.0000
  C   C1238     1.0  0.35976  0.35051  0.06436  1.0000
  H   H1496     1.0  0.65072  0.38944  0.44973  1.0000
  H   H1497     1.0  0.62631  0.43105  0.25655  1.0000
  H   H1498     1.0  0.48138  0.27553  0.08783  1.0000
  H   H1499     1.0  0.49448  0.23990  0.19840  1.0000
  C   C1239     1.0  0.53927  0.35076  0.14938  1.0000
  S   S344      1.0  0.56766  0.30936  0.46016  1.0000
  H   H1500     1.0  0.40481  0.30479  0.04888  1.0000
  N   N84       1.0  0.61702  0.43659  0.37422  1.0000
  C   C1240     1.0  0.61636  0.45923  0.36805  1.0000
  C   C1241     1.0  0.61800  0.42844  0.35519  1.0000
  C   C1242     1.0  0.59739  0.43279  0.38818  1.0000
  H   H1501     1.0  0.60542  0.42652  0.24615  1.0000
  C   C1243     1.0  0.32931  0.25876  0.01036  1.0000
  S   S345      1.0  0.65077  0.46350  0.10426  1.0000
  C   C1244     1.0  0.62058  0.34960  0.08025  1.0000
  C   C1245     1.0  0.40820  0.24021  0.10929  1.0000
  C   C1246     1.0  0.56806  0.34946  0.12107  1.0000
  Fe  Fe180     1.0  0.63608  0.32828  0.42055  1.0000
  C   C1247     1.0  0.40462  0.26853  0.01993  1.0000
  S   S346      1.0  0.61132  0.37783  0.47262  1.0000
  H   H1502     1.0  0.39167  0.24424  0.98542  1.0000
  H   H1503     1.0  0.54563  0.44211  0.16869  1.0000
  H   H1504     1.0  0.61702  0.41174  0.35861  1.0000
  C   C1248     1.0  0.39851  0.24507  0.99883  1.0000
  H   H1505     1.0  0.58371  0.43923  0.38039  1.0000
  H   H1506     1.0  0.63516  0.39208  0.04758  1.0000
  H   H1507     1.0  0.55366  0.39467  0.17339  1.0000
  H   H1508     1.0  0.62621  0.44752  0.40780  1.0000
  H   H1509     1.0  0.53981  0.33842  0.12242  1.0000
  C   C1249     1.0  0.47912  0.27926  0.00791  1.0000
  C   C1250     1.0  0.52852  0.44723  0.19844  1.0000
  N   N85       1.0  0.49459  0.26393  0.17152  1.0000
  C   C1251     1.0  0.50497  0.24522  0.18396  1.0000
  C   C1252     1.0  0.48774  0.28061  0.18398  1.0000
  C   C1253     1.0  0.47565  0.25881  0.16717  1.0000
  C   C1254     1.0  0.50926  0.27074  0.15273  1.0000
  C   C1255     1.0  0.50606  0.27099  0.13254  1.0000
  C   C1256     1.0  0.52747  0.27746  0.15433  1.0000
  C   C1257     1.0  0.52012  0.27779  0.11520  1.0000
  C   C1258     1.0  0.54146  0.28417  0.13685  1.0000
  C   C1259     1.0  0.53777  0.28437  0.11731  1.0000
  H   H1510     1.0  0.51903  0.24790  0.18847  1.0000
  C   C1260     1.0  0.32354  0.30823  0.05768  1.0000
  H   H1511     1.0  0.60629  0.47262  0.20442  1.0000
  H   H1512     1.0  0.50045  0.28376  0.19039  1.0000
  H   H1513     1.0  0.47527  0.27706  0.19733  1.0000
  H   H1514     1.0  0.48148  0.29530  0.17445  1.0000
  H   H1515     1.0  0.63894  0.36653  0.31230  1.0000
  H   H1516     1.0  0.62357  0.37526  0.33540  1.0000
  H   H1517     1.0  0.64683  0.47305  0.16115  1.0000
  H   H1518     1.0  0.49287  0.26590  0.12970  1.0000
  H   H1519     1.0  0.53108  0.27745  0.16915  1.0000
  H   H1520     1.0  0.51749  0.27760  0.10004  1.0000
  H   H1521     1.0  0.55543  0.28890  0.13845  1.0000
  H   H1522     1.0  0.54890  0.28905  0.10379  1.0000
  H   H1523     1.0  0.36519  0.26962  0.01727  1.0000
  C   C1261     1.0  0.54395  0.47324  0.17295  1.0000
  S   S347      1.0  0.63901  0.44300  0.06891  1.0000
  C   C1262     1.0  0.54828  0.34547  0.13022  1.0000
  H   H1524     1.0  0.50889  0.31465  0.35768  1.0000
  H   H1525     1.0  0.52280  0.30486  0.38967  1.0000
  S   S348      1.0  0.58845  0.25005  0.09314  1.0000
  H   H1526     1.0  0.32992  0.45566  0.28276  1.0000
  C   C1263     1.0  0.36535  0.31047  0.08694  1.0000
  C   C1264     1.0  0.56893  0.46895  0.30856  1.0000
  H   H1527     1.0  0.36757  0.29538  0.09644  1.0000
  C   C1265     1.0  0.63469  0.42706  0.38507  1.0000
  C   C1266     1.0  0.65362  0.42599  0.41278  1.0000
  H   H1528     1.0  0.51598  0.27136  0.04862  1.0000
  H   H1529     1.0  0.60393  0.46666  0.35886  1.0000
  H   H1530     1.0  0.34182  0.26992  0.06663  1.0000
  H   H1531     1.0  0.46846  0.26412  0.98820  1.0000
  H   H1532     1.0  0.55211  0.29705  0.40380  1.0000
  C   C1267     1.0  0.34556  0.24596  0.97870  1.0000
  C   C1268     1.0  0.35037  0.31588  0.07383  1.0000
  H   H1533     1.0  0.58992  0.34545  0.18182  1.0000
  H   H1534     1.0  0.36125  0.28471  0.05217  1.0000
  C   C1269     1.0  0.55003  0.35999  0.15949  1.0000
  H   H1535     1.0  0.52536  0.43156  0.20314  1.0000
  C   C1270     1.0  0.47013  0.24522  0.01802  1.0000
  H   H1536     1.0  0.35725  0.36626  0.05599  1.0000
  H   H1537     1.0  0.55996  0.35105  0.40098  1.0000
  H   H1538     1.0  0.47953  0.24580  0.15848  1.0000
  H   H1539     1.0  0.55413  0.34019  0.42761  1.0000
  C   C1271     1.0  0.38850  0.25096  0.11617  1.0000
  N   N86       1.0  0.53948  0.32868  0.40796  1.0000
  C   C1272     1.0  0.55711  0.31129  0.40529  1.0000
  C   C1273     1.0  0.54742  0.34550  0.41329  1.0000
  C   C1274     1.0  0.52375  0.32164  0.42570  1.0000
  C   C1275     1.0  0.53019  0.33512  0.38907  1.0000
  C   C1276     1.0  0.52236  0.32064  0.38163  1.0000
  C   C1277     1.0  0.52888  0.35553  0.37739  1.0000
  C   C1278     1.0  0.51426  0.32608  0.36340  1.0000
  C   C1279     1.0  0.52062  0.36081  0.35925  1.0000
  C   C1280     1.0  0.51353  0.34609  0.35217  1.0000
  H   H1540     1.0  0.56533  0.30685  0.41869  1.0000
  C   C1281     1.0  0.60734  0.25582  0.47437  1.0000
  H   H1541     1.0  0.42170  0.27385  0.07034  1.0000
  H   H1542     1.0  0.53018  0.31708  0.44027  1.0000
  H   H1543     1.0  0.51000  0.33408  0.42794  1.0000
  H   H1544     1.0  0.62560  0.42626  0.21328  1.0000
  H   H1545     1.0  0.39436  0.30197  0.01729  1.0000
  C   C1282     1.0  0.59892  0.27562  0.46477  1.0000
  C   C1283     1.0  0.60171  0.46241  0.21924  1.0000
  C   C1284     1.0  0.56277  0.23450  0.12722  1.0000
  Fe  Fe181     1.0  0.64096  0.41271  0.09149  1.0000
  S   S349      1.0  0.36568  0.24260  0.11478  1.0000
  H   H1546     1.0  0.41489  0.23700  0.99597  1.0000
  H   H1547     1.0  0.62466  0.34970  0.33157  1.0000
  C   C1285     1.0  0.32517  0.24106  0.46763  1.0000
  C   C1286     1.0  0.42138  0.25329  0.05005  1.0000
  C   C1287     1.0  0.64973  0.38294  0.20128  1.0000
  C   C1288     1.0  0.32724  0.36279  0.11490  1.0000
  C   C1289     1.0  0.53992  0.45313  0.17903  1.0000
  C   C1290     1.0  0.32470  0.29550  0.09345  1.0000
  C   C1291     1.0  0.37466  0.27654  0.00281  1.0000
  H   H1548     1.0  0.51592  0.47691  0.24879  1.0000
  H   H1549     1.0  0.63827  0.44702  0.19924  1.0000
  C   C1292     1.0  0.64837  0.39260  0.46516  1.0000
  H   H1550     1.0  0.33420  0.28797  0.10555  1.0000
  C   C1293     1.0  0.64851  0.41201  0.17304  1.0000
  C   C1294     1.0  0.41540  0.25129  0.03205  1.0000
  C   C1295     1.0  0.55219  0.23609  0.09479  1.0000
  C   C1296     1.0  0.48371  0.23959  0.07783  1.0000
  C   C1297     1.0  0.56621  0.23967  0.10573  1.0000
  H   H1551     1.0  0.48720  0.23955  0.09325  1.0000
  H   H1552     1.0  0.51298  0.45554  0.22693  1.0000
  S   S350      1.0  0.37399  0.23360  0.05819  1.0000
  C   C1298     1.0  0.32373  0.27973  0.97720  1.0000
  H   H1553     1.0  0.40729  0.29441  0.98312  1.0000
  H   H1554     1.0  0.38997  0.23593  0.01252  1.0000
  N   N87       1.0  0.65248  0.35480  0.33974  1.0000
  H   H1555     1.0  0.63414  0.33699  0.36473  1.0000
  H   H1556     1.0  0.46502  0.23240  0.01434  1.0000
  H   H1557     1.0  0.50984  0.23222  0.17519  1.0000
  H   H1558     1.0  0.65516  0.43218  0.42584  1.0000
  H   H1559     1.0  0.65527  0.32455  0.33220  1.0000
  H   H1560     1.0  0.60388  0.48096  0.25406  1.0000
  C   C1299     1.0  0.61967  0.48168  0.24649  1.0000
  C   C1300     1.0  0.52488  0.48208  0.20616  1.0000
  S   S351      1.0  0.37372  0.40049  0.57137  1.0000
  H   H1561     1.0  0.61607  0.37782  0.61986  1.0000
  H   H1562     1.0  0.41611  0.39346  0.52499  1.0000
  S   S352      1.0  0.35885  0.44422  0.60487  1.0000
  Fe  Fe182     1.0  0.40398  0.28365  0.52341  1.0000
  S   S353      1.0  0.37734  0.28903  0.54923  1.0000
  S   S354      1.0  0.43737  0.28329  0.52591  1.0000
  Fe  Fe183     1.0  0.37577  0.27647  0.49520  1.0000
  S   S355      1.0  0.34714  0.28301  0.51863  1.0000
  Fe  Fe184     1.0  0.36122  0.30881  0.52393  1.0000
  S   S356      1.0  0.34396  0.34160  0.52584  1.0000
  Fe  Fe185     1.0  0.36607  0.26291  0.54147  1.0000
  H   H1563     1.0  0.48012  0.37023  0.52581  1.0000
  S   S357      1.0  0.38841  0.30416  0.49815  1.0000
  S   S358      1.0  0.39421  0.25571  0.51797  1.0000
  H   H1564     1.0  0.46418  0.24231  0.54362  1.0000
  H   H1565     1.0  0.61620  0.28632  0.56532  1.0000
  C   C1301     1.0  0.39664  0.43719  0.64169  1.0000
  H   H1566     1.0  0.37416  0.43512  0.66970  1.0000
  S   S359      1.0  0.61341  0.41823  0.59107  1.0000
  H   H1567     1.0  0.59453  0.31977  0.55598  1.0000
  H   H1568     1.0  0.38764  0.38241  0.52349  1.0000
  C   C1302     1.0  0.58791  0.35245  0.52285  1.0000
  Fe  Fe186     1.0  0.48127  0.35102  0.58582  1.0000
  S   S360      1.0  0.47491  0.34385  0.62020  1.0000
  S   S361      1.0  0.45345  0.34914  0.57282  1.0000
  Fe  Fe187     1.0  0.52308  0.36368  0.58510  1.0000
  S   S362      1.0  0.51968  0.35729  0.61956  1.0000
  S   S363      1.0  0.55156  0.37376  0.56344  1.0000
  Fe  Fe188     1.0  0.50822  0.32896  0.61736  1.0000
  S   S364      1.0  0.51533  0.29743  0.63603  1.0000
  Fe  Fe189     1.0  0.48651  0.37283  0.61912  1.0000
  S   S365      1.0  0.46841  0.39718  0.63743  1.0000
  S   S366      1.0  0.51402  0.33381  0.58285  1.0000
  S   S367      1.0  0.49061  0.38149  0.58471  1.0000
  C   C1303     1.0  0.43645  0.23428  0.63122  1.0000
  C   C1304     1.0  0.46595  0.35503  0.50891  1.0000
  S   S368      1.0  0.35562  0.23392  0.56049  1.0000
  Fe  Fe190     1.0  0.35613  0.43207  0.57706  1.0000
  H   H1569     1.0  0.32526  0.46294  0.80731  1.0000
  C   C1305     1.0  0.63792  0.31208  0.60254  1.0000
  S   S369      1.0  0.34003  0.35825  0.87352  1.0000
  C   C1306     1.0  0.32748  0.33002  0.79601  1.0000
  Fe  Fe191     1.0  0.34496  0.40455  0.76361  1.0000
  S   S370      1.0  0.37795  0.39194  0.76701  1.0000
  H   H1570     1.0  0.36409  0.30389  0.82501  1.0000
  Fe  Fe192     1.0  0.35653  0.43836  0.72848  1.0000
  S   S371      1.0  0.39064  0.42882  0.72895  1.0000
  S   S372      1.0  0.34654  0.46652  0.70588  1.0000
  Fe  Fe193     1.0  0.38459  0.39657  0.73260  1.0000
  S   S373      1.0  0.40473  0.37041  0.71774  1.0000
  Fe  Fe194     1.0  0.38085  0.42516  0.76312  1.0000
  S   S374      1.0  0.39883  0.43389  0.78330  1.0000
  S   S375      1.0  0.35111  0.40640  0.72936  1.0000
  S   S376      1.0  0.34718  0.43751  0.76249  1.0000
  C   C1307     1.0  0.38558  0.45387  0.79659  1.0000
  H   H1571     1.0  0.38965  0.45643  0.68547  1.0000
  C   C1308     1.0  0.63158  0.26968  0.94109  1.0000
  C   C1309     1.0  0.44803  0.38361  0.52579  1.0000
  H   H1572     1.0  0.32454  0.34088  0.78222  1.0000
  C   C1310     1.0  0.32848  0.46795  0.65228  1.0000
  C   C1311     1.0  0.33425  0.46142  0.68755  1.0000
  S   S377      1.0  0.34046  0.26712  0.94008  1.0000
  C   C1312     1.0  0.32400  0.38204  0.80943  1.0000
  H   H1573     1.0  0.41962  0.47145  0.66708  1.0000
  C   C1313     1.0  0.47319  0.23538  0.62162  1.0000
  C   C1314     1.0  0.34516  0.38076  0.83474  1.0000
  C   C1315     1.0  0.34015  0.38843  0.81511  1.0000
  C   C1316     1.0  0.46614  0.36986  0.52038  1.0000
  N   N88       1.0  0.62758  0.34866  0.60912  1.0000
  H   H1574     1.0  0.35790  0.38544  0.83900  1.0000
  H   H1575     1.0  0.34899  0.39908  0.80434  1.0000
  H   H1576     1.0  0.49405  0.29777  0.60028  1.0000
  H   H1577     1.0  0.56437  0.35491  0.49563  1.0000
  H   H1578     1.0  0.47352  0.45586  0.61502  1.0000
  C   C1317     1.0  0.45190  0.38924  0.66052  1.0000
  C   C1318     1.0  0.45206  0.36833  0.66902  1.0000
  C   C1319     1.0  0.43791  0.36261  0.68696  1.0000
  C   C1320     1.0  0.42354  0.37779  0.69638  1.0000
  C   C1321     1.0  0.42355  0.39864  0.68789  1.0000
  C   C1322     1.0  0.43779  0.40432  0.67015  1.0000
  H   H1579     1.0  0.46311  0.35657  0.66188  1.0000
  H   H1580     1.0  0.43799  0.34643  0.69346  1.0000
  H   H1581     1.0  0.41238  0.41043  0.69476  1.0000
  H   H1582     1.0  0.43770  0.42046  0.66377  1.0000
  C   C1323     1.0  0.59569  0.40706  0.58273  1.0000
  C   C1324     1.0  0.57778  0.40217  0.59650  1.0000
  C   C1325     1.0  0.56410  0.39202  0.59082  1.0000
  C   C1326     1.0  0.56803  0.38698  0.57115  1.0000
  C   C1327     1.0  0.58570  0.39229  0.55724  1.0000
  C   C1328     1.0  0.59953  0.40218  0.56301  1.0000
  H   H1583     1.0  0.57460  0.40604  0.61173  1.0000
  H   H1584     1.0  0.55045  0.38821  0.60162  1.0000
  H   H1585     1.0  0.58867  0.38889  0.54188  1.0000
  H   H1586     1.0  0.61310  0.40613  0.55218  1.0000
  C   C1329     1.0  0.62744  0.39275  0.49906  1.0000
  C   C1330     1.0  0.64226  0.40095  0.50518  1.0000
  H   H1587     1.0  0.35187  0.35828  0.77089  1.0000
  H   H1588     1.0  0.61350  0.38983  0.50984  1.0000
  H   H1589     1.0  0.63973  0.40417  0.52059  1.0000
  C   C1331     1.0  0.57119  0.28601  0.60000  1.0000
  C   C1332     1.0  0.55274  0.29630  0.61022  1.0000
  C   C1333     1.0  0.53940  0.28497  0.62493  1.0000
  C   C1334     1.0  0.48071  0.28942  0.60585  1.0000
  H   H1590     1.0  0.50507  0.25641  0.62422  1.0000
  H   H1591     1.0  0.54884  0.31298  0.60670  1.0000
  H   H1592     1.0  0.55102  0.32208  0.53354  1.0000
  H   H1593     1.0  0.43370  0.46891  0.59710  1.0000
  H   H1594     1.0  0.54746  0.34979  0.53161  1.0000
  H   H1595     1.0  0.62929  0.27604  0.95504  1.0000
  H   H1596     1.0  0.38420  0.47546  0.71798  1.0000
  H   H1597     1.0  0.33346  0.29270  0.84761  1.0000
  C   C1335     1.0  0.33374  0.36707  0.84890  1.0000
  C   C1336     1.0  0.44799  0.48153  0.63737  1.0000
  N   N89       1.0  0.48592  0.26814  0.60102  1.0000
  H   H1598     1.0  0.53447  0.25472  0.64132  1.0000
  C   C1337     1.0  0.40358  0.34586  0.51300  1.0000
  C   C1338     1.0  0.44213  0.30070  0.53987  1.0000
  C   C1339     1.0  0.46255  0.30313  0.53938  1.0000
  C   C1340     1.0  0.46649  0.31730  0.55014  1.0000
  C   C1341     1.0  0.44994  0.32945  0.56098  1.0000
  C   C1342     1.0  0.42963  0.32683  0.56154  1.0000
  C   C1343     1.0  0.42575  0.31231  0.55134  1.0000
  H   H1599     1.0  0.47534  0.29418  0.53052  1.0000
  H   H1600     1.0  0.48221  0.31937  0.54941  1.0000
  H   H1601     1.0  0.41675  0.33622  0.56977  1.0000
  H   H1602     1.0  0.41000  0.31047  0.55204  1.0000
  C   C1344     1.0  0.42309  0.45841  0.63908  1.0000
  C   C1345     1.0  0.36280  0.38389  0.56126  1.0000
  C   C1346     1.0  0.35022  0.35722  0.54091  1.0000
  C   C1347     1.0  0.36482  0.34938  0.55390  1.0000
  C   C1348     1.0  0.37125  0.36270  0.56381  1.0000
  H   H1603     1.0  0.37161  0.33315  0.55585  1.0000
  H   H1604     1.0  0.38306  0.35662  0.57322  1.0000
  C   C1349     1.0  0.62664  0.35830  0.58742  1.0000
  H   H1605     1.0  0.56597  0.32791  0.49650  1.0000
  H   H1606     1.0  0.44806  0.39455  0.53546  1.0000
  C   C1350     1.0  0.44807  0.26520  0.61053  1.0000
  H   H1607     1.0  0.41954  0.24914  0.55996  1.0000
  C   C1351     1.0  0.42964  0.38270  0.51968  1.0000
  H   H1608     1.0  0.51832  0.26836  0.60011  1.0000
  H   H1609     1.0  0.62613  0.26104  0.54181  1.0000
  H   H1610     1.0  0.34078  0.40788  0.54702  1.0000
  H   H1611     1.0  0.34079  0.42445  0.83304  1.0000
  C   C1352     1.0  0.35403  0.39938  0.64388  1.0000
  N   N90       1.0  0.40759  0.36840  0.62652  1.0000
  C   C1353     1.0  0.40206  0.36196  0.60898  1.0000
  C   C1354     1.0  0.42274  0.38255  0.61815  1.0000
  C   C1355     1.0  0.41774  0.34938  0.63893  1.0000
  C   C1356     1.0  0.38940  0.37923  0.63923  1.0000
  C   C1357     1.0  0.37088  0.38907  0.63157  1.0000
  H   H1612     1.0  0.41526  0.35189  0.60091  1.0000
  H   H1613     1.0  0.38884  0.35339  0.61409  1.0000
  H   H1614     1.0  0.41579  0.39695  0.60860  1.0000
  H   H1615     1.0  0.43667  0.37523  0.60823  1.0000
  H   H1616     1.0  0.42819  0.38723  0.63063  1.0000
  H   H1617     1.0  0.42619  0.35285  0.64988  1.0000
  H   H1618     1.0  0.40618  0.33964  0.64781  1.0000
  H   H1619     1.0  0.42977  0.33975  0.62915  1.0000
  H   H1620     1.0  0.36908  0.38910  0.61606  1.0000
  C   C1358     1.0  0.34933  0.30952  0.81999  1.0000
  H   H1621     1.0  0.45606  0.43916  0.61506  1.0000
  H   H1622     1.0  0.39808  0.37538  0.59689  1.0000
  H   H1623     1.0  0.65566  0.24901  0.85476  1.0000
  C   C1359     1.0  0.34740  0.39158  0.54914  1.0000
  H   H1624     1.0  0.34212  0.40837  0.67344  1.0000
  C   C1360     1.0  0.41408  0.44547  0.63073  1.0000
  H   H1625     1.0  0.62914  0.37458  0.58435  1.0000
  C   C1361     1.0  0.37648  0.34071  0.79826  1.0000
  C   C1362     1.0  0.35520  0.40043  0.66395  1.0000
  Fe  Fe195     1.0  0.64630  0.41889  0.57350  1.0000
  H   H1626     1.0  0.40408  0.37527  0.66598  1.0000
  C   C1363     1.0  0.63739  0.25177  0.90539  1.0000
  H   H1627     1.0  0.41597  0.26167  0.62014  1.0000
  C   C1364     1.0  0.39188  0.38251  0.50667  1.0000
  C   C1365     1.0  0.42567  0.23461  0.55358  1.0000
  C   C1366     1.0  0.61452  0.26832  0.93312  1.0000
  H   H1628     1.0  0.60374  0.35217  0.51345  1.0000
  N   N91       1.0  0.64097  0.24259  0.88660  1.0000
  H   H1629     1.0  0.63867  0.35011  0.57644  1.0000
  H   H1630     1.0  0.33843  0.43441  0.85646  1.0000
  H   H1631     1.0  0.33154  0.47603  0.63659  1.0000
  C   C1367     1.0  0.61598  0.28638  0.61714  1.0000
  H   H1632     1.0  0.60324  0.25820  0.91084  1.0000
  C   C1368     1.0  0.61230  0.36198  0.62234  1.0000
  N   N92       1.0  0.57857  0.33515  0.52046  1.0000
  C   C1369     1.0  0.57430  0.33951  0.49914  1.0000
  C   C1370     1.0  0.55844  0.33498  0.53475  1.0000
  C   C1371     1.0  0.59249  0.31519  0.52550  1.0000
  C   C1372     1.0  0.59927  0.30961  0.54478  1.0000
  C   C1373     1.0  0.59895  0.30044  0.51211  1.0000
  C   C1374     1.0  0.61162  0.29048  0.55032  1.0000
  C   C1375     1.0  0.61111  0.28123  0.51796  1.0000
  C   C1376     1.0  0.61729  0.27620  0.53707  1.0000
  H   H1633     1.0  0.44803  0.34141  0.49489  1.0000
  H   H1634     1.0  0.38837  0.34408  0.51011  1.0000
  H   H1635     1.0  0.33998  0.40675  0.63780  1.0000
  C   C1377     1.0  0.65446  0.25357  0.91385  1.0000
  H   H1636     1.0  0.58889  0.33979  0.48766  1.0000
  H   H1637     1.0  0.59455  0.30317  0.49718  1.0000
  H   H1638     1.0  0.37754  0.38058  0.50195  1.0000
  C   C1378     1.0  0.42894  0.36783  0.50781  1.0000
  H   H1639     1.0  0.56020  0.33303  0.55108  1.0000
  C   C1379     1.0  0.41395  0.46190  0.65935  1.0000
  H   H1640     1.0  0.61546  0.26996  0.50779  1.0000
  C   C1380     1.0  0.57596  0.26441  0.60409  1.0000
  C   C1381     1.0  0.45923  0.45007  0.62378  1.0000
  C   C1382     1.0  0.44763  0.35385  0.50285  1.0000
  C   C1383     1.0  0.64849  0.34870  0.61323  1.0000
  C   C1384     1.0  0.65335  0.25498  0.86939  1.0000
  H   H1641     1.0  0.61227  0.25738  0.87601  1.0000
  C   C1385     1.0  0.50627  0.25858  0.60724  1.0000
  H   H1642     1.0  0.39034  0.34647  0.78830  1.0000
  H   H1643     1.0  0.61188  0.35537  0.63896  1.0000
  H   H1644     1.0  0.64524  0.28059  0.59713  1.0000
  H   H1645     1.0  0.58899  0.35213  0.53907  1.0000
  H   H1646     1.0  0.58147  0.29478  0.58865  1.0000
  C   C1386     1.0  0.43199  0.25442  0.62060  1.0000
  C   C1387     1.0  0.56271  0.25312  0.61894  1.0000
  H   H1647     1.0  0.39278  0.23581  0.61498  1.0000
  C   C1388     1.0  0.62357  0.32725  0.61251  1.0000
  H   H1648     1.0  0.45224  0.24958  0.56781  1.0000
  H   H1649     1.0  0.51267  0.24348  0.60213  1.0000
  C   C1389     1.0  0.33613  0.43858  0.84015  1.0000
  C   C1390     1.0  0.37334  0.39151  0.67167  1.0000
  C   C1391     1.0  0.62155  0.24169  0.87982  1.0000
  H   H1650     1.0  0.40215  0.34487  0.52983  1.0000
  H   H1651     1.0  0.40551  0.44533  0.81926  1.0000
  N   N93       1.0  0.44148  0.46713  0.62709  1.0000
  C   C1392     1.0  0.34122  0.37829  0.53894  1.0000
  C   C1393     1.0  0.46916  0.25626  0.61136  1.0000
  H   H1652     1.0  0.59290  0.33160  0.63241  1.0000
  H   H1653     1.0  0.37424  0.25196  0.58576  1.0000
  H   H1654     1.0  0.36404  0.46687  0.77579  1.0000
  H   H1655     1.0  0.59641  0.36439  0.61875  1.0000
  C   C1394     1.0  0.63050  0.38833  0.47915  1.0000
  C   C1395     1.0  0.60502  0.32110  0.62465  1.0000
  H   H1656     1.0  0.65043  0.34017  0.62893  1.0000
  C   C1396     1.0  0.39248  0.45615  0.81396  1.0000
  H   H1657     1.0  0.61120  0.35854  0.58364  1.0000
  C   C1397     1.0  0.57480  0.25366  0.49782  1.0000
  H   H1658     1.0  0.49336  0.25394  0.57416  1.0000
  Fe  Fe196     1.0  0.35958  0.47509  0.58410  1.0000
  H   H1659     1.0  0.47364  0.27655  0.57292  1.0000
  H   H1660     1.0  0.38728  0.30084  0.79524  1.0000
  H   H1661     1.0  0.37444  0.39258  0.68719  1.0000
  H   H1662     1.0  0.38794  0.47398  0.83800  1.0000
  H   H1663     1.0  0.65129  0.36473  0.61202  1.0000
  H   H1664     1.0  0.46293  0.44077  0.63872  1.0000
  H   H1665     1.0  0.55032  0.27990  0.49327  1.0000
  H   H1666     1.0  0.41515  0.33225  0.50871  1.0000
  H   H1667     1.0  0.46787  0.29937  0.59844  1.0000
  H   H1668     1.0  0.65206  0.31576  0.59260  1.0000
  H   H1669     1.0  0.40961  0.47586  0.73598  1.0000
  C   C1398     1.0  0.39027  0.38135  0.65943  1.0000
  H   H1670     1.0  0.32974  0.38447  0.52910  1.0000
  C   C1399     1.0  0.60143  0.30092  0.62691  1.0000
  C   C1400     1.0  0.63414  0.29195  0.60492  1.0000
  H   H1671     1.0  0.38173  0.33082  0.81226  1.0000
  C   C1401     1.0  0.41279  0.36590  0.47938  1.0000
  H   H1672     1.0  0.64553  0.27146  0.86672  1.0000
  N   N94       1.0  0.36656  0.32965  0.78732  1.0000
  C   C1402     1.0  0.38153  0.31118  0.78169  1.0000
  C   C1403     1.0  0.36234  0.34362  0.76785  1.0000
  C   C1404     1.0  0.34772  0.32316  0.80096  1.0000
  C   C1405     1.0  0.37621  0.23541  0.59104  1.0000
  S   S378      1.0  0.59825  0.25150  0.59037  1.0000
  C   C1406     1.0  0.45900  0.23596  0.56014  1.0000
  H   H1673     1.0  0.35527  0.33614  0.75856  1.0000
  H   H1674     1.0  0.56533  0.24514  0.51036  1.0000
  H   H1675     1.0  0.39550  0.31558  0.77069  1.0000
  H   H1676     1.0  0.37430  0.30190  0.77431  1.0000
  C   C1407     1.0  0.61723  0.25936  0.91566  1.0000
  H   H1677     1.0  0.37680  0.34816  0.75787  1.0000
  H   H1678     1.0  0.59902  0.27367  0.94096  1.0000
  C   C1408     1.0  0.48840  0.26953  0.57853  1.0000
  H   H1679     1.0  0.39538  0.39802  0.49885  1.0000
  H   H1680     1.0  0.56645  0.23646  0.62212  1.0000
  H   H1681     1.0  0.36545  0.35428  0.80333  1.0000
  C   C1409     1.0  0.54467  0.26344  0.62974  1.0000
  H   H1682     1.0  0.34740  0.44892  0.83203  1.0000
  H   H1683     1.0  0.40362  0.27657  0.96861  1.0000
  H   H1684     1.0  0.38986  0.42756  0.63494  1.0000
  C   C1410     1.0  0.38784  0.44128  0.66131  1.0000
  S   S379      1.0  0.36059  0.46204  0.55577  1.0000
  N   N95       1.0  0.40959  0.36575  0.50182  1.0000
  H   H1685     1.0  0.50032  0.27903  0.57001  1.0000
  H   H1686     1.0  0.57847  0.36781  0.51788  1.0000
  H   H1687     1.0  0.33503  0.25944  0.48523  1.0000
  H   H1688     1.0  0.42050  0.44160  0.61569  1.0000
  H   H1689     1.0  0.61301  0.27080  0.61883  1.0000
  H   H1690     1.0  0.47657  0.28903  0.62278  1.0000
  H   H1691     1.0  0.58709  0.29656  0.63604  1.0000
  C   C1411     1.0  0.43707  0.47879  0.60677  1.0000
  C   C1412     1.0  0.33187  0.30304  0.83311  1.0000
  H   H1692     1.0  0.44381  0.28059  0.60209  1.0000
  Fe  Fe197     1.0  0.32430  0.45349  0.60807  1.0000
  C   C1413     1.0  0.36884  0.46800  0.78968  1.0000
  C   C1414     1.0  0.38258  0.47237  0.82452  1.0000
  H   H1693     1.0  0.62474  0.23452  0.86581  1.0000
  S   S380      1.0  0.56959  0.23691  0.55285  1.0000
  C   C1415     1.0  0.33753  0.47232  0.66736  1.0000
  C   C1416     1.0  0.39660  0.45339  0.67018  1.0000
  C   C1417     1.0  0.33621  0.26413  0.96710  1.0000
  H   H1694     1.0  0.47988  0.34386  0.50540  1.0000
  Fe  Fe198     1.0  0.32595  0.46985  0.56271  1.0000
  H   H1695     1.0  0.45295  0.47353  0.65219  1.0000
  H   H1696     1.0  0.42510  0.47247  0.76595  1.0000
  C   C1418     1.0  0.59542  0.24493  0.49117  1.0000
  C   C1419     1.0  0.56626  0.27327  0.48798  1.0000
  H   H1697     1.0  0.43022  0.23917  0.53664  1.0000
  C   C1420     1.0  0.65152  0.26229  0.93150  1.0000
  H   H1698     1.0  0.35522  0.23385  0.97094  1.0000
  H   H1699     1.0  0.57162  0.23278  0.95631  1.0000
  H   H1700     1.0  0.42403  0.35229  0.47469  1.0000
  S   S381      1.0  0.32304  0.30362  0.88958  1.0000
  C   C1421     1.0  0.59404  0.23611  0.97353  1.0000
  Fe  Fe199     1.0  0.53047  0.56960  0.20324  1.0000
  S   S382      1.0  0.54263  0.59835  0.18561  1.0000
  S   S383      1.0  0.50249  0.56388  0.22774  1.0000
  Fe  Fe200     1.0  0.56738  0.54099  0.18395  1.0000
  S   S384      1.0  0.58283  0.56667  0.16487  1.0000
  H   H1701     1.0  0.50947  0.52300  0.19494  1.0000
  Fe  Fe201     1.0  0.57347  0.58090  0.19328  1.0000
  S   S385      1.0  0.59814  0.59411  0.20151  1.0000
  Fe  Fe202     1.0  0.55118  0.58164  0.15851  1.0000
  S   S386      1.0  0.54649  0.59385  0.12567  1.0000
  S   S387      1.0  0.56069  0.55366  0.21293  1.0000
  S   S388      1.0  0.53629  0.55442  0.17553  1.0000
  Fe  Fe203     1.0  0.63197  0.60567  0.99165  1.0000
  H   H1702     1.0  0.33782  0.52082  0.28860  1.0000
  Fe  Fe204     1.0  0.62603  0.62869  0.02717  1.0000
  S   S389      1.0  0.63797  0.65627  0.00645  1.0000
  S   S390      1.0  0.62295  0.62381  0.06173  1.0000
  H   H1703     1.0  0.62478  0.71018  0.46640  1.0000
  H   H1704     1.0  0.64908  0.55297  0.20281  1.0000
  S   S391      1.0  0.36159  0.66131  0.44506  1.0000
  S   S392      1.0  0.60475  0.62641  0.00649  1.0000
  C   C1422     1.0  0.63839  0.57056  0.24076  1.0000
  Fe  Fe205     1.0  0.43869  0.62457  0.31115  1.0000
  S   S393      1.0  0.44994  0.59476  0.33111  1.0000
  S   S394      1.0  0.45238  0.63387  0.27784  1.0000
  Fe  Fe206     1.0  0.41047  0.64217  0.34720  1.0000
  S   S395      1.0  0.42049  0.61400  0.36966  1.0000
  S   S396      1.0  0.38534  0.66568  0.36106  1.0000
  Fe  Fe207     1.0  0.45263  0.61562  0.35210  1.0000
  S   S397      1.0  0.48100  0.61203  0.36678  1.0000
  Fe  Fe208     1.0  0.41616  0.59669  0.34637  1.0000
  S   S398      1.0  0.39602  0.57188  0.35859  1.0000
  S   S399      1.0  0.44287  0.64520  0.33139  1.0000
  S   S400      1.0  0.40493  0.62491  0.32466  1.0000
  H   H1705     1.0  0.62568  0.61779  0.33777  1.0000
  Fe  Fe209     1.0  0.56097  0.69787  0.42462  1.0000
  S   S401      1.0  0.59218  0.68864  0.40580  1.0000
  C   C1423     1.0  0.59885  0.48321  0.15613  1.0000
  Fe  Fe210     1.0  0.53836  0.69001  0.39207  1.0000
  S   S402      1.0  0.56801  0.68224  0.37034  1.0000
  S   S403      1.0  0.50721  0.69163  0.38328  1.0000
  Fe  Fe211     1.0  0.57880  0.66314  0.39890  1.0000
  S   S404      1.0  0.59570  0.63009  0.39793  1.0000
  Fe  Fe212     1.0  0.57818  0.70835  0.37929  1.0000
  H   H1706     1.0  0.49712  0.69622  0.45120  1.0000
  S   S405      1.0  0.54861  0.67030  0.42063  1.0000
  S   S406      1.0  0.54740  0.71814  0.39808  1.0000
  S   S407      1.0  0.58837  0.51415  0.35771  1.0000
  Fe  Fe213     1.0  0.61987  0.53036  0.30392  1.0000
  S   S408      1.0  0.58507  0.53490  0.30954  1.0000
  H   H1707     1.0  0.37380  0.68758  0.31737  1.0000
  Fe  Fe214     1.0  0.58718  0.54585  0.33822  1.0000
  S   S409      1.0  0.56666  0.57532  0.34688  1.0000
  Fe  Fe215     1.0  0.58956  0.50282  0.32836  1.0000
  H   H1708     1.0  0.40570  0.68967  0.29131  1.0000
  Fe  Fe216     1.0  0.61932  0.65179  0.98426  1.0000
  C   C1424     1.0  0.41863  0.68957  0.46044  1.0000
  C   C1425     1.0  0.42298  0.67133  0.42523  1.0000
  H   H1709     1.0  0.42861  0.66825  0.37395  1.0000
  C   C1426     1.0  0.65432  0.48606  0.16046  1.0000
  H   H1710     1.0  0.41608  0.69681  0.47382  1.0000
  C   C1427     1.0  0.37103  0.69938  0.42737  1.0000
  H   H1711     1.0  0.37168  0.69472  0.41294  1.0000
  C   C1428     1.0  0.58807  0.61538  0.38288  1.0000
  C   C1429     1.0  0.57079  0.62295  0.37323  1.0000
  C   C1430     1.0  0.56455  0.61065  0.36206  1.0000
  C   C1431     1.0  0.57579  0.59082  0.35998  1.0000
  C   C1432     1.0  0.59324  0.58328  0.36943  1.0000
  C   C1433     1.0  0.59919  0.59544  0.38102  1.0000
  H   H1712     1.0  0.56204  0.63821  0.37461  1.0000
  H   H1713     1.0  0.55091  0.61659  0.35506  1.0000
  H   H1714     1.0  0.60188  0.56795  0.36817  1.0000
  H   H1715     1.0  0.61238  0.58937  0.38868  1.0000
  H   H1716     1.0  0.55897  0.61254  0.42451  1.0000
  C   C1434     1.0  0.65350  0.51964  0.16984  1.0000
  H   H1717     1.0  0.61163  0.53228  0.18577  1.0000
  C   C1435     1.0  0.52119  0.56963  0.38676  1.0000
  S   S410      1.0  0.63001  0.57508  0.98500  1.0000
  H   H1718     1.0  0.56081  0.56005  0.39020  1.0000
  C   C1436     1.0  0.48944  0.63446  0.36938  1.0000
  C   C1437     1.0  0.47851  0.65429  0.36343  1.0000
  C   C1438     1.0  0.48451  0.67172  0.36724  1.0000
  C   C1439     1.0  0.50154  0.66954  0.37695  1.0000
  C   C1440     1.0  0.51299  0.64981  0.38220  1.0000
  C   C1441     1.0  0.50702  0.63237  0.37830  1.0000
  H   H1719     1.0  0.46516  0.65628  0.35632  1.0000
  H   H1720     1.0  0.47584  0.68699  0.36277  1.0000
  H   H1721     1.0  0.52621  0.64797  0.38961  1.0000
  H   H1722     1.0  0.51598  0.61724  0.38244  1.0000
  C   C1442     1.0  0.37148  0.57379  0.35159  1.0000
  C   C1443     1.0  0.36615  0.58656  0.33354  1.0000
  C   C1444     1.0  0.34706  0.58677  0.32783  1.0000
  C   C1445     1.0  0.33284  0.57463  0.34030  1.0000
  C   C1446     1.0  0.33785  0.56238  0.35870  1.0000
  C   C1447     1.0  0.35717  0.56181  0.36417  1.0000
  H   H1723     1.0  0.37699  0.59578  0.32367  1.0000
  H   H1724     1.0  0.34332  0.59629  0.31358  1.0000
  N   N96       1.0  0.34609  0.62190  0.40105  1.0000
  H   H1725     1.0  0.36109  0.55192  0.37820  1.0000
  C   C1448     1.0  0.39078  0.69089  0.35479  1.0000
  C   C1449     1.0  0.40646  0.69625  0.33841  1.0000
  H   H1726     1.0  0.38153  0.62596  0.24030  1.0000
  C   C1450     1.0  0.50556  0.48946  0.24027  1.0000
  H   H1727     1.0  0.41498  0.68503  0.32902  1.0000
  C   C1451     1.0  0.42786  0.67590  0.38723  1.0000
  H   H1728     1.0  0.52298  0.55644  0.37863  1.0000
  C   C1452     1.0  0.60888  0.58032  0.22309  1.0000
  C   C1453     1.0  0.41083  0.71640  0.33384  1.0000
  H   H1729     1.0  0.50448  0.57671  0.38905  1.0000
  C   C1454     1.0  0.62826  0.55622  0.25544  1.0000
  C   C1455     1.0  0.60827  0.55420  0.25417  1.0000
  C   C1456     1.0  0.59865  0.56615  0.23794  1.0000
  H   H1730     1.0  0.44592  0.63684  0.39337  1.0000
  H   H1731     1.0  0.36175  0.63839  0.29352  1.0000
  H   H1732     1.0  0.60035  0.54314  0.26540  1.0000
  H   H1733     1.0  0.58326  0.56448  0.23715  1.0000
  C   C1457     1.0  0.48879  0.58356  0.24147  1.0000
  C   C1458     1.0  0.49045  0.60431  0.23393  1.0000
  C   C1459     1.0  0.47921  0.61964  0.24524  1.0000
  C   C1460     1.0  0.46650  0.61428  0.26421  1.0000
  C   C1461     1.0  0.46492  0.59353  0.27182  1.0000
  C   C1462     1.0  0.47592  0.57824  0.26038  1.0000
  H   H1734     1.0  0.50029  0.60855  0.21934  1.0000
  H   H1735     1.0  0.48048  0.63568  0.23928  1.0000
  H   H1736     1.0  0.45503  0.58926  0.28635  1.0000
  H   H1737     1.0  0.47458  0.56220  0.26625  1.0000
  C   C1463     1.0  0.60136  0.61570  0.07901  1.0000
  C   C1464     1.0  0.60225  0.61079  0.10006  1.0000
  C   C1465     1.0  0.58553  0.60404  0.11444  1.0000
  C   C1466     1.0  0.56769  0.60229  0.10787  1.0000
  C   C1467     1.0  0.56671  0.60733  0.08678  1.0000
  C   C1468     1.0  0.58354  0.61398  0.07235  1.0000
  H   H1738     1.0  0.61579  0.61259  0.10533  1.0000
  H   H1739     1.0  0.58621  0.60081  0.13065  1.0000
  H   H1740     1.0  0.55282  0.60626  0.08165  1.0000
  H   H1741     1.0  0.58256  0.61816  0.05617  1.0000
  C   C1469     1.0  0.65247  0.54760  0.37189  1.0000
  C   C1470     1.0  0.57763  0.51574  0.14427  1.0000
  H   H1742     1.0  0.34101  0.61244  0.43411  1.0000
  C   C1471     1.0  0.60938  0.71938  0.46682  1.0000
  H   H1743     1.0  0.49939  0.55580  0.42289  1.0000
  C   C1472     1.0  0.36272  0.61666  0.38362  1.0000
  H   H1744     1.0  0.56831  0.53042  0.14712  1.0000
  H   H1745     1.0  0.57277  0.52054  0.11291  1.0000
  C   C1473     1.0  0.36564  0.68611  0.44593  1.0000
  N   N97       1.0  0.64322  0.53713  0.18062  1.0000
  H   H1746     1.0  0.56188  0.58134  0.41108  1.0000
  H   H1747     1.0  0.33537  0.64846  0.41645  1.0000
  H   H1748     1.0  0.41675  0.61572  0.27938  1.0000
  C   C1474     1.0  0.57439  0.72430  0.45965  1.0000
  H   H1749     1.0  0.49268  0.62105  0.43437  1.0000
  H   H1750     1.0  0.44186  0.63224  0.42080  1.0000
  H   H1751     1.0  0.62958  0.51335  0.12237  1.0000
  H   H1752     1.0  0.52470  0.63259  0.43640  1.0000
  C   C1475     1.0  0.62857  0.58284  0.22483  1.0000
  H   H1753     1.0  0.54158  0.51539  0.20851  1.0000
  C   C1476     1.0  0.38450  0.72556  0.36263  1.0000
  H   H1754     1.0  0.41609  0.66696  0.26617  1.0000
  C   C1477     1.0  0.42568  0.69212  0.42343  1.0000
  H   H1755     1.0  0.52962  0.58143  0.37608  1.0000
  C   C1478     1.0  0.63161  0.54575  0.11429  1.0000
  H   H1756     1.0  0.38009  0.72871  0.41287  1.0000
  H   H1757     1.0  0.49172  0.48341  0.23913  1.0000
  H   H1758     1.0  0.32709  0.55297  0.36850  1.0000
  C   C1479     1.0  0.50211  0.71153  0.44790  1.0000
  H   H1759     1.0  0.63708  0.57649  0.10435  1.0000
  H   H1760     1.0  0.62859  0.50108  0.17912  1.0000
  C   C1480     1.0  0.40652  0.65237  0.40823  1.0000
  H   H1761     1.0  0.62086  0.50634  0.26185  1.0000
  H   H1762     1.0  0.35194  0.59189  0.42000  1.0000
  C   C1481     1.0  0.37956  0.70566  0.36665  1.0000
  H   H1763     1.0  0.61563  0.55071  0.12129  1.0000
  H   H1764     1.0  0.36524  0.62767  0.26439  1.0000
  H   H1765     1.0  0.37779  0.61978  0.38535  1.0000
  H   H1766     1.0  0.64614  0.56006  0.38113  1.0000
  H   H1767     1.0  0.52079  0.54497  0.43624  1.0000
  H   H1768     1.0  0.55063  0.53689  0.39601  1.0000
  H   H1769     1.0  0.64445  0.59116  0.36094  1.0000
  H   H1770     1.0  0.56330  0.48897  0.25891  1.0000
  C   C1482     1.0  0.46153  0.71872  0.47208  1.0000
  H   H1771     1.0  0.49451  0.58994  0.42050  1.0000
  H   H1772     1.0  0.33499  0.53339  0.31004  1.0000
  C   C1483     1.0  0.39595  0.67873  0.29124  1.0000
  H   H1773     1.0  0.50541  0.71486  0.46220  1.0000
  C   C1484     1.0  0.33268  0.51909  0.30556  1.0000
  H   H1774     1.0  0.63650  0.59389  0.21348  1.0000
  H   H1775     1.0  0.62858  0.55368  0.15513  1.0000
  H   H1776     1.0  0.47901  0.70775  0.42203  1.0000
  C   C1485     1.0  0.37564  0.71875  0.42730  1.0000
  H   H1777     1.0  0.51751  0.53433  0.41509  1.0000
  H   H1778     1.0  0.40362  0.64036  0.42206  1.0000
  S   S411      1.0  0.62426  0.49745  0.32028  1.0000
  H   H1779     1.0  0.41459  0.68907  0.38663  1.0000
  C   C1486     1.0  0.41861  0.65998  0.44549  1.0000
  H   H1780     1.0  0.42274  0.72063  0.32094  1.0000
  C   C1487     1.0  0.50765  0.61186  0.42969  1.0000
  Fe  Fe217     1.0  0.62292  0.51086  0.34816  1.0000
  H   H1781     1.0  0.59885  0.69945  0.45146  1.0000
  C   C1488     1.0  0.35194  0.60845  0.42012  1.0000
  H   H1782     1.0  0.52853  0.51765  0.23388  1.0000
  C   C1489     1.0  0.58018  0.51019  0.12489  1.0000
  S   S412      1.0  0.59596  0.48416  0.09692  1.0000
  C   C1490     1.0  0.44348  0.64454  0.40695  1.0000
  N   N98       1.0  0.60306  0.55301  0.05773  1.0000
  C   C1491     1.0  0.58929  0.53937  0.05542  1.0000
  C   C1492     1.0  0.59803  0.55688  0.07918  1.0000
  C   C1493     1.0  0.59814  0.57320  0.04399  1.0000
  C   C1494     1.0  0.62501  0.54280  0.05314  1.0000
  H   H1783     1.0  0.35744  0.68579  0.98581  1.0000
  H   H1784     1.0  0.34317  0.50597  0.31328  1.0000
  H   H1785     1.0  0.35925  0.62608  0.36867  1.0000
  H   H1786     1.0  0.63911  0.72120  0.41010  1.0000
  C   C1495     1.0  0.58679  0.50209  0.15994  1.0000
  H   H1787     1.0  0.57269  0.54690  0.05780  1.0000
  H   H1788     1.0  0.59334  0.53523  0.03978  1.0000
  H   H1789     1.0  0.59034  0.52466  0.06678  1.0000
  H   H1790     1.0  0.60794  0.56725  0.08147  1.0000
  H   H1791     1.0  0.60012  0.54236  0.09061  1.0000
  H   H1792     1.0  0.58158  0.56449  0.08319  1.0000
  H   H1793     1.0  0.60088  0.57140  0.02755  1.0000
  H   H1794     1.0  0.58159  0.58055  0.04787  1.0000
  H   H1795     1.0  0.60753  0.58449  0.04539  1.0000
  C   C1496     1.0  0.63939  0.52473  0.11489  1.0000
  H   H1796     1.0  0.62172  0.51538  0.07691  1.0000
  C   C1497     1.0  0.52566  0.61844  0.43077  1.0000
  H   H1797     1.0  0.42899  0.70207  0.40876  1.0000
  N   N99       1.0  0.42517  0.66137  0.40716  1.0000
  N   N100      1.0  0.39526  0.63636  0.26161  1.0000
  C   C1498     1.0  0.41169  0.64228  0.24398  1.0000
  C   C1499     1.0  0.40310  0.61551  0.27256  1.0000
  C   C1500     1.0  0.37706  0.63526  0.25286  1.0000
  C   C1501     1.0  0.34633  0.69597  0.99501  1.0000
  C   C1502     1.0  0.63524  0.60427  0.33211  1.0000
  H   H1798     1.0  0.36711  0.70168  0.37901  1.0000
  N   N101      1.0  0.48656  0.72826  0.43879  1.0000
  H   H1799     1.0  0.57202  0.49845  0.28920  1.0000
  C   C1503     1.0  0.36572  0.66316  0.30631  1.0000
  H   H1800     1.0  0.40719  0.65839  0.23589  1.0000
  C   C1504     1.0  0.59228  0.49123  0.12111  1.0000
  C   C1505     1.0  0.64402  0.50236  0.17073  1.0000
  H   H1801     1.0  0.40813  0.60399  0.26205  1.0000
  H   H1802     1.0  0.39119  0.60964  0.28541  1.0000
  C   C1506     1.0  0.40166  0.66560  0.27670  1.0000
  H   H1803     1.0  0.36941  0.65101  0.24639  1.0000
  C   C1507     1.0  0.34559  0.64379  0.40235  1.0000
  H   H1804     1.0  0.34030  0.65449  0.38871  1.0000
  C   C1508     1.0  0.54496  0.60708  0.42410  1.0000
  C   C1509     1.0  0.64419  0.56046  0.10452  1.0000
  N   N102      1.0  0.51962  0.60737  0.30734  1.0000
  C   C1510     1.0  0.51851  0.58650  0.31989  1.0000
  C   C1511     1.0  0.52872  0.61881  0.31871  1.0000
  C   C1512     1.0  0.49824  0.61854  0.30568  1.0000
  C   C1513     1.0  0.53162  0.60541  0.28653  1.0000
  C   C1514     1.0  0.52472  0.59509  0.27368  1.0000
  C   C1515     1.0  0.55019  0.61362  0.27834  1.0000
  C   C1516     1.0  0.53551  0.59340  0.25383  1.0000
  C   C1517     1.0  0.56072  0.61200  0.25835  1.0000
  C   C1518     1.0  0.55323  0.60215  0.24607  1.0000
  H   H1805     1.0  0.53437  0.57741  0.32090  1.0000
  H   H1806     1.0  0.51015  0.58740  0.33590  1.0000
  H   H1807     1.0  0.51017  0.57746  0.31346  1.0000
  H   H1808     1.0  0.54460  0.61083  0.32113  1.0000
  H   H1809     1.0  0.51940  0.61987  0.33433  1.0000
  H   H1810     1.0  0.52935  0.63496  0.31055  1.0000
  H   H1811     1.0  0.48939  0.60983  0.29944  1.0000
  H   H1812     1.0  0.48906  0.62137  0.32091  1.0000
  H   H1813     1.0  0.49841  0.63382  0.29527  1.0000
  H   H1814     1.0  0.51081  0.58837  0.27880  1.0000
  H   H1815     1.0  0.55691  0.62141  0.28699  1.0000
  H   H1816     1.0  0.53006  0.58538  0.24429  1.0000
  H   H1817     1.0  0.57481  0.61838  0.25224  1.0000
  H   H1818     1.0  0.56123  0.60122  0.23049  1.0000
  C   C1519     1.0  0.37434  0.72523  0.44588  1.0000
  H   H1819     1.0  0.62793  0.61412  0.30165  1.0000
  C   C1520     1.0  0.53395  0.50659  0.22290  1.0000
  S   S413      1.0  0.65206  0.60568  0.01402  1.0000
  H   H1820     1.0  0.48906  0.50852  0.20632  1.0000
  H   H1821     1.0  0.41652  0.64408  0.44815  1.0000
  C   C1521     1.0  0.37799  0.67758  0.30594  1.0000
  C   C1522     1.0  0.62341  0.53358  0.19450  1.0000
  C   C1523     1.0  0.64874  0.58488  0.30452  1.0000
  C   C1524     1.0  0.42344  0.70101  0.44084  1.0000
  H   H1822     1.0  0.32855  0.55438  0.43210  1.0000
  H   H1823     1.0  0.61627  0.54670  0.20277  1.0000
  H   H1824     1.0  0.35207  0.66195  0.31817  1.0000
  H   H1825     1.0  0.45787  0.65060  0.40636  1.0000
  C   C1525     1.0  0.50889  0.59387  0.42192  1.0000
  H   H1826     1.0  0.40773  0.64503  0.39472  1.0000
  H   H1827     1.0  0.36762  0.60974  0.42217  1.0000
  S   S414      1.0  0.62157  0.54340  0.33119  1.0000
  S   S415      1.0  0.58309  0.50821  0.18445  1.0000
  H   H1828     1.0  0.36529  0.59993  0.38271  1.0000
  C   C1526     1.0  0.36412  0.69264  0.46456  1.0000
  C   C1527     1.0  0.63861  0.55606  0.16524  1.0000
  H   H1829     1.0  0.44241  0.68221  0.38446  1.0000
  H   H1830     1.0  0.49490  0.52650  0.21960  1.0000
  C   C1528     1.0  0.38931  0.65092  0.27640  1.0000
  C   C1529     1.0  0.35313  0.70947  0.00403  1.0000
  N   N103      1.0  0.51668  0.49776  0.21965  1.0000
  S   S416      1.0  0.64121  0.54039  0.27469  1.0000
  H   H1831     1.0  0.36960  0.70972  0.00184  1.0000
  C   C1530     1.0  0.50190  0.51463  0.20969  1.0000
  C   C1531     1.0  0.59469  0.71325  0.45830  1.0000
  C   C1532     1.0  0.32543  0.61898  0.39891  1.0000
  C   C1533     1.0  0.63204  0.52311  0.06451  1.0000
  H   H1832     1.0  0.41505  0.63187  0.23245  1.0000
  C   C1534     1.0  0.33883  0.72336  0.01504  1.0000
  H   H1833     1.0  0.42456  0.71717  0.43907  1.0000
  H   H1834     1.0  0.39244  0.66450  0.40825  1.0000
  H   H1835     1.0  0.33491  0.60463  0.37120  1.0000
  C   C1535     1.0  0.63982  0.55160  0.03714  1.0000
  H   H1836     1.0  0.55753  0.54602  0.41631  1.0000
  C   C1536     1.0  0.62920  0.49635  0.25097  1.0000
  H   H1837     1.0  0.36119  0.64668  0.40293  1.0000
  N   N104      1.0  0.52919  0.56314  0.40640  1.0000
  C   C1537     1.0  0.51616  0.54901  0.42080  1.0000
  C   C1538     1.0  0.55047  0.55103  0.40216  1.0000
  C   C1539     1.0  0.52832  0.58176  0.41520  1.0000
  C   C1540     1.0  0.37133  0.64987  0.29192  1.0000
  C   C1541     1.0  0.54639  0.58902  0.41639  1.0000
  H   H1838     1.0  0.42678  0.64101  0.24888  1.0000
  S   S417      1.0  0.64364  0.49659  0.37161  1.0000
  H   H1839     1.0  0.54612  0.49414  0.22897  1.0000
  S   S418      1.0  0.33136  0.57518  0.46399  1.0000
  C   C1542     1.0  0.64953  0.49810  0.24171  1.0000
  C   C1543     1.0  0.36828  0.71229  0.46453  1.0000
  H   H1840     1.0  0.63029  0.56951  0.17277  1.0000
  H   H1841     1.0  0.49990  0.50162  0.25006  1.0000
  Fe  Fe218     1.0  0.34732  0.64134  0.47352  1.0000
  H   H1842     1.0  0.51726  0.70977  0.43720  1.0000
  H   H1843     1.0  0.64895  0.69936  0.97831  1.0000
  C   C1544     1.0  0.41635  0.66906  0.46278  1.0000
  C   C1545     1.0  0.63651  0.60224  0.31178  1.0000
  H   H1844     1.0  0.53986  0.50301  0.18069  1.0000
  H   H1845     1.0  0.62564  0.51941  0.20638  1.0000
  H   H1846     1.0  0.63594  0.56635  0.02749  1.0000
  S   S419      1.0  0.55473  0.71552  0.45145  1.0000
  C   C1546     1.0  0.48420  0.72291  0.41934  1.0000
  H   H1847     1.0  0.55779  0.72800  0.34766  1.0000
  H   H1848     1.0  0.49904  0.72204  0.40814  1.0000
  H   H1849     1.0  0.63916  0.54323  0.36745  1.0000
  C   C1547     1.0  0.40000  0.73100  0.34607  1.0000
  C   C1548     1.0  0.32520  0.69603  0.99724  1.0000
  H   H1850     1.0  0.65383  0.57224  0.24175  1.0000
  C   C1549     1.0  0.65242  0.51274  0.05982  1.0000
  H   H1851     1.0  0.65288  0.56071  0.15516  1.0000
  H   H1852     1.0  0.64948  0.58319  0.28874  1.0000
  C   C1550     1.0  0.56870  0.48319  0.29013  1.0000
  C   C1551     1.0  0.64591  0.58876  0.34535  1.0000
  C   C1552     1.0  0.46606  0.73122  0.45238  1.0000
  C   C1553     1.0  0.53645  0.48756  0.18620  1.0000
  H   H1853     1.0  0.33819  0.48592  0.29117  1.0000
  H   H1854     1.0  0.60314  0.73183  0.40319  1.0000
  H   H1855     1.0  0.38240  0.62816  0.74361  1.0000
  C   C1554     1.0  0.33546  0.59290  0.63007  1.0000
  Fe  Fe219     1.0  0.33060  0.60114  0.48074  1.0000
  S   S420      1.0  0.62919  0.62988  0.83799  1.0000
  H   H1856     1.0  0.58801  0.69615  0.50685  1.0000
  H   H1857     1.0  0.49945  0.69348  0.81654  1.0000
  Fe  Fe220     1.0  0.51327  0.64476  0.74588  1.0000
  S   S421      1.0  0.51665  0.61755  0.77140  1.0000
  S   S422      1.0  0.50441  0.64438  0.71503  1.0000
  Fe  Fe221     1.0  0.52164  0.67365  0.77208  1.0000
  S   S423      1.0  0.52410  0.64857  0.79985  1.0000
  S   S424      1.0  0.52427  0.70635  0.77353  1.0000
  Fe  Fe222     1.0  0.54367  0.62965  0.77670  1.0000
  S   S425      1.0  0.57469  0.60901  0.78068  1.0000
  Fe  Fe223     1.0  0.49694  0.63913  0.79189  1.0000
  S   S426      1.0  0.46785  0.62850  0.81086  1.0000
  S   S427      1.0  0.54220  0.65519  0.74914  1.0000
  S   S428      1.0  0.49255  0.66602  0.76618  1.0000
  Fe  Fe224     1.0  0.40837  0.55839  0.65623  1.0000
  S   S429      1.0  0.38465  0.58572  0.64673  1.0000
  S   S430      1.0  0.40188  0.52616  0.65796  1.0000
  Fe  Fe225     1.0  0.43501  0.58531  0.66807  1.0000
  S   S431      1.0  0.41332  0.61460  0.65843  1.0000
  S   S432      1.0  0.46023  0.58157  0.68764  1.0000
  Fe  Fe226     1.0  0.38782  0.59703  0.67445  1.0000
  S   S433      1.0  0.36163  0.61109  0.69681  1.0000
  Fe  Fe227     1.0  0.41210  0.60076  0.63120  1.0000
  S   S434      1.0  0.40988  0.62152  0.60025  1.0000
  S   S435      1.0  0.40914  0.56851  0.68562  1.0000
  S   S436      1.0  0.43618  0.57257  0.63917  1.0000
  C   C1555     1.0  0.34882  0.62456  0.61344  1.0000
  H   H1858     1.0  0.40528  0.54492  0.61447  1.0000
  Fe  Fe228     1.0  0.34758  0.61241  0.51495  1.0000
  S   S437      1.0  0.36210  0.59364  0.54209  1.0000
  Fe  Fe229     1.0  0.33976  0.67142  0.88534  1.0000
  S   S438      1.0  0.35792  0.66845  0.91077  1.0000
  Fe  Fe230     1.0  0.34896  0.71506  0.86725  1.0000
  S   S439      1.0  0.36774  0.71473  0.89103  1.0000
  C   C1556     1.0  0.54796  0.58132  0.71215  1.0000
  Fe  Fe231     1.0  0.38144  0.68246  0.88577  1.0000
  S   S440      1.0  0.41601  0.67246  0.88420  1.0000
  Fe  Fe232     1.0  0.34267  0.70120  0.91365  1.0000
  C   C1557     1.0  0.34647  0.59300  0.71147  1.0000
  S   S441      1.0  0.36447  0.68363  0.86019  1.0000
  H   H1859     1.0  0.33658  0.54826  0.66629  1.0000
  H   H1860     1.0  0.38709  0.72211  0.84924  1.0000
  H   H1861     1.0  0.43870  0.71224  0.49935  1.0000
  C   C1558     1.0  0.34276  0.51871  0.53599  1.0000
  H   H1862     1.0  0.37213  0.54040  0.71867  1.0000
  H   H1863     1.0  0.61820  0.72241  0.96874  1.0000
  H   H1864     1.0  0.36028  0.68238  0.47894  1.0000
  C   C1559     1.0  0.38972  0.51596  0.77233  1.0000
  C   C1560     1.0  0.38038  0.51820  0.75519  1.0000
  C   C1561     1.0  0.56347  0.73181  0.79469  1.0000
  C   C1562     1.0  0.39716  0.61373  0.58362  1.0000
  C   C1563     1.0  0.39334  0.59353  0.58712  1.0000
  C   C1564     1.0  0.38294  0.58763  0.57395  1.0000
  C   C1565     1.0  0.37582  0.60196  0.55745  1.0000
  C   C1566     1.0  0.37948  0.62224  0.55396  1.0000
  C   C1567     1.0  0.39029  0.62806  0.56695  1.0000
  H   H1865     1.0  0.39860  0.58237  0.59985  1.0000
  H   H1866     1.0  0.38030  0.57188  0.57665  1.0000
  H   H1867     1.0  0.37408  0.63339  0.54127  1.0000
  H   H1868     1.0  0.39317  0.64373  0.56420  1.0000
  H   H1869     1.0  0.35013  0.55465  0.60062  1.0000
  H   H1870     1.0  0.38372  0.52634  0.78332  1.0000
  C   C1568     1.0  0.34526  0.56170  0.61428  1.0000
  C   C1569     1.0  0.45390  0.64198  0.83045  1.0000
  C   C1570     1.0  0.46385  0.64674  0.84457  1.0000
  C   C1571     1.0  0.45209  0.65613  0.86105  1.0000
  C   C1572     1.0  0.43041  0.66102  0.86328  1.0000
  C   C1573     1.0  0.42058  0.65662  0.84888  1.0000
  C   C1574     1.0  0.43225  0.64687  0.83267  1.0000
  H   H1871     1.0  0.48055  0.64264  0.84312  1.0000
  H   H1872     1.0  0.45978  0.65942  0.87221  1.0000
  H   H1873     1.0  0.40402  0.66069  0.85026  1.0000
  H   H1874     1.0  0.42453  0.64325  0.82173  1.0000
  C   C1575     1.0  0.49028  0.62746  0.70894  1.0000
  C   C1576     1.0  0.48167  0.63336  0.69084  1.0000
  C   C1577     1.0  0.47162  0.61992  0.68457  1.0000
  C   C1578     1.0  0.47053  0.60009  0.69607  1.0000
  C   C1579     1.0  0.47890  0.59428  0.71432  1.0000
  C   C1580     1.0  0.48843  0.60795  0.72090  1.0000
  H   H1875     1.0  0.48302  0.64837  0.68142  1.0000
  H   H1876     1.0  0.46543  0.62461  0.67043  1.0000
  H   H1877     1.0  0.47831  0.57896  0.72330  1.0000
  H   H1878     1.0  0.49498  0.60310  0.73482  1.0000
  C   C1581     1.0  0.61477  0.62409  0.82137  1.0000
  C   C1582     1.0  0.62107  0.60642  0.81224  1.0000
  C   C1583     1.0  0.60875  0.60203  0.79973  1.0000
  C   C1584     1.0  0.59006  0.61525  0.79618  1.0000
  C   C1585     1.0  0.58399  0.63310  0.80503  1.0000
  C   C1586     1.0  0.59625  0.63746  0.81757  1.0000
  H   H1879     1.0  0.63526  0.59596  0.81506  1.0000
  H   H1880     1.0  0.61362  0.58820  0.79297  1.0000
  H   H1881     1.0  0.56980  0.64356  0.80230  1.0000
  H   H1882     1.0  0.59129  0.65126  0.82436  1.0000
  C   C1587     1.0  0.62909  0.70913  0.90219  1.0000
  C   C1588     1.0  0.58293  0.69984  0.78458  1.0000
  C   C1589     1.0  0.38721  0.50419  0.74108  1.0000
  S   S442      1.0  0.59999  0.67774  0.96571  1.0000
  S   S443      1.0  0.33607  0.64662  0.50618  1.0000
  C   C1590     1.0  0.60792  0.71446  0.90973  1.0000
  H   H1883     1.0  0.45698  0.64194  0.76990  1.0000
  H   H1884     1.0  0.44236  0.68923  0.82620  1.0000
  C   C1591     1.0  0.56051  0.69253  0.89391  1.0000
  H   H1885     1.0  0.55318  0.56001  0.75154  1.0000
  H   H1886     1.0  0.34262  0.55865  0.55917  1.0000
  C   C1592     1.0  0.55733  0.60860  0.72622  1.0000
  H   H1887     1.0  0.40187  0.60932  0.70466  1.0000
  H   H1888     1.0  0.35317  0.57371  0.68842  1.0000
  H   H1889     1.0  0.43725  0.61511  0.79020  1.0000
  H   H1890     1.0  0.39741  0.72724  0.79181  1.0000
  H   H1891     1.0  0.39562  0.52865  0.70414  1.0000
  S   S444      1.0  0.36143  0.60801  0.48244  1.0000
  H   H1892     1.0  0.37818  0.49415  0.69605  1.0000
  C   C1593     1.0  0.43493  0.63368  0.73217  1.0000
  C   C1594     1.0  0.56502  0.69568  0.77964  1.0000
  C   C1595     1.0  0.54646  0.70994  0.78159  1.0000
  C   C1596     1.0  0.33244  0.56170  0.71534  1.0000
  H   H1893     1.0  0.35037  0.62208  0.59742  1.0000
  H   H1894     1.0  0.56573  0.68167  0.77388  1.0000
  C   C1597     1.0  0.64137  0.69343  0.91391  1.0000
  C   C1598     1.0  0.63258  0.68350  0.93335  1.0000
  H   H1895     1.0  0.36744  0.53076  0.75330  1.0000
  H   H1896     1.0  0.64747  0.66325  0.84656  1.0000
  C   C1599     1.0  0.38305  0.50804  0.60362  1.0000
  C   C1600     1.0  0.39244  0.52553  0.60051  1.0000
  C   C1601     1.0  0.39757  0.53175  0.61714  1.0000
  C   C1602     1.0  0.39349  0.52041  0.63703  1.0000
  C   C1603     1.0  0.38357  0.50331  0.64020  1.0000
  C   C1604     1.0  0.37833  0.49711  0.62361  1.0000
  H   H1897     1.0  0.39628  0.53401  0.58509  1.0000
  H   H1898     1.0  0.60829  0.62876  0.93378  1.0000
  H   H1899     1.0  0.59600  0.65194  0.86327  1.0000
  H   H1900     1.0  0.34740  0.48386  0.66330  1.0000
  H   H1901     1.0  0.41611  0.59991  0.77404  1.0000
  C   C1605     1.0  0.52776  0.59183  0.68411  1.0000
  C   C1606     1.0  0.38892  0.61142  0.74406  1.0000
  N   N105      1.0  0.41094  0.60840  0.73364  1.0000
  C   C1607     1.0  0.62296  0.64834  0.89555  1.0000
  H   H1902     1.0  0.37119  0.53037  0.69656  1.0000
  H   H1903     1.0  0.36389  0.61762  0.61854  1.0000
  C   C1608     1.0  0.52590  0.57140  0.68512  1.0000
  H   H1904     1.0  0.42722  0.61447  0.70235  1.0000
  H   H1905     1.0  0.40466  0.63378  0.70882  1.0000
  H   H1906     1.0  0.63995  0.66933  0.81229  1.0000
  H   H1907     1.0  0.33222  0.51059  0.54862  1.0000
  C   C1609     1.0  0.44188  0.72192  0.48439  1.0000
  H   H1908     1.0  0.45036  0.48609  0.59761  1.0000
  C   C1610     1.0  0.35473  0.50576  0.73008  1.0000
  H   H1909     1.0  0.38686  0.60363  0.76042  1.0000
  N   N106      1.0  0.47053  0.71531  0.81794  1.0000
  C   C1611     1.0  0.58109  0.57688  0.72295  1.0000
  H   H1910     1.0  0.61014  0.61071  0.90785  1.0000
  C   C1612     1.0  0.59791  0.64223  0.92642  1.0000
  H   H1911     1.0  0.36303  0.53706  0.55615  1.0000
  H   H1912     1.0  0.55150  0.69659  0.50519  1.0000
  H   H1913     1.0  0.41271  0.49752  0.78971  1.0000
  H   H1914     1.0  0.34673  0.49568  0.79426  1.0000
  H   H1915     1.0  0.53257  0.58194  0.75127  1.0000
  C   C1613     1.0  0.35905  0.48438  0.80015  1.0000
  C   C1614     1.0  0.41917  0.58589  0.73552  1.0000
  H   H1916     1.0  0.47704  0.68188  0.82118  1.0000
  H   H1917     1.0  0.45732  0.70110  0.84851  1.0000
  C   C1615     1.0  0.35376  0.55106  0.51984  1.0000
  C   C1616     1.0  0.48365  0.69573  0.81276  1.0000
  C   C1617     1.0  0.46610  0.71374  0.84063  1.0000
  C   C1618     1.0  0.54975  0.57717  0.74837  1.0000
  C   C1619     1.0  0.33770  0.55811  0.65124  1.0000
  C   C1620     1.0  0.57575  0.70639  0.51495  1.0000
  C   C1621     1.0  0.41304  0.48565  0.76253  1.0000
  C   C1622     1.0  0.32892  0.62323  0.64748  1.0000
  H   H1918     1.0  0.35266  0.49063  0.74014  1.0000
  H   H1919     1.0  0.60612  0.62248  0.88267  1.0000
  H   H1920     1.0  0.35087  0.56802  0.51936  1.0000
  H   H1921     1.0  0.58360  0.55976  0.72467  1.0000
  H   H1922     1.0  0.32705  0.64038  0.64518  1.0000
  C   C1623     1.0  0.41127  0.61698  0.71144  1.0000
  H   H1923     1.0  0.34630  0.51811  0.73888  1.0000
  S   S445      1.0  0.32634  0.55499  0.79820  1.0000
  C   C1624     1.0  0.33590  0.59566  0.73123  1.0000
  C   C1625     1.0  0.53539  0.55576  0.69903  1.0000
  H   H1924     1.0  0.59734  0.68896  0.78261  1.0000
  C   C1626     1.0  0.43633  0.62035  0.77402  1.0000
  C   C1627     1.0  0.37903  0.52750  0.71013  1.0000
  H   H1925     1.0  0.35894  0.51078  0.53727  1.0000
  C   C1628     1.0  0.61153  0.68934  0.94118  1.0000
  H   H1926     1.0  0.58166  0.64027  0.93332  1.0000
  C   C1629     1.0  0.58076  0.71985  0.52555  1.0000
  H   H1927     1.0  0.36729  0.71730  0.47893  1.0000
  H   H1928     1.0  0.32392  0.69515  0.49228  1.0000
  S   S446      1.0  0.32837  0.71514  0.94251  1.0000
  H   H1929     1.0  0.46144  0.48830  0.62775  1.0000
  C   C1630     1.0  0.32417  0.58098  0.74330  1.0000
  N   N107      1.0  0.38596  0.60511  0.86360  1.0000
  C   C1631     1.0  0.37272  0.60254  0.88425  1.0000
  C   C1632     1.0  0.40742  0.60480  0.86648  1.0000
  C   C1633     1.0  0.37871  0.62588  0.85199  1.0000
  C   C1634     1.0  0.38432  0.58868  0.85280  1.0000
  C   C1635     1.0  0.36527  0.58824  0.84706  1.0000
  C   C1636     1.0  0.40091  0.57210  0.84874  1.0000
  C   C1637     1.0  0.36283  0.57225  0.83804  1.0000
  C   C1638     1.0  0.39830  0.55611  0.83974  1.0000
  C   C1639     1.0  0.37928  0.55612  0.83452  1.0000
  H   H1930     1.0  0.37770  0.58724  0.89368  1.0000
  H   H1931     1.0  0.37309  0.61482  0.89289  1.0000
  H   H1932     1.0  0.35617  0.60355  0.88333  1.0000
  H   H1933     1.0  0.41338  0.59045  0.87672  1.0000
  H   H1934     1.0  0.40821  0.61785  0.87391  1.0000
  H   H1935     1.0  0.41831  0.60635  0.85148  1.0000
  H   H1936     1.0  0.36204  0.62854  0.85091  1.0000
  H   H1937     1.0  0.38006  0.63837  0.85980  1.0000
  H   H1938     1.0  0.38780  0.62831  0.83611  1.0000
  H   H1939     1.0  0.35189  0.60008  0.84988  1.0000
  H   H1940     1.0  0.41596  0.57097  0.85262  1.0000
  H   H1941     1.0  0.34796  0.57221  0.83408  1.0000
  H   H1942     1.0  0.41101  0.54342  0.83708  1.0000
  H   H1943     1.0  0.37715  0.54347  0.82797  1.0000
  H   H1944     1.0  0.62435  0.66383  0.89802  1.0000
  C   C1640     1.0  0.40380  0.48771  0.74534  1.0000
  H   H1945     1.0  0.37905  0.60503  0.73649  1.0000
  C   C1641     1.0  0.58601  0.66266  0.87248  1.0000
  C   C1642     1.0  0.58222  0.71792  0.79212  1.0000
  H   H1946     1.0  0.42345  0.49134  0.60869  1.0000
  H   H1947     1.0  0.55595  0.58227  0.76017  1.0000
  C   C1643     1.0  0.44676  0.64220  0.74180  1.0000
  H   H1948     1.0  0.56506  0.61621  0.71109  1.0000
  C   C1644     1.0  0.34605  0.54238  0.55659  1.0000
  C   C1645     1.0  0.43798  0.70348  0.81602  1.0000
  C   C1646     1.0  0.41907  0.70643  0.80930  1.0000
  H   H1949     1.0  0.40276  0.49164  0.70329  1.0000
  H   H1950     1.0  0.58412  0.62092  0.90317  1.0000
  H   H1951     1.0  0.56496  0.61173  0.73810  1.0000
  C   C1647     1.0  0.34090  0.58323  0.61245  1.0000
  H   H1952     1.0  0.33941  0.51637  0.52131  1.0000
  S   S447      1.0  0.37904  0.49954  0.58198  1.0000
  H   H1953     1.0  0.34728  0.53251  0.63502  1.0000
  H   H1954     1.0  0.43552  0.63929  0.71589  1.0000
  H   H1955     1.0  0.51685  0.56776  0.67528  1.0000
  H   H1956     1.0  0.33096  0.54866  0.70911  1.0000
  S   S448      1.0  0.60520  0.72370  0.79670  1.0000
  C   C1648     1.0  0.34037  0.73162  0.95168  1.0000
  H   H1957     1.0  0.63992  0.71209  0.84029  1.0000
  C   C1649     1.0  0.34373  0.54918  0.63364  1.0000
  C   C1650     1.0  0.57394  0.67662  0.90398  1.0000
  C   C1651     1.0  0.38607  0.49129  0.70960  1.0000
  C   C1652     1.0  0.59922  0.70467  0.92921  1.0000
  H   H1958     1.0  0.38009  0.49472  0.65558  1.0000
  H   H1959     1.0  0.35218  0.54840  0.50464  1.0000
  C   C1653     1.0  0.53861  0.59684  0.69735  1.0000
  H   H1960     1.0  0.37037  0.54532  0.52113  1.0000
  H   H1961     1.0  0.41228  0.66029  0.47806  1.0000
  H   H1962     1.0  0.60107  0.65593  0.93116  1.0000
  H   H1963     1.0  0.52339  0.72008  0.52336  1.0000
  H   H1964     1.0  0.45589  0.65372  0.73293  1.0000
  C   C1654     1.0  0.36587  0.48650  0.81764  1.0000
  C   C1655     1.0  0.45080  0.71879  0.81014  1.0000
  H   H1965     1.0  0.53395  0.53985  0.69970  1.0000
  H   H1966     1.0  0.53882  0.61310  0.69604  1.0000
  H   H1967     1.0  0.63465  0.63657  0.90319  1.0000
  H   H1968     1.0  0.52009  0.60400  0.67347  1.0000
  C   C1656     1.0  0.55960  0.69337  0.87335  1.0000
  N   N108      1.0  0.37704  0.50698  0.72303  1.0000
  N   N109      1.0  0.55879  0.58607  0.72708  1.0000
  C   C1657     1.0  0.36193  0.73041  0.94798  1.0000
  H   H1969     1.0  0.40942  0.69461  0.81442  1.0000
  H   H1970     1.0  0.41089  0.57817  0.72754  1.0000
  H   H1971     1.0  0.55740  0.71176  0.73576  1.0000
  H   H1972     1.0  0.55344  0.54790  0.72280  1.0000
  N   N110      1.0  0.60166  0.64411  0.90366  1.0000
  H   H1973     1.0  0.34659  0.50735  0.71693  1.0000
  C   C1658     1.0  0.42435  0.61177  0.76460  1.0000
  H   H1974     1.0  0.54934  0.70592  0.86559  1.0000
  H   H1975     1.0  0.48062  0.71065  0.84709  1.0000
  C   C1659     1.0  0.34489  0.57591  0.70359  1.0000
  H   H1976     1.0  0.55096  0.70459  0.90193  1.0000
  C   C1660     1.0  0.40604  0.49972  0.77597  1.0000
  H   H1977     1.0  0.58290  0.70919  0.93511  1.0000
  C   C1661     1.0  0.58688  0.66091  0.89362  1.0000
  C   C1662     1.0  0.57245  0.67857  0.86260  1.0000
  H   H1978     1.0  0.37171  0.71969  0.93855  1.0000
  C   C1663     1.0  0.54640  0.56056  0.71226  1.0000
  N   N111      1.0  0.33964  0.54086  0.53729  1.0000
  H   H1979     1.0  0.41768  0.57779  0.75176  1.0000
  H   H1980     1.0  0.65001  0.65312  0.78205  1.0000
  C   C1664     1.0  0.44751  0.63551  0.76262  1.0000
  C   C1665     1.0  0.60039  0.62376  0.89914  1.0000
  H   H1981     1.0  0.34692  0.64159  0.61240  1.0000
  H   H1982     1.0  0.57214  0.67966  0.84642  1.0000
  S   S449      1.0  0.32644  0.64216  0.88703  1.0000
  H   H1983     1.0  0.43591  0.58303  0.72850  1.0000
  H   H1984     1.0  0.57405  0.67718  0.91980  1.0000
  H   H1985     1.0  0.62731  0.64819  0.87875  1.0000
  H   H1986     1.0  0.58840  0.58300  0.70701  1.0000
  H   H1987     1.0  0.58972  0.58041  0.73382  1.0000
  H   H1988     1.0  0.54087  0.61648  0.72905  1.0000
  C   C1666     1.0  0.42332  0.61813  0.74334  1.0000
  H   H1989     1.0  0.63055  0.69594  0.82833  1.0000
  S   S450      1.0  0.35389  0.50669  0.83111  1.0000
  C   C1667     1.0  0.54578  0.72802  0.78909  1.0000
  S   S451      1.0  0.59421  0.72596  0.85380  1.0000
  S   S452      1.0  0.64503  0.63059  0.96805  1.0000
  H   H1990     1.0  0.59710  0.71916  0.52505  1.0000
  S   S453      1.0  0.64051  0.72257  0.87859  1.0000
  C   C1668     1.0  0.48287  0.73209  0.80920  1.0000
  H   H1991     1.0  0.59164  0.71637  0.71472  1.0000
  H   H1992     1.0  0.33844  0.53245  0.57026  1.0000
  H   H1993     1.0  0.65403  0.67884  0.86193  1.0000
  H   H1994     1.0  0.64219  0.67176  0.94248  1.0000
  C   C1669     1.0  0.64543  0.57109  0.96127  1.0000
  H   H1995     1.0  0.48560  0.69559  0.79603  1.0000
  H   H1996     1.0  0.56784  0.72836  0.57553  1.0000
  H   H1997     1.0  0.34202  0.59224  0.59707  1.0000
  C   C1670     1.0  0.55517  0.70663  0.51400  1.0000
  H   H1998     1.0  0.64591  0.71434  0.81276  1.0000
  Fe  Fe233     1.0  0.32504  0.52526  0.82037  1.0000
  C   C1671     1.0  0.64423  0.70316  0.82751  1.0000
  H   H1999     1.0  0.43524  0.49478  0.64033  1.0000
  S   S454      1.0  0.32507  0.48517  0.58931  1.0000
  H   H2000     1.0  0.63651  0.60211  0.94549  1.0000
  C   C1672     1.0  0.57823  0.72834  0.71248  1.0000
  C   C1673     1.0  0.33345  0.57963  0.64960  1.0000
  H   H2001     1.0  0.33693  0.60897  0.73731  1.0000
  C   C1674     1.0  0.53940  0.72000  0.52409  1.0000
  H   H2002     1.0  0.37124  0.48354  0.62624  1.0000
  H   H2003     1.0  0.59830  0.72649  0.90079  1.0000
  H   H2004     1.0  0.49786  0.72871  0.81490  1.0000
  C   C1675     1.0  0.41234  0.72475  0.79655  1.0000
  H   H2005     1.0  0.47289  0.70638  0.47834  1.0000
  H   H2006     1.0  0.34275  0.61685  0.65506  1.0000
  C   C1676     1.0  0.65085  0.70959  0.96364  1.0000
  C   C1677     1.0  0.55897  0.72570  0.72438  1.0000
  C   C1678     1.0  0.63294  0.72287  0.95834  1.0000
  H   H2007     1.0  0.45670  0.72841  0.84508  1.0000
  N   N112      1.0  0.33143  0.61577  0.62774  1.0000
  C   C1679     1.0  0.64614  0.58721  0.94426  1.0000
  H   H2008     1.0  0.32888  0.58546  0.66388  1.0000
  C   C1680     1.0  0.65569  0.66918  0.80403  1.0000
  S   S455      1.0  0.37760  0.97035  0.26646  1.0000
  Fe  Fe234     1.0  0.39424  0.80801  0.38725  1.0000
  S   S456      1.0  0.41012  0.79218  0.41394  1.0000
  Fe  Fe235     1.0  0.40370  0.76929  0.36848  1.0000
  S   S457      1.0  0.42016  0.75014  0.39361  1.0000
  S   S458      1.0  0.40574  0.75607  0.34021  1.0000
  Fe  Fe236     1.0  0.39396  0.76591  0.41476  1.0000
  S   S459      1.0  0.38066  0.74925  0.44597  1.0000
  Fe  Fe237     1.0  0.43460  0.77795  0.39052  1.0000
  S   S460      1.0  0.46892  0.77406  0.38836  1.0000
  S   S461      1.0  0.37590  0.78286  0.38978  1.0000
  S   S462      1.0  0.42031  0.79598  0.36371  1.0000
  Fe  Fe238     1.0  0.53390  0.82405  0.29471  1.0000
  S   S463      1.0  0.54624  0.83926  0.31479  1.0000
  S   S464      1.0  0.53702  0.78958  0.29829  1.0000
  Fe  Fe239     1.0  0.50791  0.86427  0.27595  1.0000
  S   S465      1.0  0.51870  0.88294  0.29445  1.0000
  S   S466      1.0  0.48059  0.88009  0.25958  1.0000
  Fe  Fe240     1.0  0.55051  0.86405  0.28696  1.0000
  S   S467      1.0  0.58063  0.87694  0.27868  1.0000
  Fe  Fe241     1.0  0.51387  0.85673  0.32060  1.0000
  S   S468      1.0  0.49620  0.86045  0.35202  1.0000
  S   S469      1.0  0.54031  0.84749  0.26590  1.0000
  S   S470      1.0  0.50106  0.83942  0.30298  1.0000
  C   C1681     1.0  0.45496  0.80370  0.26551  1.0000
  C   C1682     1.0  0.57517  0.93258  0.30433  1.0000
  H   H2009     1.0  0.43174  0.92246  0.26817  1.0000
  C   C1683     1.0  0.65467  0.87773  0.44914  1.0000
  S   S471      1.0  0.62468  0.89604  0.34562  1.0000
  H   H2010     1.0  0.44309  0.85179  0.28021  1.0000
  Fe  Fe242     1.0  0.34307  0.82891  0.02598  1.0000
  S   S472      1.0  0.34706  0.84618  0.05029  1.0000
  Fe  Fe243     1.0  0.35107  0.79628  0.99760  1.0000
  S   S473      1.0  0.36370  0.82543  0.99528  1.0000
  Fe  Fe244     1.0  0.39799  0.89468  0.14928  1.0000
  S   S474      1.0  0.37236  0.87798  0.14910  1.0000
  S   S475      1.0  0.39974  0.92683  0.13133  1.0000
  Fe  Fe245     1.0  0.42039  0.85919  0.17727  1.0000
  S   S476      1.0  0.39687  0.83928  0.17883  1.0000
  S   S477      1.0  0.44798  0.84554  0.19366  1.0000
  Fe  Fe246     1.0  0.39774  0.85075  0.14484  1.0000
  S   S478      1.0  0.39885  0.82840  0.12329  1.0000
  Fe  Fe247     1.0  0.37348  0.86800  0.18279  1.0000
  S   S479      1.0  0.34581  0.86546  0.20796  1.0000
  S   S480      1.0  0.42364  0.86810  0.14278  1.0000
  S   S481      1.0  0.39675  0.88723  0.18354  1.0000
  C   C1684     1.0  0.36154  0.84053  0.07061  1.0000
  C   C1685     1.0  0.37441  0.82149  0.07533  1.0000
  C   C1686     1.0  0.38549  0.81790  0.09169  1.0000
  C   C1687     1.0  0.38372  0.83321  0.10359  1.0000
  C   C1688     1.0  0.37073  0.85217  0.09895  1.0000
  C   C1689     1.0  0.35985  0.85584  0.08248  1.0000
  H   H2011     1.0  0.37588  0.80956  0.06637  1.0000
  H   H2012     1.0  0.39549  0.80316  0.09516  1.0000
  H   H2013     1.0  0.36936  0.86415  0.10784  1.0000
  H   H2014     1.0  0.35022  0.87075  0.07880  1.0000
  C   C1690     1.0  0.47196  0.87045  0.24100  1.0000
  C   C1691     1.0  0.48263  0.85255  0.23357  1.0000
  C   C1692     1.0  0.47505  0.84518  0.21911  1.0000
  C   C1693     1.0  0.45689  0.85575  0.21167  1.0000
  C   C1694     1.0  0.44631  0.87381  0.21894  1.0000
  C   C1695     1.0  0.45378  0.88104  0.23360  1.0000
  H   H2015     1.0  0.49684  0.84449  0.23884  1.0000
  H   H2016     1.0  0.48343  0.83127  0.21349  1.0000
  H   H2017     1.0  0.43237  0.88215  0.21333  1.0000
  H   H2018     1.0  0.44538  0.89484  0.23935  1.0000
  C   C1696     1.0  0.59342  0.88061  0.29771  1.0000
  C   C1697     1.0  0.58335  0.88041  0.31812  1.0000
  C   C1698     1.0  0.59332  0.88499  0.33252  1.0000
  C   C1699     1.0  0.61354  0.88948  0.32683  1.0000
  C   C1700     1.0  0.62380  0.88927  0.30653  1.0000
  C   C1701     1.0  0.61370  0.88497  0.29203  1.0000
  H   H2019     1.0  0.56764  0.87743  0.32258  1.0000
  H   H2020     1.0  0.58513  0.88555  0.34807  1.0000
  C   C1702     1.0  0.46118  0.75398  0.33388  1.0000
  H   H2021     1.0  0.62155  0.88523  0.27626  1.0000
  H   H2022     1.0  0.61162  0.79927  0.44639  1.0000
  C   C1703     1.0  0.39155  0.85069  0.23794  1.0000
  H   H2023     1.0  0.36447  0.88590  0.24417  1.0000
  H   H2024     1.0  0.47278  0.73451  0.41135  1.0000
  H   H2025     1.0  0.36774  0.88452  0.27012  1.0000
  C   C1704     1.0  0.60314  0.74754  0.40607  1.0000
  H   H2026     1.0  0.44711  0.76453  0.33995  1.0000
  H   H2027     1.0  0.62836  0.97852  0.28246  1.0000
  H   H2028     1.0  0.35160  0.85331  0.27828  1.0000
  H   H2029     1.0  0.44177  0.93429  0.22574  1.0000
  C   C1705     1.0  0.32711  0.74158  0.43172  1.0000
  H   H2030     1.0  0.56174  0.92670  0.31385  1.0000
  C   C1706     1.0  0.36209  0.87509  0.36064  1.0000
  H   H2031     1.0  0.45006  0.90208  0.29530  1.0000
  H   H2032     1.0  0.36480  0.88444  0.37065  1.0000
  C   C1707     1.0  0.47701  0.79800  0.37982  1.0000
  C   C1708     1.0  0.49650  0.79901  0.36749  1.0000
  C   C1709     1.0  0.50231  0.81823  0.35884  1.0000
  C   C1710     1.0  0.48931  0.83640  0.36372  1.0000
  C   C1711     1.0  0.47023  0.83534  0.37688  1.0000
  C   C1712     1.0  0.46381  0.81616  0.38449  1.0000
  H   H2033     1.0  0.50679  0.78501  0.36387  1.0000
  H   H2034     1.0  0.51680  0.81889  0.34828  1.0000
  H   H2035     1.0  0.46011  0.84937  0.38065  1.0000
  H   H2036     1.0  0.44873  0.81544  0.39407  1.0000
  H   H2037     1.0  0.34945  0.95803  0.22368  1.0000
  C   C1713     1.0  0.34063  0.94988  0.15387  1.0000
  C   C1714     1.0  0.35886  0.93621  0.14827  1.0000
  C   C1715     1.0  0.37601  0.94372  0.13569  1.0000
  C   C1716     1.0  0.37445  0.96495  0.12773  1.0000
  C   C1717     1.0  0.32830  0.92662  0.20923  1.0000
  C   C1718     1.0  0.35178  0.88454  0.34407  1.0000
  H   H2038     1.0  0.35987  0.91991  0.15429  1.0000
  H   H2039     1.0  0.32717  0.76774  0.98312  1.0000
  C   C1719     1.0  0.42380  0.88808  0.31351  1.0000
  H   H2040     1.0  0.45001  0.90202  0.33058  1.0000
  H   H2041     1.0  0.37060  0.82503  0.35402  1.0000
  C   C1720     1.0  0.55217  0.77520  0.31650  1.0000
  C   C1721     1.0  0.56828  0.78286  0.32089  1.0000
  C   C1722     1.0  0.58089  0.77053  0.33467  1.0000
  H   H2042     1.0  0.40817  0.87166  0.35437  1.0000
  H   H2043     1.0  0.59861  0.96597  0.33561  1.0000
  H   H2044     1.0  0.57159  0.79787  0.31298  1.0000
  H   H2045     1.0  0.59372  0.77620  0.33757  1.0000
  C   C1723     1.0  0.62707  0.85970  0.44854  1.0000
  H   H2046     1.0  0.49591  0.78654  0.32297  1.0000
  H   H2047     1.0  0.34532  0.73376  0.02101  1.0000
  C   C1724     1.0  0.43400  0.90087  0.29652  1.0000
  C   C1725     1.0  0.64172  0.94334  0.30663  1.0000
  Fe  Fe248     1.0  0.32899  0.91855  0.30156  1.0000
  H   H2048     1.0  0.62512  0.96284  0.33816  1.0000
  H   H2049     1.0  0.64867  0.94373  0.29014  1.0000
  H   H2050     1.0  0.64131  0.92685  0.31372  1.0000
  C   C1726     1.0  0.63227  0.75091  0.37889  1.0000
  H   H2051     1.0  0.39635  0.83361  0.23944  1.0000
  H   H2052     1.0  0.33125  0.94108  0.19954  1.0000
  H   H2053     1.0  0.38998  0.88932  0.07507  1.0000
  H   H2054     1.0  0.35176  0.84162  0.32518  1.0000
  Fe  Fe249     1.0  0.33557  0.84114  0.98160  1.0000
  C   C1727     1.0  0.57974  0.93138  0.28349  1.0000
  C   C1728     1.0  0.42269  0.83288  0.30135  1.0000
  S   S482      1.0  0.38282  0.84232  0.38431  1.0000
  H   H2055     1.0  0.46210  0.85378  0.33491  1.0000
  N   N113      1.0  0.45217  0.84364  0.08520  1.0000
  C   C1729     1.0  0.44423  0.82820  0.07758  1.0000
  C   C1730     1.0  0.47235  0.84671  0.07188  1.0000
  C   C1731     1.0  0.45572  0.83461  0.10648  1.0000
  C   C1732     1.0  0.43791  0.86380  0.08515  1.0000
  C   C1733     1.0  0.41831  0.86776  0.07881  1.0000
  H   H2056     1.0  0.61144  0.76567  0.43821  1.0000
  C   C1734     1.0  0.41078  0.90239  0.08660  1.0000
  C   C1735     1.0  0.41240  0.94700  0.21582  1.0000
  H   H2057     1.0  0.45632  0.74313  0.32625  1.0000
  H   H2058     1.0  0.44155  0.83377  0.06147  1.0000
  H   H2059     1.0  0.45525  0.81323  0.07780  1.0000
  H   H2060     1.0  0.42947  0.82448  0.08746  1.0000
  C   C1736     1.0  0.40007  0.94918  0.20055  1.0000
  H   H2061     1.0  0.44078  0.83271  0.11709  1.0000
  H   H2062     1.0  0.46575  0.81906  0.10737  1.0000
  H   H2063     1.0  0.46325  0.84438  0.11291  1.0000
  H   H2064     1.0  0.41261  0.85628  0.07361  1.0000
  S   S483      1.0  0.33319  0.79801  0.02980  1.0000
  C   C1737     1.0  0.47458  0.80373  0.26921  1.0000
  N   N114      1.0  0.38077  0.85666  0.25795  1.0000
  C   C1738     1.0  0.44977  0.74700  0.44596  1.0000
  S   S484      1.0  0.33616  0.88374  0.30976  1.0000
  H   H2065     1.0  0.36361  0.83145  0.26540  1.0000
  H   H2066     1.0  0.41794  0.85117  0.33953  1.0000
  H   H2067     1.0  0.45795  0.87836  0.09708  1.0000
  H   H2068     1.0  0.48045  0.85643  0.07776  1.0000
  C   C1739     1.0  0.44098  0.92594  0.19704  1.0000
  H   H2069     1.0  0.56993  0.92455  0.27696  1.0000
  C   C1740     1.0  0.43001  0.89916  0.09255  1.0000
  C   C1741     1.0  0.42803  0.84706  0.28364  1.0000
  H   H2070     1.0  0.63954  0.89089  0.40245  1.0000
  H   H2071     1.0  0.45185  0.85388  0.31251  1.0000
  C   C1742     1.0  0.56070  0.74332  0.34036  1.0000
  H   H2072     1.0  0.63209  0.73609  0.43013  1.0000
  N   N115      1.0  0.62065  0.95598  0.30973  1.0000
  N   N116      1.0  0.43475  0.87674  0.33057  1.0000
  C   C1743     1.0  0.43972  0.89179  0.34111  1.0000
  C   C1744     1.0  0.36833  0.96286  0.18522  1.0000
  S   S485      1.0  0.61031  0.84197  0.46025  1.0000
  H   H2073     1.0  0.42663  0.79166  0.27677  1.0000
  H   H2074     1.0  0.41896  0.86594  0.25649  1.0000
  H   H2075     1.0  0.63934  0.89267  0.30192  1.0000
  H   H2076     1.0  0.38922  0.88712  0.24915  1.0000
  C   C1745     1.0  0.61417  0.95631  0.33213  1.0000
  C   C1746     1.0  0.49487  0.75055  0.31264  1.0000
  C   C1747     1.0  0.56927  0.74205  0.46889  1.0000
  H   H2077     1.0  0.48480  0.81297  0.25821  1.0000
  H   H2078     1.0  0.40022  0.91694  0.08777  1.0000
  H   H2079     1.0  0.35232  0.97200  0.18733  1.0000
  C   C1748     1.0  0.59740  0.93808  0.27128  1.0000
  H   H2080     1.0  0.38145  0.85579  0.22606  1.0000
  H   H2081     1.0  0.46754  0.74448  0.34756  1.0000
  H   H2082     1.0  0.32773  0.94399  0.16429  1.0000
  C   C1749     1.0  0.36903  0.85364  0.36417  1.0000
  H   H2083     1.0  0.36672  0.94746  0.18285  1.0000
  C   C1750     1.0  0.45444  0.86394  0.32238  1.0000
  H   H2084     1.0  0.44986  0.81309  0.25170  1.0000
  C   C1751     1.0  0.36542  0.84160  0.35127  1.0000
  H   H2085     1.0  0.39378  0.87793  0.32551  1.0000
  S   S486      1.0  0.59331  0.73495  0.36092  1.0000
  H   H2086     1.0  0.43767  0.77049  0.30761  1.0000
  C   C1752     1.0  0.44196  0.79161  0.27960  1.0000
  C   C1753     1.0  0.61662  0.77750  0.42574  1.0000
  N   N117      1.0  0.62428  0.75271  0.40083  1.0000
  H   H2087     1.0  0.48319  0.83175  0.07084  1.0000
  H   H2088     1.0  0.38770  0.97083  0.11790  1.0000
  H   H2089     1.0  0.43128  0.85406  0.35867  1.0000
  C   C1754     1.0  0.33418  0.88912  0.21568  1.0000
  C   C1755     1.0  0.43258  0.93567  0.21395  1.0000
  C   C1756     1.0  0.39246  0.89942  0.29783  1.0000
  H   H2090     1.0  0.45196  0.75711  0.43117  1.0000
  H   H2091     1.0  0.43421  0.91126  0.09837  1.0000
  H   H2092     1.0  0.35100  0.85471  0.25175  1.0000
  H   H2093     1.0  0.32482  0.88529  0.17066  1.0000
  C   C1757     1.0  0.44345  0.88022  0.09180  1.0000
  H   H2094     1.0  0.37709  0.97072  0.17080  1.0000
  N   N118      1.0  0.37859  0.96092  0.20311  1.0000
  H   H2095     1.0  0.43357  0.82634  0.31178  1.0000
  C   C1758     1.0  0.40344  0.82673  0.30546  1.0000
  H   H2096     1.0  0.37621  0.89911  0.29856  1.0000
  C   C1759     1.0  0.40275  0.88743  0.31349  1.0000
  H   H2097     1.0  0.41794  0.76206  0.45306  1.0000
  C   C1760     1.0  0.36094  0.84859  0.26373  1.0000
  C   C1761     1.0  0.40282  0.91211  0.28160  1.0000
  C   C1762     1.0  0.37543  0.87954  0.25521  1.0000
  C   C1763     1.0  0.33930  0.97114  0.14672  1.0000
  H   H2098     1.0  0.47016  0.85442  0.05599  1.0000
  H   H2099     1.0  0.48560  0.76064  0.42512  1.0000
  H   H2100     1.0  0.39465  0.92179  0.26977  1.0000
  C   C1764     1.0  0.39460  0.84877  0.27337  1.0000
  C   C1765     1.0  0.49523  0.74766  0.43392  1.0000
  H   H2101     1.0  0.42536  0.90189  0.34745  1.0000
  C   C1766     1.0  0.36596  0.95019  0.22138  1.0000
  H   H2102     1.0  0.40571  0.85764  0.23146  1.0000
  C   C1767     1.0  0.38955  0.83445  0.29170  1.0000
  C   C1768     1.0  0.42249  0.86283  0.34634  1.0000
  C   C1769     1.0  0.61664  0.79668  0.43061  1.0000
  C   C1770     1.0  0.57718  0.75069  0.34428  1.0000
  S   S487      1.0  0.34359  0.92907  0.26903  1.0000
  H   H2103     1.0  0.33416  0.77118  0.43224  1.0000
  H   H2104     1.0  0.33524  0.74132  0.41604  1.0000
  H   H2105     1.0  0.61542  0.86676  0.42002  1.0000
  H   H2106     1.0  0.60111  0.93659  0.25519  1.0000
  C   C1771     1.0  0.40503  0.88680  0.07958  1.0000
  C   C1772     1.0  0.54840  0.75545  0.32631  1.0000
  S   S488      1.0  0.33793  0.94368  0.31341  1.0000
  C   C1773     1.0  0.33860  0.90775  0.20337  1.0000
  H   H2107     1.0  0.65386  0.74065  0.41027  1.0000
  H   H2108     1.0  0.39928  0.81572  0.31930  1.0000
  N   N119      1.0  0.56564  0.82945  0.37483  1.0000
  C   C1774     1.0  0.58061  0.82557  0.35582  1.0000
  C   C1775     1.0  0.54628  0.84257  0.36899  1.0000
  C   C1776     1.0  0.57479  0.84150  0.38552  1.0000
  C   C1777     1.0  0.56090  0.80955  0.38750  1.0000
  C   C1778     1.0  0.56384  0.80316  0.40833  1.0000
  C   C1779     1.0  0.55280  0.79594  0.37912  1.0000
  C   C1780     1.0  0.55880  0.78441  0.41991  1.0000
  C   C1781     1.0  0.54800  0.77717  0.39077  1.0000
  C   C1782     1.0  0.55089  0.77145  0.41116  1.0000
  H   H2109     1.0  0.57421  0.81843  0.34572  1.0000
  H   H2110     1.0  0.58506  0.84017  0.34619  1.0000
  H   H2111     1.0  0.59506  0.81505  0.35956  1.0000
  H   H2112     1.0  0.53910  0.83531  0.35969  1.0000
  H   H2113     1.0  0.54902  0.85783  0.35956  1.0000
  H   H2114     1.0  0.53437  0.84555  0.38279  1.0000
  H   H2115     1.0  0.58957  0.83268  0.39018  1.0000
  H   H2116     1.0  0.57850  0.85616  0.37544  1.0000
  H   H2117     1.0  0.56388  0.84606  0.39938  1.0000
  H   H2118     1.0  0.56991  0.81239  0.41610  1.0000
  H   H2119     1.0  0.55001  0.79972  0.36344  1.0000
  H   H2120     1.0  0.56113  0.77984  0.43576  1.0000
  H   H2121     1.0  0.54207  0.76700  0.38383  1.0000
  H   H2122     1.0  0.54731  0.75681  0.42013  1.0000
  N   N120      1.0  0.47656  0.76575  0.31967  1.0000
  C   C1783     1.0  0.48297  0.77854  0.33175  1.0000
  C   C1784     1.0  0.41415  0.85501  0.26996  1.0000
  H   H2123     1.0  0.46602  0.87344  0.31306  1.0000
  C   C1785     1.0  0.46859  0.77906  0.30154  1.0000
  C   C1786     1.0  0.48134  0.79166  0.28689  1.0000
  C   C1787     1.0  0.44854  0.77948  0.29741  1.0000
  H   H2124     1.0  0.53615  0.74936  0.32289  1.0000
  H   H2125     1.0  0.51094  0.74578  0.42420  1.0000
  H   H2126     1.0  0.34947  0.90759  0.18909  1.0000
  H   H2127     1.0  0.34659  0.90110  0.34133  1.0000
  H   H2128     1.0  0.46982  0.79053  0.33699  1.0000
  H   H2129     1.0  0.44804  0.88383  0.35406  1.0000
  C   C1788     1.0  0.64119  0.86379  0.45906  1.0000
  C   C1789     1.0  0.62360  0.77350  0.40535  1.0000
  H   H2130     1.0  0.50102  0.73982  0.32585  1.0000
  H   H2131     1.0  0.48866  0.76891  0.34569  1.0000
  H   H2132     1.0  0.62384  0.82719  0.41939  1.0000
  C   C1790     1.0  0.64021  0.88323  0.41815  1.0000
  H   H2133     1.0  0.49684  0.79205  0.28881  1.0000
  H   H2134     1.0  0.37497  0.82894  0.29578  1.0000
  H   H2135     1.0  0.59266  0.75858  0.39641  1.0000
  C   C1791     1.0  0.42363  0.91263  0.28082  1.0000
  H   H2136     1.0  0.43570  0.91976  0.16884  1.0000
  H   H2137     1.0  0.45654  0.91693  0.19577  1.0000
  C   C1792     1.0  0.40911  0.93900  0.18350  1.0000
  H   H2138     1.0  0.37174  0.94965  0.23573  1.0000
  H   H2139     1.0  0.62412  0.95094  0.26975  1.0000
  H   H2140     1.0  0.40646  0.95397  0.22942  1.0000
  C   C1793     1.0  0.60641  0.94749  0.30106  1.0000
  C   C1794     1.0  0.62648  0.86962  0.42815  1.0000
  H   H2141     1.0  0.40099  0.93949  0.17116  1.0000
  H   H2142     1.0  0.61386  0.94041  0.34120  1.0000
  C   C1795     1.0  0.34825  0.87249  0.33112  1.0000
  C   C1796     1.0  0.42924  0.92754  0.18190  1.0000
  H   H2143     1.0  0.62222  0.76166  0.36855  1.0000
  H   H2144     1.0  0.36617  0.93396  0.21992  1.0000
  H   H2145     1.0  0.63578  0.78861  0.37416  1.0000
  C   C1797     1.0  0.62356  0.81246  0.41539  1.0000
  C   C1798     1.0  0.35487  0.85101  0.33491  1.0000
  C   C1799     1.0  0.61052  0.94612  0.27984  1.0000
  H   H2146     1.0  0.37594  0.73688  0.37195  1.0000
  Fe  Fe250     1.0  0.34960  0.95566  0.28025  1.0000
  C   C1800     1.0  0.65438  0.88728  0.42859  1.0000
  C   C1801     1.0  0.58830  0.94036  0.31313  1.0000
  H   H2147     1.0  0.49654  0.75262  0.44820  1.0000
  S   S489      1.0  0.37009  0.76853  0.98402  1.0000
  H   H2148     1.0  0.58418  0.94007  0.32950  1.0000
  C   C1802     1.0  0.43022  0.75003  0.45838  1.0000
  H   H2149     1.0  0.55358  0.75061  0.47024  1.0000
  H   H2150     1.0  0.63576  0.82158  0.38341  1.0000
  H   H2151     1.0  0.50791  0.75820  0.30337  1.0000
  C   C1803     1.0  0.63026  0.80922  0.39517  1.0000
  C   C1804     1.0  0.63023  0.79009  0.39008  1.0000
  H   H2152     1.0  0.59611  0.74763  0.42249  1.0000
  H   H2153     1.0  0.65273  0.94881  0.31363  1.0000
  H   H2154     1.0  0.63235  0.73513  0.37607  1.0000
  C   C1805     1.0  0.63791  0.73702  0.41336  1.0000
  C   C1806     1.0  0.35601  0.97870  0.13316  1.0000
  C   C1807     1.0  0.62179  0.97756  0.29911  1.0000
  H   H2155     1.0  0.32963  0.89733  0.13296  1.0000
  C   C1808     1.0  0.32647  0.75847  0.44080  1.0000
  S   S490      1.0  0.32444  0.81209  0.98194  1.0000
  H   H2156     1.0  0.49091  0.74107  0.30290  1.0000
  H   H2157     1.0  0.64848  0.75379  0.37391  1.0000
  C   C1809     1.0  0.37842  0.98216  0.20623  1.0000
  Fe  Fe251     1.0  0.57089  0.75404  0.85966  1.0000
  S   S491      1.0  0.57547  0.76991  0.82678  1.0000
  S   S492      1.0  0.53934  0.74821  0.87569  1.0000
  Fe  Fe252     1.0  0.61668  0.74270  0.86044  1.0000
  S   S493      1.0  0.62535  0.75765  0.82736  1.0000
  C   C1810     1.0  0.43036  0.81919  0.91162  1.0000
  Fe  Fe253     1.0  0.59953  0.78376  0.83547  1.0000
  S   S494      1.0  0.59870  0.81790  0.82124  1.0000
  Fe  Fe254     1.0  0.60057  0.74281  0.82156  1.0000
  H   H2158     1.0  0.64683  0.94992  0.58353  1.0000
  S   S495      1.0  0.59267  0.76989  0.86919  1.0000
  C   C1811     1.0  0.63231  0.91945  0.71982  1.0000
  S   S496      1.0  0.62570  0.92707  0.80310  1.0000
  Fe  Fe255     1.0  0.62820  0.95384  0.81673  1.0000
  C   C1812     1.0  0.37093  0.75253  0.83855  1.0000
  H   H2159     1.0  0.62873  0.86993  0.76110  1.0000
  H   H2160     1.0  0.47409  0.79255  0.86277  1.0000
  Fe  Fe256     1.0  0.60089  0.86328  0.69961  1.0000
  S   S497      1.0  0.56713  0.87725  0.70346  1.0000
  H   H2161     1.0  0.37941  0.75985  0.87905  1.0000
  Fe  Fe257     1.0  0.59879  0.84397  0.66244  1.0000
  S   S498      1.0  0.56485  0.85632  0.66385  1.0000
  S   S499      1.0  0.61868  0.82420  0.63963  1.0000
  Fe  Fe258     1.0  0.57328  0.88522  0.66899  1.0000
  S   S500      1.0  0.56223  0.91655  0.65179  1.0000
  Fe  Fe259     1.0  0.56208  0.84706  0.69822  1.0000
  S   S501      1.0  0.54037  0.82678  0.71903  1.0000
  S   S502      1.0  0.60760  0.87359  0.66532  1.0000
  S   S503      1.0  0.59560  0.83239  0.69651  1.0000
  Fe  Fe260     1.0  0.61165  0.79934  0.53304  1.0000
  C   C1813     1.0  0.54421  0.73343  0.53488  1.0000
  S   S504      1.0  0.59010  0.80218  0.56375  1.0000
  H   H2162     1.0  0.65345  0.90317  0.66220  1.0000
  H   H2163     1.0  0.56953  0.81386  0.75581  1.0000
  Fe  Fe261     1.0  0.62494  0.77203  0.49960  1.0000
  N   N121      1.0  0.56974  0.74905  0.54641  1.0000
  H   H2164     1.0  0.62619  0.88248  0.80684  1.0000
  S   S505      1.0  0.59818  0.79758  0.50563  1.0000
  S   S506      1.0  0.63057  0.82338  0.51525  1.0000
  Fe  Fe262     1.0  0.45577  0.83106  0.84832  1.0000
  S   S507      1.0  0.46552  0.81642  0.82016  1.0000
  S   S508      1.0  0.47713  0.83272  0.86889  1.0000
  Fe  Fe263     1.0  0.41153  0.84587  0.84166  1.0000
  S   S509      1.0  0.41683  0.83289  0.81264  1.0000
  S   S510      1.0  0.38318  0.86408  0.85808  1.0000
  Fe  Fe264     1.0  0.43495  0.80529  0.83022  1.0000
  S   S511      1.0  0.43376  0.77200  0.83118  1.0000
  Fe  Fe265     1.0  0.44689  0.84511  0.80487  1.0000
  S   S512      1.0  0.45813  0.86477  0.77470  1.0000
  S   S513      1.0  0.42711  0.81724  0.85994  1.0000
  S   S514      1.0  0.43973  0.86070  0.83234  1.0000
  H   H2165     1.0  0.49860  0.75922  0.86569  1.0000
  C   C1814     1.0  0.37744  0.80016  0.87148  1.0000
  C   C1815     1.0  0.62047  0.79323  0.78020  1.0000
  H   H2166     1.0  0.39240  0.79161  0.86422  1.0000
  C   C1816     1.0  0.35894  0.86301  0.85305  1.0000
  C   C1817     1.0  0.35720  0.85257  0.83788  1.0000
  C   C1818     1.0  0.33753  0.85231  0.83400  1.0000
  C   C1819     1.0  0.33759  0.90801  0.81868  1.0000
  C   C1820     1.0  0.34106  0.87286  0.86451  1.0000
  H   H2167     1.0  0.37095  0.84498  0.82896  1.0000
  Fe  Fe266     1.0  0.65537  0.79601  0.50923  1.0000
  H   H2168     1.0  0.34241  0.88107  0.87616  1.0000
  C   C1821     1.0  0.40942  0.76503  0.83354  1.0000
  C   C1822     1.0  0.39227  0.77942  0.82779  1.0000
  C   C1823     1.0  0.37297  0.77317  0.83035  1.0000
  H   H2169     1.0  0.52957  0.77056  0.70638  1.0000
  H   H2170     1.0  0.62075  0.93071  0.63638  1.0000
  H   H2171     1.0  0.39386  0.79531  0.82144  1.0000
  H   H2172     1.0  0.35966  0.78431  0.82616  1.0000
  H   H2173     1.0  0.36000  0.75785  0.90163  1.0000
  C   C1824     1.0  0.51775  0.83775  0.73449  1.0000
  C   C1825     1.0  0.50689  0.82471  0.75022  1.0000
  C   C1826     1.0  0.48883  0.83291  0.76286  1.0000
  C   C1827     1.0  0.48130  0.85420  0.75965  1.0000
  C   C1828     1.0  0.49214  0.86724  0.74390  1.0000
  C   C1829     1.0  0.51040  0.85907  0.73143  1.0000
  H   H2174     1.0  0.51231  0.80818  0.75256  1.0000
  H   H2175     1.0  0.48043  0.82268  0.77471  1.0000
  H   H2176     1.0  0.48637  0.88372  0.74127  1.0000
  H   H2177     1.0  0.51857  0.86925  0.71927  1.0000
  C   C1830     1.0  0.61039  0.81965  0.61795  1.0000
  C   C1831     1.0  0.58940  0.82311  0.61636  1.0000
  C   C1832     1.0  0.58341  0.81787  0.59961  1.0000
  C   C1833     1.0  0.59832  0.80970  0.58397  1.0000
  C   C1834     1.0  0.61932  0.80674  0.58533  1.0000
  C   C1835     1.0  0.62527  0.81143  0.60236  1.0000
  H   H2178     1.0  0.57776  0.82952  0.62816  1.0000
  H   H2179     1.0  0.56714  0.82031  0.59867  1.0000
  H   H2180     1.0  0.63097  0.80035  0.57352  1.0000
  S   S515      1.0  0.61946  0.86198  0.72435  1.0000
  C   C1836     1.0  0.57305  0.93512  0.65854  1.0000
  C   C1837     1.0  0.58462  0.92962  0.67443  1.0000
  H   H2181     1.0  0.38343  0.84699  0.95046  1.0000
  C   C1838     1.0  0.40730  0.74446  0.84139  1.0000
  C   C1839     1.0  0.57073  0.95539  0.64752  1.0000
  H   H2182     1.0  0.58645  0.91403  0.68302  1.0000
  H   H2183     1.0  0.47447  0.74712  0.81360  1.0000
  C   C1840     1.0  0.59173  0.96455  0.66813  1.0000
  H   H2184     1.0  0.63861  0.79253  0.74088  1.0000
  H   H2185     1.0  0.64633  0.86972  0.68594  1.0000
  C   C1841     1.0  0.43323  0.78450  0.93157  1.0000
  C   C1842     1.0  0.63534  0.90094  0.75420  1.0000
  C   C1843     1.0  0.62720  0.86701  0.81569  1.0000
  C   C1844     1.0  0.64069  0.87435  0.60614  1.0000
  H   H2186     1.0  0.34590  0.77462  0.92886  1.0000
  C   C1845     1.0  0.38498  0.78298  0.90459  1.0000
  S   S516      1.0  0.34661  0.74477  0.84405  1.0000
  C   C1846     1.0  0.39297  0.85570  0.93731  1.0000
  C   C1847     1.0  0.41023  0.82510  0.92296  1.0000
  H   H2187     1.0  0.36826  0.86011  0.90945  1.0000
  C   C1848     1.0  0.58022  0.97006  0.65220  1.0000
  H   H2188     1.0  0.40727  0.77844  0.95547  1.0000
  C   C1849     1.0  0.34938  0.79920  0.90212  1.0000
  H   H2189     1.0  0.61148  0.89402  0.60932  1.0000
  C   C1850     1.0  0.60428  0.73699  0.47621  1.0000
  C   C1851     1.0  0.61558  0.83355  0.82456  1.0000
  C   C1852     1.0  0.61462  0.85374  0.81319  1.0000
  S   S517      1.0  0.63712  0.77196  0.52846  1.0000
  H   H2190     1.0  0.36821  0.83550  0.92559  1.0000
  C   C1853     1.0  0.36510  0.76854  0.88728  1.0000
  C   C1854     1.0  0.62962  0.82658  0.83824  1.0000
  C   C1855     1.0  0.42624  0.73748  0.47750  1.0000
  H   H2191     1.0  0.63378  0.86062  0.60837  1.0000
  C   C1856     1.0  0.38825  0.73819  0.84363  1.0000
  H   H2192     1.0  0.63056  0.81106  0.84709  1.0000
  C   C1857     1.0  0.52178  0.77147  0.87472  1.0000
  C   C1858     1.0  0.52695  0.78888  0.87923  1.0000
  C   C1859     1.0  0.51273  0.80750  0.87845  1.0000
  C   C1860     1.0  0.49385  0.80895  0.87211  1.0000
  C   C1861     1.0  0.48874  0.79157  0.86749  1.0000
  C   C1862     1.0  0.50257  0.77272  0.86916  1.0000
  H   H2193     1.0  0.54174  0.78784  0.88373  1.0000
  H   H2194     1.0  0.51653  0.82083  0.88241  1.0000
  C   C1863     1.0  0.60141  0.93329  0.60471  1.0000
  N   N122      1.0  0.53140  0.84105  0.81478  1.0000
  C   C1864     1.0  0.53477  0.84610  0.83403  1.0000
  C   C1865     1.0  0.50892  0.84752  0.81392  1.0000
  C   C1866     1.0  0.53694  0.81831  0.81620  1.0000
  C   C1867     1.0  0.54384  0.85121  0.79599  1.0000
  C   C1868     1.0  0.55939  0.86247  0.79656  1.0000
  C   C1869     1.0  0.54081  0.84971  0.77626  1.0000
  C   C1870     1.0  0.57033  0.87243  0.77844  1.0000
  C   C1871     1.0  0.55189  0.85963  0.75830  1.0000
  C   C1872     1.0  0.56647  0.87117  0.75937  1.0000
  H   H2195     1.0  0.52431  0.83929  0.84773  1.0000
  H   H2196     1.0  0.55090  0.83975  0.83688  1.0000
  H   H2197     1.0  0.53148  0.86309  0.83372  1.0000
  H   H2198     1.0  0.50434  0.86466  0.81166  1.0000
  H   H2199     1.0  0.49915  0.84099  0.82834  1.0000
  H   H2200     1.0  0.50432  0.84217  0.80138  1.0000
  H   H2201     1.0  0.55381  0.81299  0.81649  1.0000
  H   H2202     1.0  0.52831  0.81002  0.83049  1.0000
  H   H2203     1.0  0.53339  0.81307  0.80302  1.0000
  H   H2204     1.0  0.56350  0.86371  0.81080  1.0000
  H   H2205     1.0  0.52977  0.84088  0.77453  1.0000
  H   H2206     1.0  0.58201  0.88109  0.77915  1.0000
  H   H2207     1.0  0.54909  0.85830  0.74350  1.0000
  H   H2208     1.0  0.62100  0.96305  0.58401  1.0000
  H   H2209     1.0  0.56492  0.78228  0.54433  1.0000
  H   H2210     1.0  0.36673  0.80341  0.86021  1.0000
  C   C1873     1.0  0.33261  0.90412  0.78556  1.0000
  C   C1874     1.0  0.58742  0.95889  0.76543  1.0000
  C   C1875     1.0  0.41364  0.78982  0.94310  1.0000
  H   H2211     1.0  0.36833  0.90426  0.82356  1.0000
  H   H2212     1.0  0.60406  0.85920  0.80241  1.0000
  H   H2213     1.0  0.41201  0.85420  0.88691  1.0000
  H   H2214     1.0  0.43796  0.82973  0.89938  1.0000
  H   H2215     1.0  0.38714  0.81312  0.94835  1.0000
  H   H2216     1.0  0.38375  0.87162  0.93458  1.0000
  H   H2217     1.0  0.38074  0.81510  0.87342  1.0000
  H   H2218     1.0  0.57511  0.87883  0.74541  1.0000
  H   H2219     1.0  0.60813  0.78881  0.79331  1.0000
  H   H2220     1.0  0.56465  0.77374  0.52093  1.0000
  H   H2221     1.0  0.60252  0.94017  0.69174  1.0000
  H   H2222     1.0  0.62240  0.90318  0.70031  1.0000
  C   C1876     1.0  0.44156  0.79916  0.91589  1.0000
  C   C1877     1.0  0.59372  0.94440  0.67938  1.0000
  S   S518      1.0  0.64945  0.96762  0.78938  1.0000
  H   H2223     1.0  0.65251  0.74503  0.91011  1.0000
  H   H2224     1.0  0.59533  0.76061  0.55217  1.0000
  H   H2225     1.0  0.60384  0.95087  0.76334  1.0000
  H   H2226     1.0  0.40004  0.77509  0.89677  1.0000
  C   C1878     1.0  0.59415  0.75708  0.75143  1.0000
  C   C1879     1.0  0.60642  0.76993  0.75492  1.0000
  C   C1880     1.0  0.65024  0.98161  0.70079  1.0000
  C   C1881     1.0  0.62938  0.88385  0.74961  1.0000
  C   C1882     1.0  0.56507  0.73404  0.53563  1.0000
  H   H2227     1.0  0.61665  0.95668  0.62237  1.0000
  S   S519      1.0  0.33922  0.86255  0.95129  1.0000
  C   C1883     1.0  0.32795  0.74538  0.96422  1.0000
  C   C1884     1.0  0.33966  0.81930  0.89375  1.0000
  C   C1885     1.0  0.59818  0.79076  0.75719  1.0000
  C   C1886     1.0  0.44353  0.73727  0.79700  1.0000
  H   H2228     1.0  0.63390  0.93303  0.70805  1.0000
  H   H2229     1.0  0.53860  0.80163  0.69104  1.0000
  C   C1887     1.0  0.40227  0.80979  0.93893  1.0000
  H   H2230     1.0  0.39835  0.87572  0.89852  1.0000
  H   H2231     1.0  0.57996  0.76209  0.48409  1.0000
  C   C1888     1.0  0.64102  0.86022  0.82959  1.0000
  H   H2232     1.0  0.32586  0.87410  0.91240  1.0000
  S   S520      1.0  0.64600  0.79329  0.48006  1.0000
  H   H2233     1.0  0.59220  0.94920  0.60452  1.0000
  C   C1889     1.0  0.62800  0.89378  0.60659  1.0000
  H   H2234     1.0  0.59860  0.92748  0.59150  1.0000
  N   N123      1.0  0.56552  0.78095  0.67873  1.0000
  C   C1890     1.0  0.54579  0.79564  0.67655  1.0000
  C   C1891     1.0  0.57975  0.79218  0.68418  1.0000
  C   C1892     1.0  0.57456  0.77504  0.65831  1.0000
  C   C1893     1.0  0.56293  0.76220  0.69456  1.0000
  C   C1894     1.0  0.54355  0.75919  0.70729  1.0000
  H   H2235     1.0  0.44207  0.76904  0.93491  1.0000
  H   H2236     1.0  0.54828  0.80956  0.66455  1.0000
  H   H2237     1.0  0.53441  0.78834  0.67206  1.0000
  H   H2238     1.0  0.57367  0.79655  0.69964  1.0000
  H   H2239     1.0  0.58179  0.80660  0.67279  1.0000
  H   H2240     1.0  0.59554  0.78290  0.68452  1.0000
  H   H2241     1.0  0.57575  0.78888  0.64590  1.0000
  H   H2242     1.0  0.59060  0.76612  0.65772  1.0000
  H   H2243     1.0  0.56494  0.76552  0.65411  1.0000
  H   H2244     1.0  0.54292  0.77298  0.54167  1.0000
  C   C1895     1.0  0.37092  0.74210  0.95759  1.0000
  N   N124      1.0  0.39076  0.89574  0.78488  1.0000
  C   C1896     1.0  0.39704  0.91291  0.76848  1.0000
  C   C1897     1.0  0.40307  0.89327  0.80137  1.0000
  C   C1898     1.0  0.39645  0.87627  0.77634  1.0000
  C   C1899     1.0  0.36805  0.90019  0.79214  1.0000
  C   C1900     1.0  0.35410  0.90070  0.77884  1.0000
  C   C1901     1.0  0.35911  0.90426  0.81227  1.0000
  H   H2245     1.0  0.62197  0.81491  0.72980  1.0000
  N   N125      1.0  0.58266  0.97377  0.74663  1.0000
  H   H2246     1.0  0.64160  0.85633  0.47486  1.0000
  H   H2247     1.0  0.41412  0.91013  0.76274  1.0000
  H   H2248     1.0  0.38939  0.91495  0.75495  1.0000
  H   H2249     1.0  0.39292  0.92785  0.77424  1.0000
  H   H2250     1.0  0.40089  0.90780  0.80754  1.0000
  H   H2251     1.0  0.42005  0.88923  0.79563  1.0000
  H   H2252     1.0  0.39886  0.88070  0.81432  1.0000
  H   H2253     1.0  0.39083  0.87780  0.76169  1.0000
  H   H2254     1.0  0.41360  0.87126  0.77272  1.0000
  H   H2255     1.0  0.38990  0.86348  0.78745  1.0000
  H   H2256     1.0  0.35970  0.89831  0.76317  1.0000
  C   C1902     1.0  0.58026  0.74629  0.69780  1.0000
  H   H2257     1.0  0.63184  0.77897  0.77770  1.0000
  H   H2258     1.0  0.33109  0.91078  0.83418  1.0000
  C   C1903     1.0  0.37799  0.84457  0.91299  1.0000
  C   C1904     1.0  0.57711  0.79813  0.75493  1.0000
  C   C1905     1.0  0.62578  0.90256  0.71540  1.0000
  Fe  Fe267     1.0  0.65312  0.91045  0.81765  1.0000
  Fe  Fe268     1.0  0.64930  0.93908  0.77700  1.0000
  H   H2259     1.0  0.53145  0.74352  0.54244  1.0000
  H   H2260     1.0  0.59471  0.92385  0.61922  1.0000
  H   H2261     1.0  0.60052  0.74095  0.75072  1.0000
  H   H2262     1.0  0.33617  0.84458  0.82200  1.0000
  N   N126      1.0  0.36884  0.78808  0.89143  1.0000
  S   S521      1.0  0.65348  0.93628  0.83408  1.0000
  H   H2263     1.0  0.58152  0.94823  0.73245  1.0000
  H   H2264     1.0  0.35300  0.77153  0.87752  1.0000
  H   H2265     1.0  0.61961  0.74564  0.93495  1.0000
  H   H2266     1.0  0.53158  0.73922  0.79048  1.0000
  H   H2267     1.0  0.63817  0.81745  0.74668  1.0000
  H   H2268     1.0  0.56162  0.95973  0.63536  1.0000
  H   H2269     1.0  0.59366  0.83381  0.75207  1.0000
  C   C1906     1.0  0.56118  0.74436  0.56867  1.0000
  H   H2270     1.0  0.60985  0.83361  0.76978  1.0000
  C   C1907     1.0  0.62460  0.88458  0.73021  1.0000
  H   H2271     1.0  0.59969  0.75233  0.52791  1.0000
  H   H2272     1.0  0.45188  0.75004  0.79213  1.0000
  H   H2273     1.0  0.54884  0.79082  0.75032  1.0000
  H   H2274     1.0  0.38786  0.79719  0.90855  1.0000
  H   H2275     1.0  0.38067  0.77237  0.91926  1.0000
  C   C1908     1.0  0.56498  0.78506  0.75156  1.0000
  H   H2276     1.0  0.58315  0.97217  0.71500  1.0000
  N   N127      1.0  0.39775  0.84606  0.91867  1.0000
  C   C1909     1.0  0.63079  0.94735  0.58465  1.0000
  Fe  Fe269     1.0  0.61984  0.81887  0.48749  1.0000
  H   H2277     1.0  0.58677  0.82286  0.77913  1.0000
  H   H2278     1.0  0.38091  0.83731  0.89911  1.0000
  C   C1910     1.0  0.57341  0.76457  0.75000  1.0000
  C   C1911     1.0  0.40833  0.86025  0.90161  1.0000
  H   H2279     1.0  0.56374  0.75436  0.74812  1.0000
  N   N128      1.0  0.61131  0.80378  0.76173  1.0000
  H   H2280     1.0  0.40740  0.85663  0.94242  1.0000
  C   C1912     1.0  0.59977  0.82435  0.76584  1.0000
  S   S522      1.0  0.64569  0.93998  0.74420  1.0000
  C   C1913     1.0  0.63665  0.91204  0.60352  1.0000
  C   C1914     1.0  0.62605  0.94094  0.62173  1.0000
  C   C1915     1.0  0.63707  0.91873  0.73924  1.0000
  S   S523      1.0  0.62327  0.74299  0.48780  1.0000
  H   H2281     1.0  0.45694  0.79507  0.90705  1.0000
  N   N129      1.0  0.62383  0.93294  0.60365  1.0000
  H   H2282     1.0  0.41904  0.75456  0.78086  1.0000
  H   H2283     1.0  0.56278  0.74590  0.80025  1.0000
  H   H2284     1.0  0.34568  0.82752  0.87889  1.0000
  H   H2285     1.0  0.61578  0.97949  0.76327  1.0000
  C   C1916     1.0  0.58842  0.96251  0.72911  1.0000
  H   H2286     1.0  0.57796  0.94640  0.76947  1.0000
  C   C1917     1.0  0.63367  0.73591  0.93928  1.0000
  C   C1918     1.0  0.64228  0.83987  0.84072  1.0000
  C   C1919     1.0  0.62830  0.80721  0.74402  1.0000
  C   C1920     1.0  0.59229  0.74881  0.54436  1.0000
  H   H2287     1.0  0.42295  0.86283  0.90515  1.0000
  C   C1921     1.0  0.56012  0.77036  0.53798  1.0000
  H   H2288     1.0  0.55858  0.97674  0.82447  1.0000
  H   H2289     1.0  0.63029  0.94145  0.57063  1.0000
  H   H2290     1.0  0.54404  0.74563  0.57167  1.0000
  C   C1922     1.0  0.33961  0.78996  0.92167  1.0000
  H   H2291     1.0  0.55099  0.96833  0.75536  1.0000
  H   H2292     1.0  0.62228  0.76318  0.75636  1.0000
  H   H2293     1.0  0.59554  0.74767  0.68903  1.0000
  S   S524      1.0  0.59974  0.97311  0.83168  1.0000
  H   H2294     1.0  0.58428  0.96678  0.77897  1.0000
  H   H2295     1.0  0.63920  0.90008  0.76913  1.0000
  H   H2296     1.0  0.64151  0.80860  0.60350  1.0000
  H   H2297     1.0  0.62884  0.80335  0.78530  1.0000
  C   C1923     1.0  0.65227  0.73560  0.92533  1.0000
  H   H2298     1.0  0.41092  0.73982  0.48688  1.0000
  H   H2299     1.0  0.60556  0.95795  0.72519  1.0000
  H   H2300     1.0  0.64233  0.94232  0.62142  1.0000
  H   H2301     1.0  0.38763  0.74033  0.95543  1.0000
  C   C1924     1.0  0.33689  0.75755  0.97323  1.0000
  H   H2302     1.0  0.60050  0.73362  0.55145  1.0000
  C   C1925     1.0  0.35844  0.75556  0.97046  1.0000
  C   C1926     1.0  0.54172  0.74113  0.72190  1.0000
  C   C1927     1.0  0.42455  0.74011  0.79037  1.0000
  H   H2303     1.0  0.65295  0.83440  0.85146  1.0000
  C   C1928     1.0  0.55988  0.98127  0.74997  1.0000
  H   H2304     1.0  0.52686  0.73904  0.73156  1.0000
  C   C1929     1.0  0.58420  0.74858  0.47683  1.0000
  H   H2305     1.0  0.56472  0.75527  0.57724  1.0000
  H   H2306     1.0  0.65541  0.85510  0.66564  1.0000
  H   H2307     1.0  0.32481  0.79481  0.85109  1.0000
  C   C1930     1.0  0.32439  0.90759  0.80551  1.0000
  H   H2308     1.0  0.48686  0.73397  0.79212  1.0000
  H   H2309     1.0  0.42040  0.73320  0.84582  1.0000
  Fe  Fe270     1.0  0.69627  0.10764  0.05122  1.0000
  S   S525      1.0  0.71940  0.08203  0.03874  1.0000
  S   S526      1.0  0.70459  0.13428  0.06082  1.0000
  Fe  Fe271     1.0  0.69874  0.08636  0.01556  1.0000
  Fe  Fe272     1.0  0.69762  0.06179  0.05879  1.0000
  H   H2310     1.0  0.79511  0.02136  0.22638  1.0000
  C   C1931     1.0  0.72321  0.99079  0.31366  1.0000
  H   H2311     1.0  0.72983  0.13414  0.00318  1.0000
  Fe  Fe273     1.0  0.89362  0.05924  0.16790  1.0000
  S   S527      1.0  0.87298  0.08603  0.15251  1.0000
  S   S528      1.0  0.88457  0.02763  0.17377  1.0000
  Fe  Fe274     1.0  0.91946  0.08740  0.17925  1.0000
  S   S529      1.0  0.90076  0.11619  0.16376  1.0000
  S   S530      1.0  0.94088  0.08474  0.20262  1.0000
  Fe  Fe275     1.0  0.87312  0.10139  0.17866  1.0000
  S   S531      1.0  0.84494  0.11757  0.19712  1.0000
  Fe  Fe276     1.0  0.90239  0.09826  0.13848  1.0000
  S   S532      1.0  0.90470  0.11468  0.10514  1.0000
  S   S533      1.0  0.89122  0.07366  0.19534  1.0000
  S   S534      1.0  0.92360  0.07027  0.15255  1.0000
  Fe  Fe277     1.0  0.81569  0.13989  0.00012  1.0000
  S   S535      1.0  0.81916  0.10532  0.00860  1.0000
  S   S536      1.0  0.78731  0.16249  0.01000  1.0000
  H   H2312     1.0  0.93758  0.15256  0.23970  1.0000
  C   C1932     1.0  0.93540  0.17872  0.26614  1.0000
  C   C1933     1.0  0.76396  0.01719  0.04488  1.0000
  C   C1934     1.0  0.72775  0.98282  0.35483  1.0000
  Fe  Fe278     1.0  0.84991  0.10734  0.01579  1.0000
  S   S537      1.0  0.85929  0.08649  0.04475  1.0000
  H   H2313     1.0  0.85076  0.03151  0.03625  1.0000
  S   S538      1.0  0.84528  0.14196  0.00949  1.0000
  C   C1935     1.0  0.66904  0.08870  0.98146  1.0000
  C   C1936     1.0  0.85585  0.00478  0.27679  1.0000
  Fe  Fe279     1.0  0.85247  0.20795  0.36091  1.0000
  S   S539      1.0  0.86658  0.21595  0.38469  1.0000
  H   H2314     1.0  0.65845  0.14820  0.05651  1.0000
  Fe  Fe280     1.0  0.84484  0.16589  0.38561  1.0000
  S   S540      1.0  0.85841  0.17076  0.41177  1.0000
  S   S541      1.0  0.83731  0.13360  0.38806  1.0000
  Fe  Fe281     1.0  0.84071  0.20338  0.40728  1.0000
  H   H2315     1.0  0.83715  0.01095  0.19420  1.0000
  Fe  Fe282     1.0  0.88314  0.18315  0.38703  1.0000
  S   S542      1.0  0.91682  0.17553  0.39019  1.0000
  S   S543      1.0  0.82491  0.19769  0.38310  1.0000
  S   S544      1.0  0.87110  0.17601  0.36135  1.0000
  Fe  Fe283     1.0  0.82327  0.02401  0.31656  1.0000
  S   S545      1.0  0.79882  0.01456  0.30460  1.0000
  C   C1937     1.0  0.89347  0.22592  0.33253  1.0000
  Fe  Fe284     1.0  0.79861  0.06667  0.32160  1.0000
  S   S546      1.0  0.77172  0.06079  0.30963  1.0000
  S   S547      1.0  0.79727  0.09925  0.32739  1.0000
  Fe  Fe285     1.0  0.77659  0.02918  0.32929  1.0000
  S   S548      1.0  0.75169  0.01258  0.35031  1.0000
  Fe  Fe286     1.0  0.79615  0.04651  0.28591  1.0000
  S   S549      1.0  0.79624  0.04872  0.25231  1.0000
  S   S550      1.0  0.80158  0.03606  0.34326  1.0000
  S   S551      1.0  0.82245  0.05490  0.29600  1.0000
  C   C1938     1.0  0.91130  0.13015  0.28473  1.0000
  C   C1939     1.0  0.78824  0.13395  0.09614  1.0000
  H   H2316     1.0  0.83089  0.00401  0.01748  1.0000
  C   C1940     1.0  0.82763  0.12429  0.36991  1.0000
  C   C1941     1.0  0.81800  0.13765  0.35446  1.0000
  C   C1942     1.0  0.80906  0.12965  0.34144  1.0000
  C   C1943     1.0  0.80996  0.10823  0.34343  1.0000
  C   C1944     1.0  0.82020  0.09479  0.35845  1.0000
  C   C1945     1.0  0.82878  0.10281  0.37174  1.0000
  H   H2317     1.0  0.81687  0.15419  0.35294  1.0000
  H   H2318     1.0  0.80111  0.14020  0.32993  1.0000
  H   H2319     1.0  0.82096  0.07829  0.36022  1.0000
  H   H2320     1.0  0.83605  0.09233  0.38375  1.0000
  H   H2321     1.0  0.83118  0.12574  0.05978  1.0000
  N   N130      1.0  0.97584  0.21638  0.34879  1.0000
  H   H2322     1.0  0.91165  0.12822  0.30145  1.0000
  H   H2323     1.0  0.98318  0.10450  0.24428  1.0000
  C   C1946     1.0  0.80432  0.99425  0.21154  1.0000
  H   H2324     1.0  0.73959  0.16738  0.99602  1.0000
  H   H2325     1.0  0.86444  0.22683  0.43203  1.0000
  C   C1947     1.0  0.88836  0.09553  0.34361  1.0000
  H   H2326     1.0  0.76140  0.03253  0.21571  1.0000
  H   H2327     1.0  0.66694  0.03309  0.10790  1.0000
  C   C1948     1.0  0.95843  0.13995  0.34207  1.0000
  C   C1949     1.0  0.96431  0.13871  0.36099  1.0000
  C   C1950     1.0  0.95194  0.15055  0.37529  1.0000
  C   C1951     1.0  0.93354  0.16345  0.37080  1.0000
  C   C1952     1.0  0.92831  0.16564  0.35138  1.0000
  C   C1953     1.0  0.94068  0.15376  0.33706  1.0000
  H   H2328     1.0  0.95615  0.14900  0.39021  1.0000
  H   H2329     1.0  0.91452  0.17612  0.34755  1.0000
  H   H2330     1.0  0.95075  0.19939  0.36145  1.0000
  C   C1954     1.0  0.97465  0.13004  0.22064  1.0000
  C   C1955     1.0  0.76501  0.00759  0.19917  1.0000
  C   C1956     1.0  0.80936  0.06820  0.23706  1.0000
  C   C1957     1.0  0.81886  0.06635  0.21682  1.0000
  C   C1958     1.0  0.83002  0.08139  0.20465  1.0000
  C   C1959     1.0  0.83085  0.09885  0.21234  1.0000
  C   C1960     1.0  0.82088  0.10102  0.23239  1.0000
  C   C1961     1.0  0.81051  0.08547  0.24492  1.0000
  H   H2331     1.0  0.81778  0.05321  0.21058  1.0000
  H   H2332     1.0  0.83773  0.07960  0.18921  1.0000
  H   H2333     1.0  0.82146  0.11454  0.23836  1.0000
  H   H2334     1.0  0.80305  0.08706  0.26050  1.0000
  C   C1962     1.0  0.95348  0.10275  0.20924  1.0000
  H   H2335     1.0  0.94495  0.12830  0.18560  1.0000
  C   C1963     1.0  0.86162  0.99254  0.29490  1.0000
  C   C1964     1.0  0.89332  0.10627  0.08774  1.0000
  C   C1965     1.0  0.88746  0.08683  0.09226  1.0000
  C   C1966     1.0  0.87796  0.08071  0.07845  1.0000
  C   C1967     1.0  0.87341  0.09419  0.06038  1.0000
  C   C1968     1.0  0.87944  0.11360  0.05572  1.0000
  C   C1969     1.0  0.88956  0.11950  0.06925  1.0000
  H   H2336     1.0  0.89063  0.07635  0.10623  1.0000
  H   H2337     1.0  0.87419  0.06540  0.08182  1.0000
  H   H2338     1.0  0.87626  0.12409  0.04176  1.0000
  H   H2339     1.0  0.89416  0.13454  0.06557  1.0000
  H   H2340     1.0  0.84540  0.01936  0.27735  1.0000
  N   N131      1.0  0.92641  0.14319  0.27222  1.0000
  H   H2341     1.0  0.66860  0.08081  0.99710  1.0000
  H   H2342     1.0  0.71012  0.12913  0.99195  1.0000
  C   C1970     1.0  0.87625  0.00404  0.11797  1.0000
  C   C1971     1.0  0.88604  0.02115  0.11528  1.0000
  C   C1972     1.0  0.88784  0.02900  0.13232  1.0000
  C   C1973     1.0  0.88043  0.01938  0.15221  1.0000
  C   C1974     1.0  0.87075  0.00218  0.15495  1.0000
  C   C1975     1.0  0.86831  0.99473  0.13784  1.0000
  H   H2343     1.0  0.89241  0.02829  0.09994  1.0000
  H   H2344     1.0  0.89565  0.04204  0.13010  1.0000
  H   H2345     1.0  0.74698  0.01998  0.00384  1.0000
  S   S552      1.0  0.67740  0.11378  0.02631  1.0000
  C   C1976     1.0  0.72889  0.14067  0.04870  1.0000
  C   C1977     1.0  0.73198  0.16087  0.04728  1.0000
  C   C1978     1.0  0.75028  0.16716  0.03583  1.0000
  C   C1979     1.0  0.76576  0.15322  0.02598  1.0000
  C   C1980     1.0  0.76309  0.13276  0.02798  1.0000
  C   C1981     1.0  0.74464  0.12649  0.03939  1.0000
  H   H2346     1.0  0.71992  0.17190  0.05448  1.0000
  H   H2347     1.0  0.75230  0.18301  0.03429  1.0000
  H   H2348     1.0  0.77486  0.12202  0.02017  1.0000
  H   H2349     1.0  0.74255  0.11081  0.04070  1.0000
  S   S553      1.0  0.85269  0.00121  0.31848  1.0000
  C   C1982     1.0  0.97474  0.10984  0.23162  1.0000
  H   H2350     1.0  0.98317  0.22713  0.31619  1.0000
  S   S554      1.0  0.67575  0.08723  0.07304  1.0000
  C   C1983     1.0  0.74329  0.02620  0.05117  1.0000
  Fe  Fe287     1.0  0.83548  0.10573  0.97578  1.0000
  S   S555      1.0  0.87443  0.99475  0.09609  1.0000
  H   H2351     1.0  0.96041  0.21561  0.32404  1.0000
  H   H2352     1.0  0.96745  0.19896  0.37908  1.0000
  H   H2353     1.0  0.98504  0.19958  0.32329  1.0000
  S   S556      1.0  0.82208  0.22136  0.43226  1.0000
  H   H2354     1.0  0.66047  0.04005  0.07464  1.0000
  H   H2355     1.0  0.84607  0.01123  0.99267  1.0000
  S   S557      1.0  0.80102  0.99277  0.05074  1.0000
  H   H2356     1.0  0.94909  0.13268  0.29218  1.0000
  H   H2357     1.0  0.73489  0.03698  0.04019  1.0000
  H   H2358     1.0  0.96346  0.15207  0.19543  1.0000
  H   H2359     1.0  0.79297  0.13013  0.06453  1.0000
  C   C1984     1.0  0.92564  0.14425  0.25023  1.0000
  S   S558      1.0  0.67926  0.06333  0.03434  1.0000
  S   S559      1.0  0.70932  0.09056  0.98141  1.0000
  H   H2360     1.0  0.78662  0.11523  0.39352  1.0000
  C   C1985     1.0  0.81949  0.13321  0.11006  1.0000
  N   N132      1.0  0.88078  0.06125  0.25916  1.0000
  C   C1986     1.0  0.88737  0.04145  0.27275  1.0000
  C   C1987     1.0  0.86731  0.05702  0.24628  1.0000
  C   C1988     1.0  0.89974  0.06768  0.24565  1.0000
  C   C1989     1.0  0.86940  0.07803  0.27049  1.0000
  C   C1990     1.0  0.86159  0.09771  0.25958  1.0000
  C   C1991     1.0  0.86518  0.07533  0.29236  1.0000
  C   C1992     1.0  0.84963  0.11338  0.26988  1.0000
  C   C1993     1.0  0.85305  0.09109  0.30248  1.0000
  C   C1994     1.0  0.84518  0.11000  0.29129  1.0000
  H   H2361     1.0  0.87386  0.03559  0.28331  1.0000
  H   H2362     1.0  0.89529  0.02899  0.26376  1.0000
  H   H2363     1.0  0.89846  0.04308  0.28217  1.0000
  H   H2364     1.0  0.85259  0.05279  0.25581  1.0000
  H   H2365     1.0  0.87507  0.04414  0.23781  1.0000
  H   H2366     1.0  0.86285  0.07060  0.23448  1.0000
  H   H2367     1.0  0.91034  0.07093  0.25470  1.0000
  H   H2368     1.0  0.90866  0.05555  0.23664  1.0000
  H   H2369     1.0  0.89623  0.08191  0.23418  1.0000
  H   H2370     1.0  0.86411  0.10094  0.24291  1.0000
  H   H2371     1.0  0.87025  0.06091  0.30203  1.0000
  C   C1995     1.0  0.77791  0.98984  0.19336  1.0000
  H   H2372     1.0  0.84893  0.08834  0.31912  1.0000
  C   C1996     1.0  0.79724  0.98315  0.19948  1.0000
  H   H2373     1.0  0.84378  0.06522  0.99673  1.0000
  H   H2374     1.0  0.82872  0.10349  0.14181  1.0000
  H   H2375     1.0  0.94864  0.17438  0.25459  1.0000
  H   H2376     1.0  0.83201  0.05445  0.03381  1.0000
  C   C1997     1.0  0.90730  0.09056  0.33087  1.0000
  H   H2377     1.0  0.82205  0.03129  0.97590  1.0000
  H   H2378     1.0  0.75923  0.06181  0.98835  1.0000
  H   H2379     1.0  0.95071  0.11621  0.27390  1.0000
  S   S560      1.0  0.81795  0.98462  0.10426  1.0000
  H   H2380     1.0  0.91487  0.11437  0.28080  1.0000
  C   C1998     1.0  0.80030  0.13060  0.07724  1.0000
  H   H2381     1.0  0.83073  0.01786  0.21934  1.0000
  C   C1999     1.0  0.77499  0.00321  0.05898  1.0000
  C   C2000     1.0  0.73344  0.02086  0.07152  1.0000
  C   C2001     1.0  0.82180  0.12824  0.07456  1.0000
  H   H2382     1.0  0.89523  0.13690  0.28201  1.0000
  H   H2383     1.0  0.92077  0.00100  0.15148  1.0000
  H   H2384     1.0  0.78759  0.13811  0.12663  1.0000
  C   C2002     1.0  0.80223  0.98539  0.99375  1.0000
  H   H2385     1.0  0.96487  0.08064  0.23429  1.0000
  Fe  Fe288     1.0  0.65908  0.09070  0.04669  1.0000
  N   N133      1.0  0.82472  0.98775  0.21825  1.0000
  H   H2386     1.0  0.85712  0.00755  0.01506  1.0000
  C   C2003     1.0  0.82156  0.98293  0.24107  1.0000
  C   C2004     1.0  0.90539  0.17151  0.29193  1.0000
  C   C2005     1.0  0.90189  0.19175  0.29569  1.0000
  H   H2387     1.0  0.87398  0.09510  0.33894  1.0000
  C   C2006     1.0  0.91505  0.20539  0.28479  1.0000
  C   C2007     1.0  0.92228  0.16440  0.27689  1.0000
  H   H2388     1.0  0.74309  0.01343  0.30943  1.0000
  H   H2389     1.0  0.89460  0.16183  0.30103  1.0000
  H   H2390     1.0  0.88883  0.19697  0.30710  1.0000
  H   H2391     1.0  0.68470  0.15829  0.00593  1.0000
  H   H2392     1.0  0.91220  0.22108  0.28771  1.0000
  N   N134      1.0  0.82902  0.13523  0.12725  1.0000
  C   C2008     1.0  0.82113  0.15601  0.13284  1.0000
  C   C2009     1.0  0.82359  0.11935  0.14551  1.0000
  H   H2393     1.0  0.82850  0.15823  0.14535  1.0000
  H   H2394     1.0  0.82442  0.16842  0.11934  1.0000
  H   H2395     1.0  0.80414  0.15864  0.13857  1.0000
  H   H2396     1.0  0.80668  0.12138  0.15165  1.0000
  H   H2397     1.0  0.83114  0.11998  0.15850  1.0000
  H   H2398     1.0  0.85884  0.13398  0.13555  1.0000
  H   H2399     1.0  0.84799  0.12783  0.08735  1.0000
  N   N135      1.0  0.90503  0.10733  0.38966  1.0000
  C   C2010     1.0  0.89189  0.09483  0.40606  1.0000
  C   C2011     1.0  0.92562  0.10419  0.39582  1.0000
  C   C2012     1.0  0.89566  0.12943  0.38881  1.0000
  C   C2013     1.0  0.90616  0.10166  0.36939  1.0000
  C   C2014     1.0  0.88775  0.10118  0.36248  1.0000
  C   C2015     1.0  0.92518  0.09735  0.35563  1.0000
  H   H2400     1.0  0.91029  0.15246  0.24645  1.0000
  C   C2016     1.0  0.92564  0.09182  0.33672  1.0000
  H   H2401     1.0  0.94212  0.20945  0.26177  1.0000
  H   H2402     1.0  0.89730  0.07799  0.40602  1.0000
  H   H2403     1.0  0.89201  0.09780  0.42162  1.0000
  H   H2404     1.0  0.87526  0.09859  0.40442  1.0000
  H   H2405     1.0  0.93379  0.08791  0.39611  1.0000
  H   H2406     1.0  0.92429  0.10795  0.41137  1.0000
  H   H2407     1.0  0.93564  0.11462  0.38525  1.0000
  H   H2408     1.0  0.87930  0.13254  0.38656  1.0000
  H   H2409     1.0  0.89580  0.13502  0.40314  1.0000
  H   H2410     1.0  0.90414  0.13920  0.37577  1.0000
  H   H2411     1.0  0.87268  0.10536  0.37158  1.0000
  H   H2412     1.0  0.93998  0.09829  0.35897  1.0000
  C   C2017     1.0  0.96430  0.09632  0.22591  1.0000
  H   H2413     1.0  0.94042  0.08857  0.32659  1.0000
  N   N136      1.0  0.74187  0.08784  0.36575  1.0000
  C   C2018     1.0  0.73893  0.09525  0.34406  1.0000
  C   C2019     1.0  0.75747  0.06847  0.36629  1.0000
  C   C2020     1.0  0.72211  0.08251  0.37839  1.0000
  C   C2021     1.0  0.74795  0.10429  0.37350  1.0000
  C   C2022     1.0  0.73486  0.12393  0.37352  1.0000
  C   C2023     1.0  0.76673  0.10152  0.38116  1.0000
  C   C2024     1.0  0.74040  0.13986  0.38038  1.0000
  C   C2025     1.0  0.77205  0.11753  0.38808  1.0000
  C   C2026     1.0  0.75902  0.13668  0.38756  1.0000
  H   H2414     1.0  0.75326  0.10020  0.33424  1.0000
  H   H2415     1.0  0.73524  0.08296  0.33741  1.0000
  H   H2416     1.0  0.72609  0.10862  0.34236  1.0000
  H   H2417     1.0  0.77261  0.07141  0.35673  1.0000
  H   H2418     1.0  0.75269  0.05646  0.36006  1.0000
  H   H2419     1.0  0.75988  0.06139  0.38225  1.0000
  H   H2420     1.0  0.70901  0.09573  0.37727  1.0000
  H   H2421     1.0  0.71753  0.06957  0.37347  1.0000
  H   H2422     1.0  0.72352  0.07759  0.39493  1.0000
  H   H2423     1.0  0.72032  0.12718  0.36802  1.0000
  H   H2424     1.0  0.77785  0.08730  0.38158  1.0000
  H   H2425     1.0  0.73032  0.15482  0.37998  1.0000
  H   H2426     1.0  0.76348  0.14910  0.39261  1.0000
  N   N137      1.0  0.82382  0.05186  0.09916  1.0000
  C   C2027     1.0  0.84078  0.04201  0.08454  1.0000
  C   C2028     1.0  0.82957  0.07080  0.10277  1.0000
  C   C2029     1.0  0.82205  0.03735  0.11920  1.0000
  C   C2030     1.0  0.80464  0.05707  0.09018  1.0000
  C   C2031     1.0  0.78865  0.04495  0.09661  1.0000
  C   C2032     1.0  0.80206  0.07393  0.07361  1.0000
  C   C2033     1.0  0.77079  0.05015  0.08771  1.0000
  C   C2034     1.0  0.78401  0.07914  0.06502  1.0000
  C   C2035     1.0  0.76838  0.06729  0.07211  1.0000
  H   H2427     1.0  0.83738  0.02740  0.08185  1.0000
  H   H2428     1.0  0.84352  0.05232  0.06940  1.0000
  H   H2429     1.0  0.85567  0.03799  0.09036  1.0000
  H   H2430     1.0  0.83472  0.08115  0.08824  1.0000
  H   H2431     1.0  0.84293  0.06705  0.11112  1.0000
  H   H2432     1.0  0.81631  0.07984  0.11192  1.0000
  H   H2433     1.0  0.82069  0.02167  0.11748  1.0000
  H   H2434     1.0  0.83621  0.03482  0.12623  1.0000
  H   H2435     1.0  0.80855  0.04326  0.13046  1.0000
  H   H2436     1.0  0.78962  0.03127  0.10838  1.0000
  H   H2437     1.0  0.81406  0.08313  0.06696  1.0000
  H   H2438     1.0  0.75872  0.04075  0.09289  1.0000
  H   H2439     1.0  0.78223  0.09232  0.05266  1.0000
  H   H2440     1.0  0.75442  0.07123  0.06540  1.0000
  N   N138      1.0  0.83474  0.03586  0.01059  1.0000
  C   C2036     1.0  0.84927  0.04845  0.99636  1.0000
  H   H2441     1.0  0.85080  0.04658  0.98011  1.0000
  H   H2442     1.0  0.72569  0.18944  0.98191  1.0000
  C   C2037     1.0  0.81383  0.04278  0.00496  1.0000
  H   H2443     1.0  0.97584  0.18360  0.35914  1.0000
  C   C2038     1.0  0.79720  0.05443  0.01693  1.0000
  H   H2444     1.0  0.77353  0.98681  0.09022  1.0000
  C   C2039     1.0  0.77780  0.06121  0.01091  1.0000
  S   S561      1.0  0.86666  0.10445  0.98376  1.0000
  C   C2040     1.0  0.83520  0.03793  0.03195  1.0000
  H   H2445     1.0  0.70525  0.16004  0.01829  1.0000
  C   C2041     1.0  0.77424  0.05636  0.99310  1.0000
  H   H2446     1.0  0.71212  0.04147  0.00415  1.0000
  H   H2447     1.0  0.95985  0.13996  0.26561  1.0000
  H   H2448     1.0  0.92865  0.12857  0.24607  1.0000
  C   C2042     1.0  0.86385  0.99834  0.25782  1.0000
  H   H2449     1.0  0.94369  0.99993  0.16142  1.0000
  H   H2450     1.0  0.85963  0.00808  0.24388  1.0000
  C   C2043     1.0  0.94733  0.13258  0.27619  1.0000
  H   H2451     1.0  0.79879  0.05855  0.03097  1.0000
  C   C2044     1.0  0.72242  0.13865  0.98927  1.0000
  H   H2452     1.0  0.76540  0.07020  0.02018  1.0000
  C   C2045     1.0  0.73971  0.02301  0.99038  1.0000
  H   H2453     1.0  0.77145  0.02103  0.02909  1.0000
  C   C2046     1.0  0.74432  0.00644  0.08550  1.0000
  S   S562      1.0  0.97154  0.12216  0.32617  1.0000
  H   H2454     1.0  0.82381  0.02947  0.04332  1.0000
  H   H2455     1.0  0.77148  0.13594  0.09809  1.0000
  H   H2456     1.0  0.74998  0.01264  0.19450  1.0000
  C   C2047     1.0  0.76516  0.99778  0.07930  1.0000
  H   H2457     1.0  0.94532  0.98798  0.13996  1.0000
  H   H2458     1.0  0.89153  0.21163  0.34301  1.0000
  H   H2459     1.0  0.83515  0.12185  0.29926  1.0000
  H   H2460     1.0  0.86510  0.04433  0.00032  1.0000
  C   C2048     1.0  0.96369  0.13652  0.20408  1.0000
  H   H2461     1.0  0.93617  0.15485  0.32238  1.0000
  C   C2049     1.0  0.84248  0.01376  0.00884  1.0000
  H   H2462     1.0  0.86548  0.99437  0.17030  1.0000
  H   H2463     1.0  0.90775  0.08597  0.31635  1.0000
  C   C2050     1.0  0.73562  0.00172  0.32026  1.0000
  H   H2464     1.0  0.73672  0.00216  0.10122  1.0000
  H   H2465     1.0  0.79109  0.99869  0.99808  1.0000
  C   C2051     1.0  0.73772  0.99797  0.34096  1.0000
  H   H2466     1.0  0.92572  0.22180  0.33368  1.0000
  Fe  Fe289     1.0  0.85958  0.13914  0.97671  1.0000
  C   C2052     1.0  0.93182  0.19886  0.27013  1.0000
  H   H2467     1.0  0.97072  0.23209  0.26159  1.0000
  C   C2053     1.0  0.93547  0.99083  0.15486  1.0000
  H   H2468     1.0  0.84323  0.12800  0.26117  1.0000
  C   C2054     1.0  0.83693  0.00476  0.21088  1.0000
  C   C2055     1.0  0.79763  0.13522  0.11235  1.0000
  H   H2469     1.0  0.85743  0.14460  0.10925  1.0000
  C   C2056     1.0  0.77144  0.01877  0.21106  1.0000
  C   C2057     1.0  0.95311  0.12306  0.19847  1.0000
  H   H2470     1.0  0.85909  0.11716  0.11839  1.0000
  C   C2058     1.0  0.85201  0.13265  0.12232  1.0000
  C   C2059     1.0  0.83133  0.12951  0.09065  1.0000
  S   S563      1.0  0.70766  0.03227  0.07971  1.0000
  H   H2471     1.0  0.97802  0.12800  0.36488  1.0000
  H   H2472     1.0  0.72129  0.99416  0.29773  1.0000
  H   H2473     1.0  0.93755  0.16835  0.98260  1.0000
  C   C2060     1.0  0.79080  0.01224  0.21714  1.0000
  H   H2474     1.0  0.93143  0.98572  0.19499  1.0000
  C   C2061     1.0  0.96717  0.19883  0.36271  1.0000
  H   H2475     1.0  0.81385  0.99670  0.24824  1.0000
  C   C2062     1.0  0.69846  0.16575  0.00404  1.0000
  C   C2063     1.0  0.80985  0.03876  0.98653  1.0000
  S   S564      1.0  0.98526  0.16364  0.27893  1.0000
  S   S565      1.0  0.98722  0.14804  0.22730  1.0000
  H   H2476     1.0  0.85339  0.99964  0.21300  1.0000
  C   C2064     1.0  0.79020  0.04500  0.98103  1.0000
  H   H2477     1.0  0.69285  0.18260  0.00357  1.0000
  C   C2065     1.0  0.97618  0.21459  0.32723  1.0000
  H   H2478     1.0  0.90632  0.98713  0.18935  1.0000
  N   N139      1.0  0.71372  0.16111  0.98546  1.0000
  C   C2066     1.0  0.72000  0.03497  0.99062  1.0000
  H   H2479     1.0  0.73459  0.13407  0.97623  1.0000
  C   C2067     1.0  0.73105  0.17250  0.98286  1.0000
  S   S566      1.0  0.85210  0.23123  0.33174  1.0000
  C   C2068     1.0  0.91300  0.23176  0.32718  1.0000
  H   H2480     1.0  0.94920  0.14394  0.97478  1.0000
  H   H2481     1.0  0.84543  0.18265  0.95468  1.0000
  Fe  Fe290     1.0  0.75228  0.03284  0.86192  1.0000
  S   S567      1.0  0.77008  0.05000  0.83354  1.0000
  C   C2069     1.0  0.94593  0.15666  0.93485  1.0000
  Fe  Fe291     1.0  0.76611  0.05587  0.89040  1.0000
  S   S568      1.0  0.78410  0.07467  0.86430  1.0000
  S   S569      1.0  0.76197  0.06287  0.92249  1.0000
  Fe  Fe292     1.0  0.75755  0.07818  0.84803  1.0000
  S   S570      1.0  0.74738  0.10920  0.82927  1.0000
  Fe  Fe293     1.0  0.79562  0.04525  0.85207  1.0000
  S   S571      1.0  0.82955  0.04137  0.83685  1.0000
  S   S572      1.0  0.73824  0.06187  0.87514  1.0000
  S   S573      1.0  0.77907  0.02553  0.87956  1.0000
  Fe  Fe294     1.0  0.96342  0.09113  0.82703  1.0000
  S   S574      1.0  0.95199  0.08355  0.86100  1.0000
  C   C2070     1.0  0.96779  0.17219  0.94889  1.0000
  Fe  Fe295     1.0  0.93280  0.13082  0.82306  1.0000
  S   S575      1.0  0.91938  0.12688  0.85669  1.0000
  S   S576      1.0  0.92063  0.15719  0.79999  1.0000
  Fe  Fe296     1.0  0.95250  0.11692  0.86107  1.0000
  H   H2482     1.0  0.81017  0.99984  0.96213  1.0000
  Fe  Fe297     1.0  0.91997  0.09413  0.85337  1.0000
  S   S577      1.0  0.89277  0.07854  0.87067  1.0000
  S   S578      1.0  0.96600  0.12367  0.82751  1.0000
  S   S579      1.0  0.93137  0.09878  0.81936  1.0000
  H   H2483     1.0  0.95696  0.14177  0.93710  1.0000
  C   C2071     1.0  0.69279  0.16064  0.93711  1.0000
  C   C2072     1.0  0.66942  0.10947  0.94093  1.0000
  C   C2073     1.0  0.79478  0.08942  0.95058  1.0000
  H   H2484     1.0  0.70156  0.11028  0.94057  1.0000
  H   H2485     1.0  0.66786  0.02690  0.71759  1.0000
  H   H2486     1.0  0.69443  0.98929  0.76796  1.0000
  C   C2074     1.0  0.87301  0.15820  0.84714  1.0000
  S   S580      1.0  0.68587  0.17413  0.87859  1.0000
  C   C2075     1.0  0.94367  0.99959  0.82035  1.0000
  H   H2487     1.0  0.84543  0.09844  0.83500  1.0000
  C   C2076     1.0  0.68746  0.10549  0.94963  1.0000
  H   H2488     1.0  0.93546  0.19029  0.77042  1.0000
  C   C2077     1.0  0.70353  0.16768  0.96714  1.0000
  N   N140      1.0  0.71010  0.03574  0.93702  1.0000
  C   C2078     1.0  0.93274  0.19452  0.78547  1.0000
  C   C2079     1.0  0.66391  0.08929  0.57620  1.0000
  S   S581      1.0  0.72730  0.01292  0.86491  1.0000
  C   C2080     1.0  0.87709  0.17756  0.93891  1.0000
  H   H2489     1.0  0.77567  0.13271  0.84008  1.0000
  C   C2081     1.0  0.69063  0.02711  0.94272  1.0000
  C   C2082     1.0  0.86839  0.14343  0.86472  1.0000
  C   C2083     1.0  0.86189  0.18528  0.86744  1.0000
  S   S582      1.0  0.96748  0.12287  0.88585  1.0000
  H   H2490     1.0  0.82287  0.14076  0.79943  1.0000
  H   H2491     1.0  0.81968  0.10301  0.80340  1.0000
  C   C2084     1.0  0.93866  0.15882  0.97070  1.0000
  H   H2492     1.0  0.92321  0.15454  0.97191  1.0000
  H   H2493     1.0  0.95176  0.16656  0.87141  1.0000
  C   C2085     1.0  0.65615  0.11020  0.56828  1.0000
  C   C2086     1.0  0.92569  0.18075  0.80295  1.0000
  C   C2087     1.0  0.92233  0.18612  0.82245  1.0000
  C   C2088     1.0  0.92529  0.20565  0.82432  1.0000
  H   H2494     1.0  0.74251  0.16999  0.96864  1.0000
  H   H2495     1.0  0.91697  0.17545  0.83600  1.0000
  H   H2496     1.0  0.92231  0.20998  0.83934  1.0000
  H   H2497     1.0  0.65828  0.13948  0.79601  1.0000
  C   C2089     1.0  0.73079  0.12680  0.84387  1.0000
  C   C2090     1.0  0.73026  0.14799  0.83670  1.0000
  C   C2091     1.0  0.71694  0.16242  0.84785  1.0000
  C   C2092     1.0  0.70359  0.15574  0.86586  1.0000
  C   C2093     1.0  0.70404  0.13453  0.87307  1.0000
  C   C2094     1.0  0.71780  0.12005  0.86217  1.0000
  H   H2498     1.0  0.74021  0.15329  0.82254  1.0000
  H   H2499     1.0  0.71660  0.17880  0.84222  1.0000
  H   H2500     1.0  0.69378  0.12928  0.88702  1.0000
  H   H2501     1.0  0.71787  0.10375  0.86763  1.0000
  C   C2095     1.0  0.84676  0.05251  0.84592  1.0000
  C   C2096     1.0  0.84214  0.05722  0.86574  1.0000
  C   C2097     1.0  0.85644  0.06521  0.87297  1.0000
  C   C2098     1.0  0.87518  0.06922  0.86029  1.0000
  C   C2099     1.0  0.87956  0.06517  0.84020  1.0000
  C   C2100     1.0  0.86553  0.05652  0.83318  1.0000
  H   H2502     1.0  0.82781  0.05413  0.87572  1.0000
  H   H2503     1.0  0.85296  0.06820  0.88854  1.0000
  H   H2504     1.0  0.89391  0.06823  0.83023  1.0000
  H   H2505     1.0  0.86922  0.05293  0.81781  1.0000
  C   C2101     1.0  0.78264  0.07081  0.92935  1.0000
  C   C2102     1.0  0.77848  0.08443  0.94346  1.0000
  H   H2506     1.0  0.77263  0.11685  0.90503  1.0000
  C   C2103     1.0  0.81529  0.08036  0.94400  1.0000
  C   C2104     1.0  0.81942  0.06699  0.92969  1.0000
  C   C2105     1.0  0.80321  0.06241  0.92223  1.0000
  H   H2507     1.0  0.66448  0.07696  0.56804  1.0000
  H   H2508     1.0  0.97683  0.10751  0.78533  1.0000
  H   H2509     1.0  0.83524  0.05989  0.92456  1.0000
  H   H2510     1.0  0.80657  0.05179  0.91150  1.0000
  C   C2106     1.0  0.93103  0.03419  0.83963  1.0000
  H   H2511     1.0  0.83444  0.21332  0.92903  1.0000
  C   C2107     1.0  0.85036  0.20534  0.92700  1.0000
  C   C2108     1.0  0.68417  0.98684  0.68203  1.0000
  H   H2512     1.0  0.91428  0.99114  0.83615  1.0000
  C   C2109     1.0  0.95018  0.03166  0.82644  1.0000
  H   H2513     1.0  0.71396  0.09130  0.81700  1.0000
  H   H2514     1.0  0.73762  0.03298  0.91387  1.0000
  C   C2110     1.0  0.73430  0.99535  0.82938  1.0000
  C   C2111     1.0  0.81153  0.10358  0.81950  1.0000
  C   C2112     1.0  0.66611  0.11147  0.53159  1.0000
  C   C2113     1.0  0.81281  0.13992  0.81490  1.0000
  H   H2515     1.0  0.79664  0.14342  0.81191  1.0000
  H   H2516     1.0  0.81510  0.15255  0.82204  1.0000
  H   H2517     1.0  0.84586  0.12541  0.83426  1.0000
  H   H2518     1.0  0.84896  0.11528  0.81106  1.0000
  C   C2114     1.0  0.93974  0.20443  0.92632  1.0000
  C   C2115     1.0  0.91319  0.19676  0.95590  1.0000
  C   C2116     1.0  0.66812  0.07752  0.86001  1.0000
  S   S583      1.0  0.66344  0.98748  0.58254  1.0000
  C   C2117     1.0  0.70485  0.05844  0.93023  1.0000
  H   H2519     1.0  0.89626  0.20740  0.89410  1.0000
  N   N141      1.0  0.85644  0.13401  0.90349  1.0000
  C   C2118     1.0  0.86322  0.11218  0.90057  1.0000
  C   C2119     1.0  0.86738  0.13683  0.91932  1.0000
  C   C2120     1.0  0.83384  0.13725  0.91147  1.0000
  C   C2121     1.0  0.86082  0.14922  0.88440  1.0000
  H   H2520     1.0  0.88023  0.10891  0.89485  1.0000
  H   H2521     1.0  0.86023  0.10107  0.91522  1.0000
  H   H2522     1.0  0.85491  0.10822  0.88980  1.0000
  H   H2523     1.0  0.86073  0.15145  0.92515  1.0000
  H   H2524     1.0  0.88415  0.13702  0.91312  1.0000
  H   H2525     1.0  0.86631  0.12434  0.93312  1.0000
  H   H2526     1.0  0.82504  0.13634  0.89961  1.0000
  H   H2527     1.0  0.82976  0.12546  0.92531  1.0000
  H   H2528     1.0  0.82807  0.15267  0.91610  1.0000
  H   H2529     1.0  0.87166  0.12750  0.86259  1.0000
  H   H2530     1.0  0.67833  0.12060  0.53107  1.0000
  C   C2122     1.0  0.88521  0.20216  0.90736  1.0000
  H   H2531     1.0  0.75569  0.13174  0.87472  1.0000
  H   H2532     1.0  0.66319  0.13123  0.60781  1.0000
  H   H2533     1.0  0.83122  0.10482  0.86622  1.0000
  C   C2123     1.0  0.95712  0.01431  0.81631  1.0000
  C   C2124     1.0  0.67365  0.99352  0.71687  1.0000
  C   C2125     1.0  0.68450  0.19532  0.94439  1.0000
  H   H2534     1.0  0.74920  0.00030  0.82550  1.0000
  S   S584      1.0  0.83632  0.08438  0.95368  1.0000
  H   H2535     1.0  0.70134  0.11544  0.79093  1.0000
  H   H2536     1.0  0.95028  0.16439  0.91871  1.0000
  H   H2537     1.0  0.71477  0.03051  0.90568  1.0000
  H   H2538     1.0  0.66110  0.11558  0.51633  1.0000
  C   C2126     1.0  0.65719  0.08188  0.67130  1.0000
  H   H2539     1.0  0.81032  0.10361  0.90028  1.0000
  H   H2540     1.0  0.69380  0.01017  0.94861  1.0000
  C   C2127     1.0  0.72289  0.02678  0.91915  1.0000
  C   C2128     1.0  0.66362  0.11953  0.59883  1.0000
  H   H2541     1.0  0.81544  0.08783  0.82865  1.0000
  C   C2129     1.0  0.68648  0.06336  0.85685  1.0000
  H   H2542     1.0  0.69284  0.06595  0.94168  1.0000
  C   C2130     1.0  0.97684  0.14593  0.88443  1.0000
  C   C2131     1.0  0.90824  0.22938  0.93232  1.0000
  C   C2132     1.0  0.85728  0.17066  0.88510  1.0000
  C   C2133     1.0  0.86991  0.17904  0.84853  1.0000
  H   H2543     1.0  0.79455  0.10641  0.81941  1.0000
  C   C2134     1.0  0.81498  0.11138  0.86717  1.0000
  H   H2544     1.0  0.90706  0.17643  0.91914  1.0000
  C   C2135     1.0  0.78403  0.12711  0.85275  1.0000
  C   C2136     1.0  0.72898  0.98365  0.81682  1.0000
  C   C2137     1.0  0.72060  0.03130  0.95509  1.0000
  H   H2545     1.0  0.69421  0.14254  0.79131  1.0000
  N   N142      1.0  0.66643  0.99459  0.69736  1.0000
  H   H2546     1.0  0.98771  0.11988  0.74812  1.0000
  H   H2547     1.0  0.76255  0.09078  0.94923  1.0000
  C   C2138     1.0  0.93304  0.19041  0.94428  1.0000
  H   H2548     1.0  0.67949  0.98791  0.66694  1.0000
  C   C2139     1.0  0.65748  0.01589  0.68825  1.0000
  N   N143      1.0  0.81755  0.11943  0.82818  1.0000
  H   H2549     1.0  0.85951  0.20153  0.86849  1.0000
  H   H2550     1.0  0.87974  0.15344  0.83241  1.0000
  H   H2551     1.0  0.67220  0.08477  0.66276  1.0000
  C   C2140     1.0  0.84041  0.11451  0.82719  1.0000
  H   H2552     1.0  0.71871  0.06590  0.92776  1.0000
  H   H2553     1.0  0.94753  0.98588  0.81345  1.0000
  H   H2554     1.0  0.67353  0.09487  0.53352  1.0000
  H   H2555     1.0  0.69063  0.99668  0.86569  1.0000
  C   C2141     1.0  0.68093  0.00980  0.74324  1.0000
  C   C2142     1.0  0.90106  0.21597  0.94991  1.0000
  H   H2556     1.0  0.98116  0.05116  0.88268  1.0000
  C   C2143     1.0  0.70136  0.99327  0.85193  1.0000
  H   H2557     1.0  0.72665  0.00961  0.92282  1.0000
  H   H2558     1.0  0.68602  0.13918  0.83839  1.0000
  H   H2559     1.0  0.96841  0.18370  0.95827  1.0000
  H   H2560     1.0  0.92602  0.04765  0.84709  1.0000
  C   C2144     1.0  0.92445  0.00237  0.83348  1.0000
  C   C2145     1.0  0.78185  0.11806  0.88968  1.0000
  C   C2146     1.0  0.67056  0.09881  0.60640  1.0000
  H   H2561     1.0  0.68264  0.02964  0.92929  1.0000
  H   H2562     1.0  0.68827  0.04818  0.86650  1.0000
  H   H2563     1.0  0.90625  0.18687  0.96923  1.0000
  C   C2147     1.0  0.70248  0.15378  0.95435  1.0000
  H   H2564     1.0  0.97195  0.20808  0.81614  1.0000
  C   C2148     1.0  0.67088  0.08376  0.59502  1.0000
  H   H2565     1.0  0.66921  0.02629  0.68380  1.0000
  C   C2149     1.0  0.68192  0.10286  0.83108  1.0000
  S   S585      1.0  0.88509  0.15537  0.95663  1.0000
  H   H2566     1.0  0.66957  0.11754  0.92524  1.0000
  C   C2150     1.0  0.92759  0.22366  0.92060  1.0000
  C   C2151     1.0  0.66579  0.09696  0.84731  1.0000
  H   H2567     1.0  0.65889  0.13955  0.84062  1.0000
  C   C2152     1.0  0.69709  0.12709  0.80128  1.0000
  H   H2568     1.0  0.68067  0.02360  0.74923  1.0000
  C   C2153     1.0  0.80575  0.11967  0.84938  1.0000
  C   C2154     1.0  0.80311  0.11059  0.88696  1.0000
  H   H2569     1.0  0.71075  0.12686  0.80831  1.0000
  H   H2570     1.0  0.96259  0.19835  0.87529  1.0000
  H   H2571     1.0  0.69865  0.06250  0.91558  1.0000
  C   C2155     1.0  0.97185  0.18345  0.87984  1.0000
  N   N144      1.0  0.94603  0.16990  0.94974  1.0000
  H   H2572     1.0  0.87399  0.19037  0.83496  1.0000
  H   H2573     1.0  0.74998  0.01316  0.94203  1.0000
  H   H2574     1.0  0.67931  0.03444  0.95483  1.0000
  H   H2575     1.0  0.85118  0.17634  0.89939  1.0000
  H   H2576     1.0  0.71694  0.05759  0.83885  1.0000
  H   H2577     1.0  0.69229  0.14990  0.92738  1.0000
  C   C2156     1.0  0.86472  0.21261  0.91003  1.0000
  H   H2578     1.0  0.97366  0.17116  0.81837  1.0000
  H   H2579     1.0  0.97749  0.15730  0.95466  1.0000
  N   N145      1.0  0.97721  0.01240  0.80191  1.0000
  C   C2157     1.0  0.93247  0.21932  0.80677  1.0000
  C   C2158     1.0  0.72062  0.00006  0.84722  1.0000
  H   H2580     1.0  0.78753  0.04188  0.96681  1.0000
  C   C2159     1.0  0.98233  0.99338  0.79264  1.0000
  C   C2160     1.0  0.89131  0.18457  0.92166  1.0000
  H   H2581     1.0  0.67745  0.21141  0.94050  1.0000
  H   H2582     1.0  0.95421  0.20045  0.91624  1.0000
  C   C2161     1.0  0.96567  0.16541  0.87757  1.0000
  H   H2583     1.0  0.93028  0.15277  0.93635  1.0000
  C   C2162     1.0  0.85655  0.18794  0.94148  1.0000
  C   C2163     1.0  0.67354  0.01142  0.72501  1.0000
  C   C2164     1.0  0.93662  0.21357  0.78744  1.0000
  H   H2584     1.0  0.97581  0.17715  0.93295  1.0000
  C   C2165     1.0  0.70061  0.08817  0.82856  1.0000
  C   C2166     1.0  0.68874  0.99050  0.75380  1.0000
  H   H2585     1.0  0.67624  0.06763  0.60105  1.0000
  C   C2167     1.0  0.77235  0.12643  0.87261  1.0000
  S   S586      1.0  0.66025  0.05490  0.64548  1.0000
  H   H2586     1.0  0.67553  0.09433  0.62122  1.0000
  H   H2587     1.0  0.66812  0.22033  0.89403  1.0000
  H   H2588     1.0  0.90314  0.02185  0.85306  1.0000
  H   H2589     1.0  0.96381  0.03145  0.77644  1.0000
  C   C2168     1.0  0.68718  0.09528  0.97004  1.0000
  H   H2590     1.0  0.79142  0.09961  0.96172  1.0000
  H   H2591     1.0  0.97056  0.99282  0.78349  1.0000
  H   H2592     1.0  0.69433  0.20012  0.97061  1.0000
  C   C2169     1.0  0.70266  0.06869  0.84119  1.0000
  H   H2593     1.0  0.67643  0.18644  0.91878  1.0000
  C   C2170     1.0  0.91814  0.01963  0.84306  1.0000
  C   C2171     1.0  0.66113  0.12447  0.80671  1.0000
  C   C2172     1.0  0.67364  0.14007  0.82952  1.0000
  C   C2173     1.0  0.65665  0.12526  0.57998  1.0000
  H   H2594     1.0  0.95942  0.04359  0.82405  1.0000
  H   H2595     1.0  0.94247  0.22401  0.77392  1.0000
  H   H2596     1.0  0.67166  0.15564  0.81963  1.0000
  N   N146      1.0  0.67870  0.12321  0.81731  1.0000
  C   C2174     1.0  0.69419  0.18867  0.96162  1.0000
  C   C2175     1.0  0.68383  0.18132  0.93218  1.0000
  H   H2597     1.0  0.97451  0.04530  0.79022  1.0000
  H   H2598     1.0  0.98054  0.06971  0.89833  1.0000
  H   H2599     1.0  0.69683  0.99599  0.67929  1.0000
  H   H2600     1.0  0.70905  0.13751  0.95726  1.0000
  C   C2176     1.0  0.97673  0.03039  0.78478  1.0000
  H   H2601     1.0  0.76554  0.00614  0.97243  1.0000
  C   C2177     1.0  0.74082  0.01928  0.95529  1.0000
  H   H2602     1.0  0.66401  0.11177  0.79772  1.0000
  H   H2603     1.0  0.97689  0.22852  0.85875  1.0000
  H   H2604     1.0  0.88565  0.22016  0.95856  1.0000
  S   S587      1.0  0.82951  0.14025  0.96670  1.0000
  C   C2178     1.0  0.98437  0.19765  0.82280  1.0000
  C   C2179     1.0  0.98526  0.17647  0.82398  1.0000
  C   C2180     1.0  0.98848  0.09768  0.77628  1.0000
  C   C2181     1.0  0.71051  0.03903  0.97331  1.0000
  C   C2182     1.0  0.75010  0.01521  0.97274  1.0000
  H   H2605     1.0  0.69532  0.04864  0.97419  1.0000
  C   C2183     1.0  0.81303  0.98607  0.97364  1.0000
  Fe  Fe298     1.0  0.94836  0.32784  0.26418  1.0000
  S   S588      1.0  0.93134  0.35176  0.28324  1.0000
  S   S589      1.0  0.96327  0.33824  0.23133  1.0000
  Fe  Fe299     1.0  0.93762  0.29231  0.29846  1.0000
  S   S590      1.0  0.92057  0.31310  0.32074  1.0000
  S   S591      1.0  0.94027  0.25789  0.30796  1.0000
  Fe  Fe300     1.0  0.90675  0.33191  0.29372  1.0000
  S   S592      1.0  0.87217  0.34106  0.29557  1.0000
  Fe  Fe301     1.0  0.94685  0.33076  0.30831  1.0000
  S   S593      1.0  0.96222  0.34525  0.32662  1.0000
  S   S594      1.0  0.92230  0.30989  0.27209  1.0000
  S   S595      1.0  0.96537  0.30806  0.28870  1.0000
  Fe  Fe302     1.0  0.74319  0.41627  0.36106  1.0000
  S   S596      1.0  0.76607  0.39195  0.34605  1.0000
  H   H2606     1.0  0.96975  0.40579  0.21464  1.0000
  Fe  Fe303     1.0  0.74754  0.39271  0.40386  1.0000
  S   S597      1.0  0.77062  0.36667  0.39225  1.0000
  S   S598      1.0  0.73906  0.38761  0.43825  1.0000
  Fe  Fe304     1.0  0.78493  0.39145  0.36984  1.0000
  S   S599      1.0  0.81943  0.39003  0.36493  1.0000
  Fe  Fe305     1.0  0.74957  0.36962  0.36994  1.0000
  S   S600      1.0  0.74372  0.34129  0.36155  1.0000
  S   S601      1.0  0.76342  0.41774  0.38309  1.0000
  S   S602      1.0  0.72506  0.39384  0.38318  1.0000
  C   C2184     1.0  0.68930  0.32480  0.46621  1.0000
  H   H2607     1.0  0.96671  0.24957  0.34244  1.0000
  H   H2608     1.0  0.86545  0.29331  0.32875  1.0000
  C   C2185     1.0  0.66298  0.40136  0.47114  1.0000
  H   H2609     1.0  0.75398  0.34080  0.42964  1.0000
  C   C2186     1.0  0.67299  0.40604  0.32455  1.0000
  S   S603      1.0  0.69347  0.46298  0.05792  1.0000
  H   H2610     1.0  0.82275  0.46176  0.27511  1.0000
  C   C2187     1.0  0.86088  0.30214  0.34167  1.0000
  C   C2188     1.0  0.67834  0.46709  0.37637  1.0000
  H   H2611     1.0  0.98095  0.25487  0.28049  1.0000
  H   H2612     1.0  0.65734  0.34111  0.37082  1.0000
  H   H2613     1.0  0.75751  0.44567  0.46441  1.0000
  H   H2614     1.0  0.76666  0.42931  0.30768  1.0000
  H   H2615     1.0  0.76131  0.29906  0.38121  1.0000
  C   C2189     1.0  0.98747  0.40621  0.27628  1.0000
  H   H2616     1.0  0.76539  0.41823  0.46588  1.0000
  C   C2190     1.0  0.76655  0.30679  0.40881  1.0000
  H   H2617     1.0  0.67594  0.34568  0.04319  1.0000
  C   C2191     1.0  0.84798  0.25700  0.46939  1.0000
  H   H2618     1.0  0.71599  0.48071  0.11573  1.0000
  H   H2619     1.0  0.87250  0.31245  0.33918  1.0000
  H   H2620     1.0  0.84934  0.33127  0.36218  1.0000
  H   H2621     1.0  0.71067  0.37645  0.34983  1.0000
  C   C2192     1.0  0.79972  0.42816  0.32527  1.0000
  H   H2622     1.0  0.84551  0.31185  0.33978  1.0000
  C   C2193     1.0  0.66555  0.37074  0.33701  1.0000
  H   H2623     1.0  0.89279  0.28433  0.36190  1.0000
  C   C2194     1.0  0.70549  0.47333  0.09063  1.0000
  C   C2195     1.0  0.72177  0.33164  0.37600  1.0000
  C   C2196     1.0  0.71801  0.31316  0.37248  1.0000
  C   C2197     1.0  0.70036  0.30524  0.38333  1.0000
  C   C2198     1.0  0.68611  0.31604  0.39735  1.0000
  C   C2199     1.0  0.68970  0.33462  0.40089  1.0000
  C   C2200     1.0  0.70776  0.34225  0.39043  1.0000
  H   H2624     1.0  0.72881  0.30491  0.36136  1.0000
  H   H2625     1.0  0.69763  0.29081  0.38067  1.0000
  H   H2626     1.0  0.67881  0.34286  0.41194  1.0000
  H   H2627     1.0  0.71070  0.35634  0.39344  1.0000
  C   C2201     1.0  0.76201  0.38203  0.44836  1.0000
  H   H2628     1.0  0.67234  0.34065  0.31513  1.0000
  C   C2202     1.0  0.85761  0.41901  0.26588  1.0000
  H   H2629     1.0  0.67716  0.38793  0.38553  1.0000
  C   C2203     1.0  0.79747  0.38654  0.44594  1.0000
  C   C2204     1.0  0.77958  0.38997  0.43720  1.0000
  S   S604      1.0  0.66403  0.30578  0.41017  1.0000
  C   C2205     1.0  0.69364  0.47062  0.33419  1.0000
  H   H2630     1.0  0.81095  0.39297  0.43740  1.0000
  H   H2631     1.0  0.77928  0.39920  0.42203  1.0000
  C   C2206     1.0  0.85798  0.35392  0.31554  1.0000
  C   C2207     1.0  0.86773  0.36309  0.32664  1.0000
  C   C2208     1.0  0.85579  0.37405  0.34194  1.0000
  C   C2209     1.0  0.83417  0.37554  0.34638  1.0000
  C   C2210     1.0  0.82453  0.36576  0.33573  1.0000
  C   C2211     1.0  0.83640  0.35519  0.32016  1.0000
  H   H2632     1.0  0.88440  0.36213  0.32315  1.0000
  H   H2633     1.0  0.86332  0.38151  0.35025  1.0000
  H   H2634     1.0  0.80793  0.36651  0.33929  1.0000
  H   H2635     1.0  0.82884  0.34797  0.31167  1.0000
  C   C2212     1.0  0.91579  0.25042  0.31388  1.0000
  C   C2213     1.0  0.89894  0.26295  0.30559  1.0000
  C   C2214     1.0  0.87947  0.25675  0.31050  1.0000
  H   H2636     1.0  0.85631  0.45155  0.25454  1.0000
  H   H2637     1.0  0.90084  0.27735  0.29530  1.0000
  H   H2638     1.0  0.86650  0.26642  0.30399  1.0000
  H   H2639     1.0  0.79238  0.33652  0.42400  1.0000
  H   H2640     1.0  0.67821  0.33808  0.46094  1.0000
  C   C2215     1.0  0.76265  0.36994  0.46789  1.0000
  C   C2216     1.0  0.68398  0.36592  0.34548  1.0000
  H   H2641     1.0  0.77389  0.46128  0.31085  1.0000
  H   H2642     1.0  0.94560  0.23586  0.35038  1.0000
  H   H2643     1.0  0.87801  0.24592  0.45252  1.0000
  H   H2644     1.0  0.78648  0.40806  0.30190  1.0000
  C   C2217     1.0  0.84977  0.29885  0.41687  1.0000
  H   H2645     1.0  0.88108  0.26261  0.37619  1.0000
  H   H2646     1.0  0.66007  0.46143  0.21193  1.0000
  C   C2218     1.0  0.69728  0.45489  0.36924  1.0000
  C   C2219     1.0  0.66495  0.33634  0.33148  1.0000
  H   H2647     1.0  0.70603  0.44433  0.38011  1.0000
  H   H2648     1.0  0.79967  0.46669  0.30517  1.0000
  C   C2220     1.0  0.84968  0.32152  0.37707  1.0000
  C   C2221     1.0  0.98344  0.33550  0.35828  1.0000
  C   C2222     1.0  0.86151  0.24609  0.45478  1.0000
  S   S605      1.0  0.72936  0.44284  0.33870  1.0000
  H   H2649     1.0  0.97451  0.34979  0.36270  1.0000
  C   C2223     1.0  0.66600  0.40111  0.39008  1.0000
  H   H2650     1.0  0.70068  0.41218  0.33175  1.0000
  H   H2651     1.0  0.88572  0.26691  0.34892  1.0000
  H   H2652     1.0  0.85480  0.38762  0.27990  1.0000
  H   H2653     1.0  0.74123  0.31967  0.44419  1.0000
  C   C2224     1.0  0.77420  0.29902  0.46175  1.0000
  C   C2225     1.0  0.79802  0.37466  0.46558  1.0000
  H   H2654     1.0  0.72280  0.43653  0.99708  1.0000
  C   C2226     1.0  0.71876  0.41899  0.03597  1.0000
  H   H2655     1.0  0.67813  0.43381  0.03952  1.0000
  H   H2656     1.0  0.75356  0.31944  0.40819  1.0000
  C   C2227     1.0  0.85456  0.29956  0.37964  1.0000
  C   C2228     1.0  0.70632  0.28978  0.46309  1.0000
  C   C2229     1.0  0.83258  0.23501  0.44620  1.0000
  C   C2230     1.0  0.69241  0.30746  0.45690  1.0000
  H   H2657     1.0  0.80647  0.31585  0.43993  1.0000
  H   H2658     1.0  0.81294  0.26116  0.40670  1.0000
  H   H2659     1.0  0.76337  0.28808  0.46341  1.0000
  H   H2660     1.0  0.95290  0.26745  0.26237  1.0000
  H   H2661     1.0  0.67749  0.32829  0.34032  1.0000
  C   C2231     1.0  0.75173  0.43075  0.46786  1.0000
  N   N147      1.0  0.70507  0.41780  0.02179  1.0000
  H   H2662     1.0  0.80396  0.41108  0.32896  1.0000
  H   H2663     1.0  0.78816  0.33548  0.45128  1.0000
  C   C2232     1.0  0.66695  0.48091  0.36240  1.0000
  H   H2664     1.0  0.80672  0.28178  0.43360  1.0000
  H   H2665     1.0  0.73071  0.40920  0.99809  1.0000
  N   N148      1.0  0.77450  0.31359  0.44177  1.0000
  C   C2233     1.0  0.69781  0.39766  0.02739  1.0000
  C   C2234     1.0  0.84751  0.40379  0.27894  1.0000
  C   C2235     1.0  0.84834  0.43976  0.26473  1.0000
  C   C2236     1.0  0.77881  0.30202  0.42454  1.0000
  Fe  Fe306     1.0  0.66795  0.44702  0.07880  1.0000
  C   C2237     1.0  0.69161  0.36611  0.01860  1.0000
  H   H2666     1.0  0.82860  0.28441  0.36442  1.0000
  H   H2667     1.0  0.65861  0.37091  0.21097  1.0000
  H   H2668     1.0  0.84441  0.26272  0.37768  1.0000
  H   H2669     1.0  0.69266  0.35651  0.00727  1.0000
  H   H2670     1.0  0.69148  0.45021  0.01910  1.0000
  H   H2671     1.0  0.95974  0.23765  0.36920  1.0000
  H   H2672     1.0  0.97822  0.35744  0.28207  1.0000
  H   H2673     1.0  0.67583  0.43405  0.01354  1.0000
  H   H2674     1.0  0.78110  0.42971  0.28190  1.0000
  C   C2238     1.0  0.69650  0.38067  0.34344  1.0000
  H   H2675     1.0  0.70628  0.38855  0.99688  1.0000
  C   C2239     1.0  0.82669  0.25703  0.47219  1.0000
  H   H2676     1.0  0.68892  0.35062  0.35374  1.0000
  C   C2240     1.0  0.78240  0.42521  0.29847  1.0000
  C   C2241     1.0  0.79108  0.32588  0.43913  1.0000
  H   H2677     1.0  0.68558  0.40023  0.05955  1.0000
  H   H2678     1.0  0.84175  0.34850  0.39148  1.0000
  H   H2679     1.0  0.84999  0.29009  0.43234  1.0000
  C   C2242     1.0  0.85402  0.28852  0.40014  1.0000
  C   C2243     1.0  0.84449  0.27505  0.36379  1.0000
  C   C2244     1.0  0.84558  0.32040  0.41374  1.0000
  C   C2245     1.0  0.69935  0.38467  0.01284  1.0000
  C   C2246     1.0  0.88078  0.27499  0.36236  1.0000
  C   C2247     1.0  0.87667  0.23834  0.32421  1.0000
  C   C2248     1.0  0.80009  0.27405  0.40718  1.0000
  C   C2249     1.0  0.84524  0.33169  0.39392  1.0000
  C   C2250     1.0  0.98473  0.39554  0.21015  1.0000
  H   H2680     1.0  0.85713  0.27179  0.40338  1.0000
  H   H2681     1.0  0.82101  0.39687  0.30085  1.0000
  C   C2251     1.0  0.68685  0.43466  0.02350  1.0000
  C   C2252     1.0  0.82812  0.40926  0.29090  1.0000
  C   C2253     1.0  0.69095  0.40074  0.33314  1.0000
  H   H2682     1.0  0.69962  0.47219  0.31785  1.0000
  H   H2683     1.0  0.79046  0.26951  0.38034  1.0000
  H   H2684     1.0  0.69175  0.36564  0.46369  1.0000
  C   C2254     1.0  0.77088  0.29519  0.39304  1.0000
  H   H2685     1.0  0.98650  0.41799  0.28534  1.0000
  N   N149      1.0  0.86005  0.28830  0.36209  1.0000
  H   H2686     1.0  0.78492  0.43252  0.33582  1.0000
  H   H2687     1.0  0.81199  0.43457  0.32938  1.0000
  H   H2688     1.0  0.67667  0.40490  0.46023  1.0000
  C   C2255     1.0  0.81822  0.43024  0.29021  1.0000
  C   C2256     1.0  0.79613  0.28573  0.42281  1.0000
  H   H2689     1.0  0.67297  0.36750  0.06914  1.0000
  H   H2690     1.0  0.87268  0.41466  0.25668  1.0000
  H   H2691     1.0  0.70848  0.27632  0.45593  1.0000
  C   C2257     1.0  0.71694  0.42161  0.00049  1.0000
  H   H2692     1.0  0.74280  0.43072  0.45571  1.0000
  H   H2693     1.0  0.78699  0.46455  0.28471  1.0000
  H   H2694     1.0  0.69705  0.46175  0.10041  1.0000
  H   H2695     1.0  0.70711  0.42280  0.98879  1.0000
  H   H2696     1.0  0.71811  0.35787  0.46708  1.0000
  C   C2258     1.0  0.82894  0.44542  0.27669  1.0000
  H   H2697     1.0  0.71043  0.41903  0.05207  1.0000
  H   H2698     1.0  0.84761  0.26700  0.35037  1.0000
  C   C2259     1.0  0.78742  0.27868  0.39238  1.0000
  C   C2260     1.0  0.78934  0.45803  0.30080  1.0000
  S   S606      1.0  0.67158  0.41549  0.09891  1.0000
  H   H2699     1.0  0.73200  0.40580  0.03617  1.0000
  H   H2700     1.0  0.75097  0.33553  0.45679  1.0000
  C   C2261     1.0  0.68055  0.37223  0.05344  1.0000
  C   C2262     1.0  0.98011  0.32902  0.34114  1.0000
  C   C2263     1.0  0.66812  0.40932  0.40660  1.0000
  H   H2701     1.0  0.84261  0.32841  0.42669  1.0000
  C   C2264     1.0  0.70509  0.45685  0.34813  1.0000
  N   N150      1.0  0.79780  0.43551  0.30335  1.0000
  C   C2265     1.0  0.68225  0.35990  0.03885  1.0000
  C   C2266     1.0  0.96387  0.27247  0.24814  1.0000
  H   H2702     1.0  0.68211  0.47365  0.14124  1.0000
  C   C2267     1.0  0.68795  0.39093  0.04780  1.0000
  H   H2703     1.0  0.72517  0.43365  0.03159  1.0000
  H   H2704     1.0  0.78969  0.28964  0.46355  1.0000
  H   H2705     1.0  0.68095  0.40267  0.41475  1.0000
  C   C2268     1.0  0.75425  0.32795  0.44308  1.0000
  S   S607      1.0  0.66138  0.42940  0.15429  1.0000
  H   H2706     1.0  0.67256  0.46582  0.39272  1.0000
  C   C2269     1.0  0.98290  0.37209  0.27447  1.0000
  C   C2270     1.0  0.70642  0.47687  0.06933  1.0000
  H   H2707     1.0  0.67649  0.39556  0.18387  1.0000
  C   C2271     1.0  0.81908  0.24596  0.46077  1.0000
  H   H2708     1.0  0.95656  0.27209  0.23496  1.0000
  H   H2709     1.0  0.98177  0.37941  0.21451  1.0000
  H   H2710     1.0  0.97605  0.23662  0.23378  1.0000
  H   H2711     1.0  0.96484  0.28883  0.24809  1.0000
  C   C2272     1.0  0.65983  0.39684  0.18597  1.0000
  H   H2712     1.0  0.66888  0.42167  0.31638  1.0000
  H   H2713     1.0  0.97636  0.38427  0.30251  1.0000
  H   H2714     1.0  0.68381  0.30761  0.44494  1.0000
  H   H2715     1.0  0.80264  0.24572  0.46336  1.0000
  N   N151      1.0  0.98461  0.25901  0.24739  1.0000
  C   C2273     1.0  0.66040  0.39134  0.32636  1.0000
  H   H2716     1.0  0.97946  0.29143  0.21343  1.0000
  C   C2274     1.0  0.98183  0.23763  0.24772  1.0000
  C   C2275     1.0  0.96147  0.23574  0.35294  1.0000
  C   C2276     1.0  0.98184  0.38723  0.28601  1.0000
  C   C2277     1.0  0.85385  0.23527  0.44312  1.0000
  H   H2717     1.0  0.98885  0.39858  0.19304  1.0000
  H   H2718     1.0  0.98904  0.30529  0.32240  1.0000
  Fe  Fe307     1.0  0.68846  0.39187  0.57271  1.0000
  S   S608      1.0  0.70372  0.41354  0.54704  1.0000
  S   S609      1.0  0.70421  0.36103  0.58728  1.0000
  Fe  Fe308     1.0  0.68566  0.43874  0.56427  1.0000
  H   H2719     1.0  0.96367  0.34276  0.75605  1.0000
  S   S610      1.0  0.67209  0.41646  0.59114  1.0000
  Fe  Fe309     1.0  0.83829  0.43396  0.80370  1.0000
  S   S611      1.0  0.80448  0.43345  0.81563  1.0000
  S   S612      1.0  0.86282  0.41187  0.81946  1.0000
  H   H2720     1.0  0.78008  0.45220  0.63228  1.0000
  H   H2721     1.0  0.78798  0.43017  0.59354  1.0000
  H   H2722     1.0  0.77554  0.33697  0.57838  1.0000
  Fe  Fe310     1.0  0.80080  0.46813  0.80940  1.0000
  H   H2723     1.0  0.86380  0.25613  0.55481  1.0000
  Fe  Fe311     1.0  0.80237  0.43661  0.78241  1.0000
  S   S613      1.0  0.78175  0.42029  0.77166  1.0000
  S   S614      1.0  0.83494  0.46852  0.80025  1.0000
  S   S615      1.0  0.83652  0.43461  0.77078  1.0000
  Fe  Fe312     1.0  0.87999  0.29301  0.84003  1.0000
  S   S616      1.0  0.87648  0.28556  0.87442  1.0000
  S   S617      1.0  0.86053  0.31799  0.82075  1.0000
  Fe  Fe313     1.0  0.91456  0.25646  0.83428  1.0000
  C   C2278     1.0  0.78244  0.41662  0.51989  1.0000
  H   H2724     1.0  0.74638  0.39436  0.49464  1.0000
  Fe  Fe314     1.0  0.87955  0.25248  0.87097  1.0000
  C   C2279     1.0  0.84333  0.46715  0.63612  1.0000
  Fe  Fe315     1.0  0.91126  0.27898  0.86879  1.0000
  S   S618      1.0  0.92942  0.28904  0.88789  1.0000
  S   S619      1.0  0.88017  0.26043  0.83685  1.0000
  S   S620      1.0  0.91455  0.28960  0.83472  1.0000
  H   H2725     1.0  0.88947  0.28115  0.50372  1.0000
  Fe  Fe316     1.0  0.88037  0.39958  0.67031  1.0000
  S   S621      1.0  0.85452  0.39061  0.65997  1.0000
  S   S622      1.0  0.88474  0.43169  0.67020  1.0000
  Fe  Fe317     1.0  0.90048  0.35561  0.68475  1.0000
  S   S623      1.0  0.87659  0.34221  0.67492  1.0000
  S   S624      1.0  0.92298  0.33694  0.70579  1.0000
  Fe  Fe318     1.0  0.87905  0.36651  0.64607  1.0000
  S   S625      1.0  0.87807  0.36581  0.61235  1.0000
  Fe  Fe319     1.0  0.85364  0.36711  0.68900  1.0000
  S   S626      1.0  0.82307  0.36072  0.70779  1.0000
  S   S627      1.0  0.90544  0.37749  0.65450  1.0000
  S   S628      1.0  0.87694  0.37859  0.70071  1.0000
  Fe  Fe320     1.0  0.82095  0.34012  0.49818  1.0000
  C   C2280     1.0  0.74356  0.44192  0.51924  1.0000
  Fe  Fe321     1.0  0.82722  0.31471  0.54001  1.0000
  S   S629      1.0  0.81699  0.28737  0.53295  1.0000
  S   S630      1.0  0.83464  0.31174  0.57226  1.0000
  Fe  Fe322     1.0  0.83652  0.29400  0.50159  1.0000
  Fe  Fe323     1.0  0.79212  0.31078  0.51928  1.0000
  S   S631      1.0  0.75900  0.30733  0.52282  1.0000
  S   S632      1.0  0.84876  0.31957  0.50953  1.0000
  S   S633      1.0  0.80024  0.33739  0.52896  1.0000
  C   C2281     1.0  0.86522  0.35104  0.60168  1.0000
  C   C2282     1.0  0.85496  0.33531  0.61376  1.0000
  C   C2283     1.0  0.84561  0.32359  0.60449  1.0000
  C   C2284     1.0  0.84613  0.32755  0.58309  1.0000
  C   C2285     1.0  0.85604  0.34355  0.57103  1.0000
  C   C2286     1.0  0.86559  0.35511  0.58027  1.0000
  H   H2726     1.0  0.85455  0.33190  0.63022  1.0000
  H   H2727     1.0  0.83808  0.31121  0.61401  1.0000
  H   H2728     1.0  0.85674  0.34673  0.55453  1.0000
  H   H2729     1.0  0.87362  0.36710  0.57071  1.0000
  C   C2287     1.0  0.94444  0.34180  0.73452  1.0000
  H   H2730     1.0  0.93645  0.33023  0.74489  1.0000
  C   C2288     1.0  0.94291  0.30845  0.87316  1.0000
  S   S634      1.0  0.66200  0.39248  0.55725  1.0000
  H   H2731     1.0  0.74448  0.44220  0.74722  1.0000
  C   C2289     1.0  0.96612  0.33875  0.85073  1.0000
  C   C2290     1.0  0.95469  0.34082  0.87030  1.0000
  C   C2291     1.0  0.94333  0.32557  0.88160  1.0000
  C   C2292     1.0  0.79559  0.44816  0.62372  1.0000
  S   S635      1.0  0.67959  0.41424  0.49911  1.0000
  H   H2732     1.0  0.95465  0.35422  0.87677  1.0000
  H   H2733     1.0  0.93458  0.32723  0.89677  1.0000
  C   C2293     1.0  0.96613  0.32135  0.84247  1.0000
  S   S636      1.0  0.93702  0.24342  0.80868  1.0000
  H   H2734     1.0  0.78385  0.43048  0.54533  1.0000
  C   C2294     1.0  0.92277  0.38713  0.77325  1.0000
  C   C2295     1.0  0.70919  0.34144  0.50771  1.0000
  H   H2735     1.0  0.93996  0.34944  0.79006  1.0000
  C   C2296     1.0  0.86113  0.38580  0.82101  1.0000
  C   C2297     1.0  0.87343  0.37010  0.83273  1.0000
  C   C2298     1.0  0.87332  0.34918  0.83287  1.0000
  C   C2299     1.0  0.86084  0.34394  0.82133  1.0000
  C   C2300     1.0  0.84856  0.35963  0.80964  1.0000
  C   C2301     1.0  0.84864  0.38050  0.80953  1.0000
  H   H2736     1.0  0.88303  0.37411  0.84174  1.0000
  H   H2737     1.0  0.88276  0.33713  0.84199  1.0000
  H   H2738     1.0  0.83879  0.35565  0.80078  1.0000
  H   H2739     1.0  0.83910  0.39248  0.80047  1.0000
  C   C2302     1.0  0.79375  0.40276  0.75499  1.0000
  C   C2303     1.0  0.78137  0.39414  0.74608  1.0000
  C   C2304     1.0  0.79053  0.38081  0.73203  1.0000
  C   C2305     1.0  0.81212  0.37644  0.72641  1.0000
  C   C2306     1.0  0.82453  0.38486  0.73550  1.0000
  C   C2307     1.0  0.81534  0.39767  0.75006  1.0000
  H   H2740     1.0  0.76465  0.39782  0.75002  1.0000
  H   H2741     1.0  0.78085  0.37423  0.72518  1.0000
  H   H2742     1.0  0.84116  0.38143  0.73156  1.0000
  H   H2743     1.0  0.82499  0.40358  0.75742  1.0000
  H   H2744     1.0  0.94179  0.35537  0.81428  1.0000
  S   S637      1.0  0.98013  0.35818  0.83699  1.0000
  C   C2308     1.0  0.80168  0.44819  0.69680  1.0000
  C   C2309     1.0  0.71916  0.34642  0.56899  1.0000
  C   C2310     1.0  0.72113  0.32487  0.57341  1.0000
  C   C2311     1.0  0.73318  0.31291  0.55906  1.0000
  C   C2312     1.0  0.74399  0.32241  0.54065  1.0000
  C   C2313     1.0  0.74242  0.34395  0.53637  1.0000
  C   C2314     1.0  0.72957  0.35600  0.55032  1.0000
  H   H2745     1.0  0.71319  0.31742  0.58787  1.0000
  H   H2746     1.0  0.73445  0.29625  0.56242  1.0000
  H   H2747     1.0  0.75079  0.35134  0.52214  1.0000
  H   H2748     1.0  0.72831  0.37261  0.54694  1.0000
  C   C2315     1.0  0.92249  0.39541  0.80647  1.0000
  H   H2749     1.0  0.97424  0.27220  0.88125  1.0000
  C   C2316     1.0  0.85258  0.45137  0.65030  1.0000
  C   C2317     1.0  0.87343  0.44994  0.65145  1.0000
  C   C2318     1.0  0.88522  0.46366  0.63792  1.0000
  C   C2319     1.0  0.95992  0.34893  0.74091  1.0000
  C   C2320     1.0  0.71967  0.44341  0.48843  1.0000
  H   H2750     1.0  0.84347  0.44066  0.66067  1.0000
  C   C2321     1.0  0.93300  0.36003  0.80126  1.0000
  H   H2751     1.0  0.93288  0.27759  0.77346  1.0000
  C   C2322     1.0  0.95431  0.30634  0.85356  1.0000
  H   H2752     1.0  0.97321  0.38331  0.69773  1.0000
  C   C2323     1.0  0.77478  0.42989  0.53408  1.0000
  H   H2753     1.0  0.98575  0.30054  0.88279  1.0000
  H   H2754     1.0  0.85982  0.28302  0.54387  1.0000
  H   H2755     1.0  0.79425  0.45096  0.73660  1.0000
  N   N152      1.0  0.73895  0.42767  0.48877  1.0000
  C   C2324     1.0  0.89123  0.28790  0.56134  1.0000
  H   H2756     1.0  0.87948  0.29985  0.55512  1.0000
  H   H2757     1.0  0.85679  0.34646  0.73354  1.0000
  C   C2325     1.0  0.71430  0.30666  0.48800  1.0000
  C   C2326     1.0  0.89124  0.38989  0.75905  1.0000
  H   H2758     1.0  0.94832  0.39768  0.74963  1.0000
  H   H2759     1.0  0.86547  0.46311  0.58351  1.0000
  H   H2760     1.0  0.95685  0.40114  0.77959  1.0000
  Fe  Fe324     1.0  0.67555  0.41649  0.53285  1.0000
  S   S638      1.0  0.91428  0.24530  0.86804  1.0000
  C   C2327     1.0  0.96554  0.27640  0.92066  1.0000
  C   C2328     1.0  0.93244  0.39522  0.75311  1.0000
  H   H2761     1.0  0.75856  0.45908  0.67382  1.0000
  H   H2762     1.0  0.92178  0.41206  0.79946  1.0000
  H   H2763     1.0  0.76853  0.42173  0.67228  1.0000
  H   H2764     1.0  0.72540  0.40483  0.48063  1.0000
  H   H2765     1.0  0.89196  0.30527  0.58446  1.0000
  C   C2329     1.0  0.92177  0.40021  0.73654  1.0000
  C   C2330     1.0  0.89832  0.29120  0.57816  1.0000
  C   C2331     1.0  0.67447  0.34849  0.50108  1.0000
  H   H2766     1.0  0.79757  0.40687  0.52001  1.0000
  H   H2767     1.0  0.87511  0.38824  0.76150  1.0000
  C   C2332     1.0  0.86807  0.26755  0.54074  1.0000
  H   H2768     1.0  0.70558  0.32873  0.52076  1.0000
  C   C2333     1.0  0.93956  0.34918  0.71472  1.0000
  C   C2334     1.0  0.83644  0.43815  0.60156  1.0000
  H   H2769     1.0  0.91702  0.35709  0.80796  1.0000
  C   C2335     1.0  0.80733  0.42696  0.69499  1.0000
  H   H2770     1.0  0.88877  0.42061  0.59715  1.0000
  H   H2771     1.0  0.81615  0.26509  0.48359  1.0000
  H   H2772     1.0  0.96303  0.38037  0.79988  1.0000
  H   H2773     1.0  0.76310  0.36059  0.56499  1.0000
  H   H2774     1.0  0.70069  0.37555  0.48198  1.0000
  H   H2775     1.0  0.77734  0.40520  0.49481  1.0000
  H   H2776     1.0  0.77650  0.35355  0.61725  1.0000
  C   C2336     1.0  0.80377  0.46270  0.60782  1.0000
  H   H2777     1.0  0.66470  0.26328  0.93791  1.0000
  C   C2337     1.0  0.98248  0.29557  0.73761  1.0000
  C   C2338     1.0  0.90188  0.38456  0.77563  1.0000
  H   H2778     1.0  0.75424  0.35232  0.59218  1.0000
  H   H2779     1.0  0.72611  0.33842  0.50146  1.0000
  H   H2780     1.0  0.87219  0.43631  0.61457  1.0000
  C   C2339     1.0  0.94663  0.28236  0.76350  1.0000
  H   H2781     1.0  0.83566  0.40795  0.62139  1.0000
  C   C2340     1.0  0.74595  0.46590  0.76340  1.0000
  C   C2341     1.0  0.90121  0.39764  0.73950  1.0000
  C   C2342     1.0  0.87248  0.42461  0.60513  1.0000
  C   C2343     1.0  0.80729  0.42851  0.62836  1.0000
  C   C2344     1.0  0.71501  0.47197  0.58158  1.0000
  C   C2345     1.0  0.71098  0.46377  0.60262  1.0000
  C   C2346     1.0  0.91341  0.27645  0.58696  1.0000
  C   C2347     1.0  0.77075  0.41594  0.50532  1.0000
  N   N153      1.0  0.93337  0.38194  0.79130  1.0000
  H   H2782     1.0  0.93027  0.39232  0.82011  1.0000
  H   H2783     1.0  0.89313  0.24440  0.51542  1.0000
  C   C2348     1.0  0.98043  0.25852  0.89205  1.0000
  H   H2784     1.0  0.89301  0.40180  0.72661  1.0000
  H   H2785     1.0  0.82712  0.46852  0.63560  1.0000
  H   H2786     1.0  0.80188  0.39370  0.59241  1.0000
  C   C2349     1.0  0.89561  0.28280  0.51727  1.0000
  C   C2350     1.0  0.82388  0.45789  0.59685  1.0000
  C   C2351     1.0  0.96483  0.29465  0.72954  1.0000
  H   H2787     1.0  0.82891  0.43127  0.72477  1.0000
  H   H2788     1.0  0.84093  0.45332  0.72025  1.0000
  H   H2789     1.0  0.96455  0.37494  0.77477  1.0000
  N   N154      1.0  0.89087  0.26640  0.53523  1.0000
  C   C2352     1.0  0.87625  0.47871  0.62306  1.0000
  C   C2353     1.0  0.77779  0.42909  0.67886  1.0000
  C   C2354     1.0  0.96516  0.37175  0.70812  1.0000
  N   N155      1.0  0.86862  0.32013  0.75495  1.0000
  C   C2355     1.0  0.86555  0.33043  0.73380  1.0000
  C   C2356     1.0  0.84774  0.32075  0.76804  1.0000
  C   C2357     1.0  0.88048  0.33250  0.76231  1.0000
  C   C2358     1.0  0.87979  0.29848  0.75615  1.0000
  C   C2359     1.0  0.88321  0.28625  0.77545  1.0000
  C   C2360     1.0  0.88764  0.28893  0.73851  1.0000
  C   C2361     1.0  0.89341  0.26568  0.77705  1.0000
  C   C2362     1.0  0.89777  0.26830  0.74032  1.0000
  C   C2363     1.0  0.90058  0.25670  0.75954  1.0000
  H   H2790     1.0  0.85634  0.32222  0.72735  1.0000
  H   H2791     1.0  0.82935  0.47020  0.58518  1.0000
  H   H2792     1.0  0.88060  0.33167  0.72323  1.0000
  H   H2793     1.0  0.84845  0.31501  0.78458  1.0000
  H   H2794     1.0  0.83856  0.31114  0.76336  1.0000
  H   H2795     1.0  0.83871  0.33680  0.76709  1.0000
  H   H2796     1.0  0.89629  0.33240  0.75281  1.0000
  H   H2797     1.0  0.87256  0.34890  0.76161  1.0000
  H   H2798     1.0  0.88232  0.32658  0.77861  1.0000
  H   H2799     1.0  0.87798  0.29250  0.78952  1.0000
  H   H2800     1.0  0.88621  0.29706  0.72312  1.0000
  H   H2801     1.0  0.89586  0.25664  0.79196  1.0000
  H   H2802     1.0  0.90351  0.26128  0.72670  1.0000
  C   C2364     1.0  0.89978  0.24614  0.52864  1.0000
  H   H2803     1.0  0.66131  0.34171  0.60201  1.0000
  H   H2804     1.0  0.89855  0.24401  0.92743  1.0000
  H   H2805     1.0  0.79983  0.40124  0.68554  1.0000
  H   H2806     1.0  0.96043  0.29114  0.91054  1.0000
  H   H2807     1.0  0.90140  0.46242  0.63874  1.0000
  H   H2808     1.0  0.91264  0.28231  0.51254  1.0000
  Fe  Fe325     1.0  0.82984  0.46894  0.76845  1.0000
  H   H2809     1.0  0.86906  0.41023  0.61579  1.0000
  C   C2365     1.0  0.94966  0.36459  0.70173  1.0000
  H   H2810     1.0  0.74208  0.38665  0.58177  1.0000
  H   H2811     1.0  0.72918  0.42283  0.58383  1.0000
  H   H2812     1.0  0.78097  0.35697  0.49163  1.0000
  H   H2813     1.0  0.98486  0.32785  0.70610  1.0000
  H   H2814     1.0  0.92954  0.40609  0.72126  1.0000
  S   S639      1.0  0.85624  0.23401  0.89187  1.0000
  C   C2366     1.0  0.79543  0.41761  0.68626  1.0000
  H   H2815     1.0  0.75187  0.44479  0.58969  1.0000
  H   H2816     1.0  0.90836  0.24070  0.76092  1.0000
  H   H2817     1.0  0.82071  0.41710  0.70048  1.0000
  C   C2367     1.0  0.89893  0.26955  0.55289  1.0000
  H   H2818     1.0  0.84342  0.43972  0.69960  1.0000
  C   C2368     1.0  0.75537  0.44242  0.53380  1.0000
  H   H2819     1.0  0.94609  0.37048  0.68644  1.0000
  H   H2820     1.0  0.90624  0.39308  0.81247  1.0000
  H   H2821     1.0  0.96855  0.24831  0.89602  1.0000
  H   H2822     1.0  0.80787  0.47195  0.73408  1.0000
  N   N156      1.0  0.81320  0.45835  0.70699  1.0000
  S   S640      1.0  0.65827  0.44347  0.54793  1.0000
  C   C2369     1.0  0.98162  0.28878  0.75914  1.0000
  C   C2370     1.0  0.83242  0.44500  0.71309  1.0000
  C   C2371     1.0  0.95540  0.38474  0.78607  1.0000
  C   C2372     1.0  0.82730  0.42346  0.61735  1.0000
  H   H2823     1.0  0.89351  0.37869  0.79047  1.0000
  H   H2824     1.0  0.93293  0.23401  0.90672  1.0000
  S   S641      1.0  0.70455  0.46401  0.56290  1.0000
  H   H2825     1.0  0.74916  0.36374  0.47662  1.0000
  S   S642      1.0  0.85814  0.27013  0.48411  1.0000
  N   N157      1.0  0.85784  0.43249  0.59039  1.0000
  C   C2373     1.0  0.85844  0.41596  0.57876  1.0000
  C   C2374     1.0  0.86568  0.45009  0.57559  1.0000
  H   H2826     1.0  0.85419  0.40165  0.58912  1.0000
  H   H2827     1.0  0.87428  0.41127  0.57008  1.0000
  H   H2828     1.0  0.84754  0.42108  0.56762  1.0000
  H   H2829     1.0  0.88200  0.44559  0.56796  1.0000
  H   H2830     1.0  0.85637  0.45602  0.56309  1.0000
  N   N158      1.0  0.78277  0.36467  0.58463  1.0000
  C   C2375     1.0  0.80100  0.36438  0.56775  1.0000
  C   C2376     1.0  0.78967  0.35321  0.60404  1.0000
  C   C2377     1.0  0.76821  0.35324  0.57987  1.0000
  C   C2378     1.0  0.77365  0.38638  0.58665  1.0000
  C   C2379     1.0  0.75281  0.39534  0.58443  1.0000
  C   C2380     1.0  0.78600  0.39947  0.59034  1.0000
  C   C2381     1.0  0.74510  0.41618  0.58563  1.0000
  C   C2382     1.0  0.77819  0.42031  0.59122  1.0000
  C   C2383     1.0  0.75779  0.42862  0.58895  1.0000
  H   H2831     1.0  0.81390  0.37033  0.57113  1.0000
  H   H2832     1.0  0.80763  0.34840  0.56507  1.0000
  H   H2833     1.0  0.79672  0.37368  0.55305  1.0000
  H   H2834     1.0  0.80208  0.35962  0.60783  1.0000
  H   H2835     1.0  0.79629  0.33667  0.60306  1.0000
  H   H2836     1.0  0.77829  0.47561  0.68995  1.0000
  H   H2837     1.0  0.95436  0.29292  0.84714  1.0000
  H   H2838     1.0  0.66395  0.35258  0.48960  1.0000
  H   H2839     1.0  0.91883  0.27907  0.60004  1.0000
  H   H2840     1.0  0.70852  0.44124  0.50319  1.0000
  C   C2384     1.0  0.74352  0.45867  0.74641  1.0000
  C   C2385     1.0  0.77210  0.45005  0.67993  1.0000
  S   S643      1.0  0.79540  0.47128  0.77736  1.0000
  C   C2386     1.0  0.97734  0.23570  0.84229  1.0000
  H   H2841     1.0  0.97494  0.25278  0.84119  1.0000
  H   H2842     1.0  0.66959  0.33511  0.51260  1.0000
  C   C2387     1.0  0.97072  0.36364  0.72755  1.0000
  H   H2843     1.0  0.79459  0.47800  0.60427  1.0000
  H   H2844     1.0  0.74873  0.45501  0.77734  1.0000
  C   C2388     1.0  0.94718  0.28827  0.74239  1.0000
  C   C2389     1.0  0.78368  0.45944  0.68897  1.0000
  H   H2845     1.0  0.72857  0.45193  0.52017  1.0000
  H   H2846     1.0  0.74927  0.45261  0.54500  1.0000
  H   H2847     1.0  0.70084  0.45246  0.60810  1.0000
  S   S644      1.0  0.81076  0.31522  0.48761  1.0000
  H   H2848     1.0  0.72176  0.40474  0.50765  1.0000
  C   C2390     1.0  0.85523  0.48069  0.62236  1.0000
  H   H2849     1.0  0.95226  0.26788  0.92464  1.0000
  H   H2850     1.0  0.86152  0.26440  0.52812  1.0000
  H   H2851     1.0  0.72322  0.30520  0.49998  1.0000
  N   N159      1.0  0.69661  0.34363  0.49152  1.0000
  H   H2852     1.0  0.93368  0.28840  0.73593  1.0000
  C   C2391     1.0  0.71719  0.28937  0.47863  1.0000
  H   H2853     1.0  0.97689  0.23534  0.92889  1.0000
  H   H2854     1.0  0.82914  0.47317  0.67858  1.0000
  H   H2855     1.0  0.80085  0.41708  0.64055  1.0000
  H   H2856     1.0  0.78564  0.47601  0.72236  1.0000
  C   C2392     1.0  0.66014  0.40520  0.49130  1.0000
  C   C2393     1.0  0.70015  0.32496  0.48206  1.0000
  C   C2394     1.0  0.75102  0.42876  0.50436  1.0000
  H   H2857     1.0  0.88869  0.29855  0.52055  1.0000
  C   C2395     1.0  0.91440  0.25483  0.56218  1.0000
  H   H2858     1.0  0.96333  0.27767  0.78830  1.0000
  C   C2396     1.0  0.96384  0.28252  0.77185  1.0000
  H   H2859     1.0  0.72306  0.45940  0.48530  1.0000
  H   H2860     1.0  0.73821  0.46684  0.71526  1.0000
  H   H2861     1.0  0.91685  0.24448  0.52331  1.0000
  H   H2862     1.0  0.96394  0.29935  0.71340  1.0000
  H   H2863     1.0  0.70619  0.35578  0.51446  1.0000
  H   H2864     1.0  0.97513  0.31946  0.82755  1.0000
  C   C2397     1.0  0.73293  0.40700  0.49303  1.0000
  H   H2865     1.0  0.98361  0.23776  0.80185  1.0000
  H   H2866     1.0  0.96794  0.28052  0.93496  1.0000
  H   H2867     1.0  0.67023  0.24820  0.90689  1.0000
  H   H2868     1.0  0.66910  0.25471  0.87233  1.0000
  C   C2398     1.0  0.79961  0.46458  0.72580  1.0000
  H   H2869     1.0  0.67144  0.36201  0.50906  1.0000
  C   C2399     1.0  0.72004  0.47031  0.61666  1.0000
  H   H2870     1.0  0.71666  0.46393  0.63288  1.0000
  H   H2871     1.0  0.72779  0.27544  0.48361  1.0000
  C   C2400     1.0  0.74013  0.47257  0.72844  1.0000
  C   C2401     1.0  0.81938  0.47711  0.69310  1.0000
  C   C2402     1.0  0.92146  0.25834  0.57897  1.0000
  H   H2872     1.0  0.89632  0.23302  0.54125  1.0000
  S   S645      1.0  0.82027  0.37035  0.47662  1.0000
  N   N160      1.0  0.98466  0.26414  0.91064  1.0000
  C   C2403     1.0  0.78066  0.36616  0.47644  1.0000
  H   H2873     1.0  0.93322  0.24691  0.58590  1.0000
  H   H2874     1.0  0.92127  0.24046  0.55683  1.0000
  H   H2875     1.0  0.71112  0.44226  0.47639  1.0000
  H   H2876     1.0  0.96367  0.23234  0.83764  1.0000
  C   C2404     1.0  0.70198  0.36139  0.47541  1.0000
  H   H2877     1.0  0.76938  0.30723  0.47515  1.0000
  S   S646      1.0  0.69639  0.63346  0.98547  1.0000
  H   H2878     1.0  0.92419  0.67973  0.05711  1.0000
  H   H2879     1.0  0.96168  0.73011  0.06546  1.0000
  H   H2880     1.0  0.79751  0.62549  0.11751  1.0000
  H   H2881     1.0  0.67682  0.67725  0.98428  1.0000
  Fe  Fe326     1.0  0.90339  0.65112  0.14650  1.0000
  S   S647      1.0  0.90138  0.63646  0.12029  1.0000
  S   S648      1.0  0.89143  0.68506  0.14726  1.0000
  Fe  Fe327     1.0  0.92516  0.61072  0.16978  1.0000
  S   S649      1.0  0.92362  0.59292  0.14550  1.0000
  S   S650      1.0  0.94543  0.59284  0.19324  1.0000
  Fe  Fe328     1.0  0.93365  0.62049  0.12348  1.0000
  S   S651      1.0  0.96088  0.61924  0.09777  1.0000
  Fe  Fe329     1.0  0.89099  0.61062  0.14476  1.0000
  S   S652      1.0  0.85991  0.60108  0.14554  1.0000
  S   S653      1.0  0.93661  0.63735  0.14757  1.0000
  S   S654      1.0  0.89156  0.62607  0.17123  1.0000
  Fe  Fe330     1.0  0.75823  0.53819  0.08109  1.0000
  S   S655      1.0  0.76278  0.56302  0.09688  1.0000
  Fe  Fe331     1.0  0.77613  0.55998  0.03872  1.0000
  S   S656      1.0  0.78178  0.58631  0.05080  1.0000
  S   S657      1.0  0.77883  0.56229  0.00464  1.0000
  Fe  Fe332     1.0  0.79412  0.56230  0.07604  1.0000
  S   S658      1.0  0.82605  0.56627  0.08029  1.0000
  Fe  Fe333     1.0  0.75063  0.58498  0.07035  1.0000
  S   S659      1.0  0.72577  0.61309  0.07140  1.0000
  S   S660      1.0  0.79061  0.53548  0.06229  1.0000
  S   S661      1.0  0.74388  0.56053  0.05636  1.0000
  H   H2882     1.0  0.66829  0.55612  0.31101  1.0000
  H   H2883     1.0  0.98738  0.60527  0.15995  1.0000
  S   S662      1.0  0.73996  0.51292  0.09897  1.0000
  C   C2405     1.0  0.72754  0.49909  0.08699  1.0000
  H   H2884     1.0  0.66583  0.50200  0.10600  1.0000
  C   C2406     1.0  0.82644  0.59404  0.98683  1.0000
  C   C2407     1.0  0.78257  0.65737  0.11249  1.0000
  C   C2408     1.0  0.96956  0.64281  0.09391  1.0000
  C   C2409     1.0  0.95560  0.66038  0.09905  1.0000
  H   H2885     1.0  0.93943  0.65955  0.10473  1.0000
  C   C2410     1.0  0.85073  0.59187  0.12689  1.0000
  C   C2411     1.0  0.86328  0.58784  0.10831  1.0000
  C   C2412     1.0  0.85538  0.58016  0.09424  1.0000
  C   C2413     1.0  0.83476  0.57673  0.09835  1.0000
  C   C2414     1.0  0.82204  0.58127  0.11670  1.0000
  C   C2415     1.0  0.83005  0.58862  0.13092  1.0000
  H   H2886     1.0  0.87922  0.59017  0.10497  1.0000
  H   H2887     1.0  0.86540  0.57659  0.08016  1.0000
  H   H2888     1.0  0.80622  0.57858  0.12016  1.0000
  H   H2889     1.0  0.82020  0.59158  0.14528  1.0000
  H   H2890     1.0  0.81737  0.56976  0.01168  1.0000
  H   H2891     1.0  0.71920  0.49416  0.04034  1.0000
  H   H2892     1.0  0.78811  0.66851  0.04866  1.0000
  H   H2893     1.0  0.86876  0.72615  0.13687  1.0000
  C   C2416     1.0  0.95706  0.60387  0.20859  1.0000
  C   C2417     1.0  0.95089  0.62455  0.21110  1.0000
  C   C2418     1.0  0.96002  0.63243  0.22408  1.0000
  H   H2894     1.0  0.67237  0.57099  0.05522  1.0000
  C   C2419     1.0  0.66030  0.48540  0.22765  1.0000
  H   H2895     1.0  0.93876  0.63435  0.20342  1.0000
  C   C2420     1.0  0.88654  0.70233  0.08727  1.0000
  H   H2896     1.0  0.96024  0.72667  0.12028  1.0000
  H   H2897     1.0  0.69510  0.55253  0.06076  1.0000
  H   H2898     1.0  0.65616  0.59643  0.07818  1.0000
  C   C2421     1.0  0.71619  0.48419  0.09934  1.0000
  H   H2899     1.0  0.77132  0.64177  0.99375  1.0000
  C   C2422     1.0  0.70493  0.62895  0.00906  1.0000
  C   C2423     1.0  0.69150  0.63528  0.02636  1.0000
  C   C2424     1.0  0.69819  0.63112  0.04536  1.0000
  C   C2425     1.0  0.71798  0.61982  0.04729  1.0000
  C   C2426     1.0  0.73134  0.61341  0.02997  1.0000
  C   C2427     1.0  0.72502  0.61840  0.01079  1.0000
  H   H2900     1.0  0.68065  0.60199  0.07919  1.0000
  C   C2428     1.0  0.79747  0.64226  0.03250  1.0000
  H   H2901     1.0  0.74660  0.60459  0.03125  1.0000
  H   H2902     1.0  0.73552  0.61347  0.99750  1.0000
  H   H2903     1.0  0.79931  0.67077  0.99791  1.0000
  H   H2904     1.0  0.68210  0.51344  0.04017  1.0000
  H   H2905     1.0  0.66598  0.49317  0.33038  1.0000
  C   C2429     1.0  0.88661  0.70007  0.12352  1.0000
  C   C2430     1.0  0.89356  0.69189  0.10542  1.0000
  H   H2906     1.0  0.78047  0.68229  0.01728  1.0000
  H   H2907     1.0  0.69607  0.57952  0.05500  1.0000
  H   H2908     1.0  0.90390  0.67726  0.10552  1.0000
  N   N161      1.0  0.78159  0.64943  0.01905  1.0000
  C   C2431     1.0  0.79531  0.57955  0.99106  1.0000
  C   C2432     1.0  0.81335  0.58019  0.99796  1.0000
  H   H2909     1.0  0.97146  0.56556  0.16162  1.0000
  H   H2910     1.0  0.92666  0.72167  0.11628  1.0000
  H   H2911     1.0  0.93128  0.71506  0.04777  1.0000
  H   H2912     1.0  0.79857  0.63500  0.99350  1.0000
  C   C2433     1.0  0.85305  0.71963  0.01873  1.0000
  N   N162      1.0  0.66796  0.55372  0.35344  1.0000
  H   H2913     1.0  0.75919  0.63471  0.04202  1.0000
  C   C2434     1.0  0.67780  0.53475  0.34469  1.0000
  Fe  Fe334     1.0  0.66243  0.63281  0.99204  1.0000
  H   H2914     1.0  0.66429  0.59364  0.10268  1.0000
  C   C2435     1.0  0.98203  0.59928  0.23164  1.0000
  H   H2915     1.0  0.89091  0.69528  0.07370  1.0000
  H   H2916     1.0  0.89114  0.72448  0.99771  1.0000
  C   C2436     1.0  0.78350  0.67050  0.00727  1.0000
  H   H2917     1.0  0.65735  0.49752  0.06837  1.0000
  C   C2437     1.0  0.68428  0.56126  0.36004  1.0000
  H   H2918     1.0  0.67597  0.64346  0.02514  1.0000
  H   H2919     1.0  0.86081  0.63406  0.02193  1.0000
  H   H2920     1.0  0.77128  0.69010  0.10907  1.0000
  C   C2438     1.0  0.72836  0.50278  0.06566  1.0000
  C   C2439     1.0  0.97271  0.59133  0.21889  1.0000
  C   C2440     1.0  0.93984  0.68237  0.05079  1.0000
  C   C2441     1.0  0.68596  0.56797  0.06313  1.0000
  C   C2442     1.0  0.68377  0.50331  0.14756  1.0000
  C   C2443     1.0  0.82503  0.61599  0.04633  1.0000
  H   H2921     1.0  0.89599  0.68417  0.02695  1.0000
  H   H2922     1.0  0.83557  0.62174  0.07208  1.0000
  H   H2923     1.0  0.84250  0.71405  0.03301  1.0000
  C   C2444     1.0  0.67354  0.51978  0.15758  1.0000
  C   C2445     1.0  0.65704  0.54097  0.19335  1.0000
  H   H2924     1.0  0.75722  0.66159  0.04232  1.0000
  H   H2925     1.0  0.68816  0.52707  0.08902  1.0000
  H   H2926     1.0  0.68781  0.63623  0.05864  1.0000
  H   H2927     1.0  0.77017  0.65422  0.10627  1.0000
  C   C2446     1.0  0.76068  0.65002  0.03200  1.0000
  H   H2928     1.0  0.78078  0.61996  0.01145  1.0000
  C   C2447     1.0  0.78324  0.67753  0.11410  1.0000
  H   H2929     1.0  0.67779  0.57464  0.36810  1.0000
  H   H2930     1.0  0.68148  0.53265  0.15558  1.0000
  H   H2931     1.0  0.65688  0.50937  0.24550  1.0000
  C   C2448     1.0  0.66517  0.55439  0.09523  1.0000
  C   C2449     1.0  0.82535  0.62769  0.06087  1.0000
  C   C2450     1.0  0.88225  0.69633  0.03033  1.0000
  C   C2451     1.0  0.97568  0.61987  0.23439  1.0000
  H   H2932     1.0  0.96802  0.72967  0.00139  1.0000
  H   H2933     1.0  0.81261  0.65586  0.07255  1.0000
  C   C2452     1.0  0.81229  0.64680  0.06120  1.0000
  H   H2934     1.0  0.67099  0.54801  0.02002  1.0000
  C   C2453     1.0  0.81152  0.62317  0.03217  1.0000
  C   C2454     1.0  0.98331  0.68045  0.08905  1.0000
  H   H2935     1.0  0.95247  0.64987  0.05288  1.0000
  H   H2936     1.0  0.98029  0.66096  0.13335  1.0000
  C   C2455     1.0  0.86534  0.66544  0.01921  1.0000
  C   C2456     1.0  0.66018  0.54115  0.03265  1.0000
  H   H2937     1.0  0.83493  0.60090  0.04639  1.0000
  N   N163      1.0  0.83214  0.66900  0.13776  1.0000
  C   C2457     1.0  0.83267  0.65622  0.15856  1.0000
  C   C2458     1.0  0.85204  0.66297  0.12420  1.0000
  C   C2459     1.0  0.83075  0.69089  0.13968  1.0000
  C   C2460     1.0  0.81493  0.66539  0.12917  1.0000
  C   C2461     1.0  0.79918  0.68162  0.12224  1.0000
  C   C2462     1.0  0.81384  0.64510  0.12709  1.0000
  C   C2463     1.0  0.84403  0.67430  0.98616  1.0000
  C   C2464     1.0  0.79792  0.64120  0.11888  1.0000
  H   H2938     1.0  0.69340  0.56422  0.11206  1.0000
  H   H2939     1.0  0.83617  0.63934  0.15827  1.0000
  H   H2940     1.0  0.84508  0.65914  0.16570  1.0000
  H   H2941     1.0  0.81760  0.65944  0.16906  1.0000
  H   H2942     1.0  0.85513  0.64625  0.12316  1.0000
  H   H2943     1.0  0.86525  0.66568  0.13016  1.0000
  H   H2944     1.0  0.85241  0.67207  0.10833  1.0000
  H   H2945     1.0  0.84378  0.69283  0.14657  1.0000
  H   H2946     1.0  0.83188  0.70129  0.12439  1.0000
  H   H2947     1.0  0.81616  0.69649  0.14986  1.0000
  H   H2948     1.0  0.79883  0.69759  0.12294  1.0000
  H   H2949     1.0  0.82540  0.63205  0.13179  1.0000
  C   C2465     1.0  0.67423  0.48642  0.14909  1.0000
  C   C2466     1.0  0.87322  0.72142  0.08689  1.0000
  H   H2950     1.0  0.84220  0.64193  0.99256  1.0000
  C   C2467     1.0  0.71807  0.49151  0.05687  1.0000
  C   C2468     1.0  0.86739  0.73039  0.10458  1.0000
  H   H2951     1.0  0.87224  0.69059  0.04496  1.0000
  C   C2469     1.0  0.66645  0.52173  0.04392  1.0000
  C   C2470     1.0  0.78322  0.63590  0.00385  1.0000
  N   N164      1.0  0.87047  0.70298  0.01305  1.0000
  C   C2471     1.0  0.87408  0.71967  0.12293  1.0000
  H   H2952     1.0  0.71420  0.57485  0.98302  1.0000
  C   C2472     1.0  0.86232  0.68610  0.00819  1.0000
  H   H2953     1.0  0.68442  0.52206  0.35633  1.0000
  H   H2954     1.0  0.77226  0.67598  0.99643  1.0000
  C   C2473     1.0  0.96480  0.70624  0.03849  1.0000
  H   H2955     1.0  0.66626  0.52848  0.33925  1.0000
  C   C2474     1.0  0.79843  0.65396  0.04735  1.0000
  H   H2956     1.0  0.74818  0.65390  0.02256  1.0000
  H   H2957     1.0  0.95152  0.69268  0.10052  1.0000
  C   C2475     1.0  0.65950  0.56929  0.31764  1.0000
  C   C2476     1.0  0.67248  0.53287  0.09597  1.0000
  C   C2477     1.0  0.94418  0.70249  0.04573  1.0000
  H   H2958     1.0  0.69600  0.56640  0.34656  1.0000
  C   C2478     1.0  0.88466  0.71168  0.99473  1.0000
  C   C2479     1.0  0.66953  0.59123  0.08649  1.0000
  H   H2959     1.0  0.70817  0.57616  0.08889  1.0000
  H   H2960     1.0  0.73724  0.51403  0.05591  1.0000
  H   H2961     1.0  0.69916  0.50378  0.13841  1.0000
  H   H2962     1.0  0.69080  0.53761  0.33172  1.0000
  N   N165      1.0  0.67921  0.56938  0.08524  1.0000
  C   C2480     1.0  0.84752  0.65418  0.99705  1.0000
  C   C2481     1.0  0.85807  0.64979  0.01357  1.0000
  H   H2963     1.0  0.84356  0.72585  0.00651  1.0000
  H   H2964     1.0  0.96701  0.60082  0.14909  1.0000
  H   H2965     1.0  0.88813  0.70949  0.03338  1.0000
  C   C2482     1.0  0.85121  0.69004  0.99166  1.0000
  H   H2966     1.0  0.69256  0.54899  0.37084  1.0000
  C   C2483     1.0  0.69780  0.56452  0.09520  1.0000
  H   H2967     1.0  0.97746  0.57527  0.21725  1.0000
  C   C2484     1.0  0.98058  0.68868  0.03578  1.0000
  H   H2968     1.0  0.67613  0.48683  0.22041  1.0000
  H   H2969     1.0  0.70752  0.54932  0.09281  1.0000
  H   H2970     1.0  0.84051  0.59437  0.99209  1.0000
  H   H2971     1.0  0.81194  0.61308  0.02160  1.0000
  H   H2972     1.0  0.95494  0.64836  0.22613  1.0000
  C   C2485     1.0  0.96243  0.67918  0.09656  1.0000
  H   H2973     1.0  0.96894  0.64999  0.17075  1.0000
  H   H2974     1.0  0.87673  0.71853  0.98141  1.0000
  H   H2975     1.0  0.67107  0.54674  0.18397  1.0000
  H   H2976     1.0  0.97498  0.57611  0.12446  1.0000
  C   C2486     1.0  0.68851  0.68742  0.97732  1.0000
  H   H2977     1.0  0.65919  0.53393  0.38252  1.0000
  H   H2978     1.0  0.87343  0.66091  0.03210  1.0000
  H   H2979     1.0  0.98656  0.61365  0.13282  1.0000
  C   C2487     1.0  0.98392  0.60102  0.14618  1.0000
  C   C2488     1.0  0.65785  0.57047  0.33873  1.0000
  N   N166      1.0  0.96909  0.72766  0.03334  1.0000
  C   C2489     1.0  0.65976  0.51834  0.10568  1.0000
  C   C2490     1.0  0.95573  0.66550  0.04833  1.0000
  H   H2980     1.0  0.68524  0.70076  0.98551  1.0000
  H   H2981     1.0  0.84817  0.70536  0.98265  1.0000
  C   C2491     1.0  0.98852  0.56484  0.15984  1.0000
  H   H2982     1.0  0.89781  0.69960  0.98969  1.0000
  C   C2492     1.0  0.98531  0.64725  0.16409  1.0000
  C   C2493     1.0  0.97601  0.66868  0.04067  1.0000
  H   H2983     1.0  0.70345  0.67762  0.98076  1.0000
  H   H2984     1.0  0.66219  0.52668  0.20405  1.0000
  S   S663      1.0  0.98703  0.63065  0.25019  1.0000
  H   H2985     1.0  0.98840  0.65546  0.03918  1.0000
  C   C2494     1.0  0.67454  0.48247  0.34129  1.0000
  S   S664      1.0  0.86114  0.73179  0.06550  1.0000
  H   H2986     1.0  0.88225  0.73129  0.45959  1.0000
  Fe  Fe335     1.0  0.86661  0.58505  0.75492  1.0000
  S   S665      1.0  0.83202  0.58941  0.76416  1.0000
  S   S666      1.0  0.88458  0.55349  0.76428  1.0000
  Fe  Fe336     1.0  0.86637  0.62929  0.73401  1.0000
  S   S667      1.0  0.83171  0.63742  0.74226  1.0000
  S   S668      1.0  0.88234  0.65395  0.71250  1.0000
  Fe  Fe337     1.0  0.83548  0.61859  0.77333  1.0000
  S   S669      1.0  0.81488  0.62565  0.80318  1.0000
  Fe  Fe338     1.0  0.83163  0.60770  0.73231  1.0000
  S   S670      1.0  0.81087  0.60984  0.70938  1.0000
  S   S671      1.0  0.87029  0.61298  0.76611  1.0000
  S   S672      1.0  0.86603  0.60079  0.72219  1.0000
  Fe  Fe339     1.0  0.80654  0.69896  0.93182  1.0000
  S   S673      1.0  0.83578  0.67856  0.91979  1.0000
  C   C2495     1.0  0.73322  0.48513  0.60998  1.0000
  Fe  Fe340     1.0  0.77916  0.67225  0.92110  1.0000
  S   S674      1.0  0.80645  0.64944  0.90949  1.0000
  S   S675      1.0  0.74667  0.66607  0.92352  1.0000
  Fe  Fe341     1.0  0.81963  0.65223  0.93631  1.0000
  C   C2496     1.0  0.85692  0.55571  0.67896  1.0000
  Fe  Fe342     1.0  0.81999  0.67765  0.89366  1.0000
  S   S676      1.0  0.83814  0.67717  0.86125  1.0000
  S   S677      1.0  0.79114  0.67226  0.94972  1.0000
  S   S678      1.0  0.79185  0.70075  0.90397  1.0000
  C   C2497     1.0  0.69824  0.59568  0.94945  1.0000
  Fe  Fe343     1.0  0.87300  0.69808  0.56761  1.0000
  S   S679      1.0  0.87113  0.68707  0.60163  1.0000
  S   S680      1.0  0.90119  0.69384  0.54310  1.0000
  H   H2987     1.0  0.67385  0.66036  0.84990  1.0000
  S   S681      1.0  0.82176  0.70706  0.60529  1.0000
  S   S682      1.0  0.78048  0.48749  0.83197  1.0000
  Fe  Fe344     1.0  0.85123  0.71813  0.60435  1.0000
  C   C2498     1.0  0.72126  0.61480  0.75096  1.0000
  Fe  Fe345     1.0  0.84180  0.67692  0.59945  1.0000
  S   S683      1.0  0.83524  0.64667  0.61983  1.0000
  C   C2499     1.0  0.65913  0.58393  0.92554  1.0000
  S   S684      1.0  0.84498  0.68606  0.56504  1.0000
  Fe  Fe346     1.0  0.76614  0.51564  0.62596  1.0000
  S   S685      1.0  0.78767  0.52900  0.59816  1.0000
  H   H2988     1.0  0.70514  0.66463  0.94839  1.0000
  Fe  Fe347     1.0  0.78670  0.53091  0.65558  1.0000
  S   S686      1.0  0.80994  0.54435  0.63017  1.0000
  S   S687      1.0  0.78924  0.52988  0.68868  1.0000
  Fe  Fe348     1.0  0.78315  0.55677  0.61364  1.0000
  S   S688      1.0  0.78225  0.58969  0.59595  1.0000
  Fe  Fe349     1.0  0.81260  0.51588  0.61709  1.0000
  H   H2989     1.0  0.89761  0.61790  0.60939  1.0000
  S   S689      1.0  0.75918  0.54475  0.64004  1.0000
  S   S690      1.0  0.79183  0.50103  0.64402  1.0000
  Fe  Fe350     1.0  0.70193  0.62262  0.84836  1.0000
  S   S691      1.0  0.71729  0.58944  0.85293  1.0000
  S   S692      1.0  0.72100  0.64754  0.84482  1.0000
  Fe  Fe351     1.0  0.68700  0.58361  0.87276  1.0000
  Fe  Fe352     1.0  0.70269  0.58660  0.82713  1.0000
  S   S693      1.0  0.72289  0.57133  0.80127  1.0000
  S   S694      1.0  0.68946  0.62046  0.82080  1.0000
  C   C2500     1.0  0.73878  0.54799  0.80984  1.0000
  C   C2501     1.0  0.75538  0.53931  0.79600  1.0000
  H   H2990     1.0  0.72218  0.54445  0.84106  1.0000
  H   H2991     1.0  0.75868  0.54742  0.78037  1.0000
  H   H2992     1.0  0.69366  0.68787  0.83604  1.0000
  C   C2502     1.0  0.87333  0.72648  0.47518  1.0000
  H   H2993     1.0  0.71241  0.70554  0.92949  1.0000
  H   H2994     1.0  0.86642  0.70645  0.65522  1.0000
  H   H2995     1.0  0.85116  0.49667  0.66088  1.0000
  C   C2503     1.0  0.67089  0.54855  0.94103  1.0000
  H   H2996     1.0  0.82537  0.67648  0.64916  1.0000
  S   S695      1.0  0.83659  0.62623  0.95666  1.0000
  H   H2997     1.0  0.76488  0.54231  0.74347  1.0000
  C   C2504     1.0  0.73496  0.53788  0.83025  1.0000
  C   C2505     1.0  0.81975  0.63171  0.61295  1.0000
  C   C2506     1.0  0.81425  0.63581  0.59344  1.0000
  C   C2507     1.0  0.80264  0.62297  0.58838  1.0000
  C   C2508     1.0  0.79674  0.60574  0.60264  1.0000
  C   C2509     1.0  0.80206  0.60187  0.62217  1.0000
  C   C2510     1.0  0.81321  0.61493  0.62736  1.0000
  H   H2998     1.0  0.81902  0.64874  0.58218  1.0000
  H   H2999     1.0  0.79844  0.62621  0.57328  1.0000
  H   H3000     1.0  0.79719  0.58904  0.63344  1.0000
  H   H3001     1.0  0.81657  0.61208  0.64272  1.0000
  S   S696      1.0  0.80411  0.72325  0.95192  1.0000
  C   C2511     1.0  0.66135  0.65976  0.78666  1.0000
  H   H3002     1.0  0.79846  0.61818  0.94925  1.0000
  H   H3003     1.0  0.74734  0.50466  0.58348  1.0000
  H   H3004     1.0  0.73683  0.55387  0.72437  1.0000
  C   C2512     1.0  0.94463  0.71828  0.65941  1.0000
  N   N167      1.0  0.74223  0.52374  0.74356  1.0000
  C   C2513     1.0  0.93962  0.67032  0.53846  1.0000
  C   C2514     1.0  0.92479  0.68220  0.55115  1.0000
  C   C2515     1.0  0.92925  0.68500  0.56957  1.0000
  C   C2516     1.0  0.94859  0.67576  0.57526  1.0000
  H   H3005     1.0  0.93627  0.66821  0.52415  1.0000
  H   H3006     1.0  0.91798  0.69458  0.57919  1.0000
  H   H3007     1.0  0.95207  0.67815  0.58930  1.0000
  S   S697      1.0  0.68986  0.56045  0.90178  1.0000
  C   C2517     1.0  0.85317  0.57732  0.67514  1.0000
  H   H3008     1.0  0.94493  0.66414  0.66179  1.0000
  H   H3009     1.0  0.88567  0.63903  0.62306  1.0000
  H   H3010     1.0  0.80059  0.58317  0.90281  1.0000
  C   C2518     1.0  0.90296  0.71837  0.49177  1.0000
  C   C2519     1.0  0.82456  0.58957  0.91586  1.0000
  C   C2520     1.0  0.73675  0.53733  0.72434  1.0000
  C   C2521     1.0  0.73982  0.66081  0.90153  1.0000
  C   C2522     1.0  0.75126  0.66601  0.88186  1.0000
  C   C2523     1.0  0.74531  0.66192  0.86459  1.0000
  C   C2524     1.0  0.72813  0.65226  0.86687  1.0000
  C   C2525     1.0  0.71683  0.64682  0.88655  1.0000
  C   C2526     1.0  0.72260  0.65118  0.90379  1.0000
  H   H3011     1.0  0.76454  0.67344  0.87991  1.0000
  H   H3012     1.0  0.75415  0.66620  0.84942  1.0000
  H   H3013     1.0  0.70365  0.63926  0.88852  1.0000
  H   H3014     1.0  0.71403  0.64651  0.91896  1.0000
  C   C2527     1.0  0.80514  0.58736  0.70389  1.0000
  C   C2528     1.0  0.80822  0.56827  0.71703  1.0000
  C   C2529     1.0  0.80324  0.55073  0.71226  1.0000
  C   C2530     1.0  0.79553  0.55209  0.69420  1.0000
  C   C2531     1.0  0.79241  0.57117  0.68112  1.0000
  C   C2532     1.0  0.79700  0.58878  0.68606  1.0000
  H   H3015     1.0  0.81428  0.56706  0.73091  1.0000
  H   H3016     1.0  0.80559  0.53600  0.72249  1.0000
  H   H3017     1.0  0.78613  0.57244  0.66736  1.0000
  H   H3018     1.0  0.79433  0.60354  0.67594  1.0000
  C   C2533     1.0  0.90788  0.64596  0.70041  1.0000
  C   C2534     1.0  0.91699  0.65911  0.68341  1.0000
  C   C2535     1.0  0.93789  0.65372  0.67450  1.0000
  C   C2536     1.0  0.94056  0.62203  0.69953  1.0000
  C   C2537     1.0  0.91960  0.62726  0.70826  1.0000
  H   H3019     1.0  0.90803  0.67377  0.67754  1.0000
  H   H3020     1.0  0.94970  0.60772  0.70593  1.0000
  H   H3021     1.0  0.91271  0.61711  0.72144  1.0000
  C   C2538     1.0  0.82155  0.64016  0.81901  1.0000
  C   C2539     1.0  0.80818  0.64333  0.83758  1.0000
  C   C2540     1.0  0.81302  0.65471  0.85061  1.0000
  C   C2541     1.0  0.83120  0.66317  0.84509  1.0000
  C   C2542     1.0  0.84451  0.66004  0.82649  1.0000
  C   C2543     1.0  0.83978  0.64849  0.81354  1.0000
  H   H3022     1.0  0.79393  0.63713  0.84187  1.0000
  H   H3023     1.0  0.80254  0.65714  0.86478  1.0000
  H   H3024     1.0  0.85856  0.66659  0.82206  1.0000
  H   H3025     1.0  0.85015  0.64622  0.79926  1.0000
  C   C2544     1.0  0.87377  0.53547  0.75667  1.0000
  C   C2545     1.0  0.85988  0.54230  0.74290  1.0000
  C   C2546     1.0  0.85039  0.52815  0.73750  1.0000
  C   C2547     1.0  0.85431  0.50722  0.74613  1.0000
  C   C2548     1.0  0.87820  0.51438  0.76497  1.0000
  H   H3026     1.0  0.85641  0.55850  0.73637  1.0000
  H   H3027     1.0  0.83962  0.53349  0.72700  1.0000
  H   H3028     1.0  0.88906  0.50903  0.77554  1.0000
  H   H3029     1.0  0.95651  0.59082  0.67001  1.0000
  H   H3030     1.0  0.88667  0.51900  0.63839  1.0000
  C   C2549     1.0  0.86274  0.51159  0.68829  1.0000
  C   C2550     1.0  0.76342  0.52584  0.74492  1.0000
  H   H3031     1.0  0.70283  0.68117  0.80395  1.0000
  H   H3032     1.0  0.91797  0.66405  0.61146  1.0000
  H   H3033     1.0  0.74818  0.53345  0.71054  1.0000
  C   C2551     1.0  0.73937  0.49376  0.72730  1.0000
  N   N168      1.0  0.68910  0.69447  0.95481  1.0000
  C   C2552     1.0  0.82106  0.60780  0.96931  1.0000
  C   C2553     1.0  0.88514  0.51400  0.65536  1.0000
  H   H3034     1.0  0.93448  0.63648  0.58819  1.0000
  C   C2554     1.0  0.91996  0.65136  0.62485  1.0000
  H   H3035     1.0  0.84705  0.51629  0.69726  1.0000
  H   H3036     1.0  0.81790  0.71328  0.52756  1.0000
  H   H3037     1.0  0.73467  0.55212  0.94725  1.0000
  C   C2555     1.0  0.67173  0.56464  0.92403  1.0000
  H   H3038     1.0  0.81557  0.69574  0.66535  1.0000
  C   C2556     1.0  0.67005  0.67781  0.81082  1.0000
  H   H3039     1.0  0.74386  0.60063  0.87937  1.0000
  C   C2557     1.0  0.85552  0.57753  0.63904  1.0000
  H   H3040     1.0  0.72695  0.54831  0.76061  1.0000
  C   C2558     1.0  0.94187  0.59481  0.66443  1.0000
  H   H3041     1.0  0.91945  0.66014  0.73747  1.0000
  H   H3042     1.0  0.72082  0.58459  0.90843  1.0000
  C   C2559     1.0  0.70810  0.70381  0.94652  1.0000
  H   H3043     1.0  0.81345  0.60073  0.86764  1.0000
  C   C2560     1.0  0.74871  0.60361  0.93463  1.0000
  N   N169      1.0  0.95261  0.71783  0.67833  1.0000
  C   C2561     1.0  0.71884  0.56166  0.94829  1.0000
  C   C2562     1.0  0.80281  0.60745  0.96265  1.0000
  H   H3044     1.0  0.82289  0.72034  0.48936  1.0000
  N   N170      1.0  0.86405  0.52136  0.66624  1.0000
  C   C2563     1.0  0.73255  0.59165  0.91168  1.0000
  H   H3045     1.0  0.86147  0.54835  0.62956  1.0000
  C   C2564     1.0  0.86903  0.72613  0.51165  1.0000
  H   H3046     1.0  0.89258  0.58569  0.67830  1.0000
  H   H3047     1.0  0.98165  0.69954  0.66659  1.0000
  C   C2565     1.0  0.95861  0.66068  0.54440  1.0000
  H   H3048     1.0  0.69211  0.68039  0.92832  1.0000
  H   H3049     1.0  0.92745  0.72251  0.66158  1.0000
  H   H3050     1.0  0.88863  0.61021  0.64670  1.0000
  C   C2566     1.0  0.86823  0.50026  0.75992  1.0000
  H   H3051     1.0  0.89706  0.51996  0.66053  1.0000
  H   H3052     1.0  0.84928  0.59820  0.92525  1.0000
  Fe  Fe353     1.0  0.66118  0.61228  0.84297  1.0000
  H   H3053     1.0  0.98266  0.71257  0.68714  1.0000
  S   S698      1.0  0.67265  0.61719  0.87037  1.0000
  S   S699      1.0  0.97616  0.62800  0.67227  1.0000
  C   C2567     1.0  0.94746  0.66840  0.71811  1.0000
  C   C2568     1.0  0.73386  0.59248  0.93218  1.0000
  C   C2569     1.0  0.91377  0.69003  0.71838  1.0000
  H   H3054     1.0  0.81861  0.58233  0.93136  1.0000
  H   H3055     1.0  0.84420  0.61617  0.86042  1.0000
  Fe  Fe354     1.0  0.82753  0.71727  0.57113  1.0000
  H   H3056     1.0  0.93501  0.65139  0.62926  1.0000
  H   H3057     1.0  0.95343  0.61612  0.63880  1.0000
  H   H3058     1.0  0.73700  0.50360  0.71281  1.0000
  C   C2570     1.0  0.72733  0.53156  0.76104  1.0000
  C   C2571     1.0  0.93661  0.62615  0.60313  1.0000
  S   S700      1.0  0.84426  0.50015  0.60416  1.0000
  H   H3059     1.0  0.95180  0.62815  0.60586  1.0000
  C   C2572     1.0  0.92482  0.58636  0.67585  1.0000
  C   C2573     1.0  0.68148  0.65858  0.77554  1.0000
  C   C2574     1.0  0.72483  0.58261  0.97011  1.0000
  H   H3060     1.0  0.70865  0.55412  0.96181  1.0000
  H   H3061     1.0  0.91357  0.72129  0.47678  1.0000
  H   H3062     1.0  0.89717  0.69217  0.72395  1.0000
  H   H3063     1.0  0.97263  0.67911  0.69694  1.0000
  H   H3064     1.0  0.65776  0.68928  0.90816  1.0000
  H   H3065     1.0  0.92625  0.57567  0.69020  1.0000
  C   C2575     1.0  0.65759  0.55169  0.95953  1.0000
  H   H3066     1.0  0.89920  0.64412  0.59745  1.0000
  N   N171      1.0  0.66356  0.68778  0.82925  1.0000
  H   H3067     1.0  0.77507  0.51934  0.73248  1.0000
  H   H3068     1.0  0.88550  0.48912  0.61238  1.0000
  H   H3069     1.0  0.71131  0.52947  0.76099  1.0000
  N   N172      1.0  0.91916  0.63108  0.62006  1.0000
  H   H3070     1.0  0.72102  0.53628  0.72222  1.0000
  H   H3071     1.0  0.76488  0.61622  0.71472  1.0000
  H   H3072     1.0  0.87455  0.51554  0.69544  1.0000
  H   H3073     1.0  0.80592  0.48881  0.68896  1.0000
  C   C2576     1.0  0.94397  0.70205  0.69491  1.0000
  H   H3074     1.0  0.96979  0.65110  0.53469  1.0000
  N   N173      1.0  0.86977  0.61691  0.88844  1.0000
  C   C2577     1.0  0.87756  0.62435  0.86635  1.0000
  C   C2578     1.0  0.86559  0.63474  0.89923  1.0000
  C   C2579     1.0  0.88662  0.60119  0.89662  1.0000
  C   C2580     1.0  0.85064  0.60798  0.89203  1.0000
  C   C2581     1.0  0.83956  0.60867  0.87607  1.0000
  C   C2582     1.0  0.84230  0.59853  0.91214  1.0000
  H   H3075     1.0  0.94919  0.70301  0.65434  1.0000
  H   H3076     1.0  0.90767  0.65523  0.63805  1.0000
  C   C2583     1.0  0.85931  0.55589  0.64266  1.0000
  H   H3077     1.0  0.86637  0.63745  0.85962  1.0000
  H   H3078     1.0  0.89221  0.63047  0.86408  1.0000
  H   H3079     1.0  0.88066  0.61177  0.85717  1.0000
  H   H3080     1.0  0.85276  0.64664  0.89371  1.0000
  H   H3081     1.0  0.87934  0.64238  0.89657  1.0000
  H   H3082     1.0  0.86099  0.63023  0.91615  1.0000
  H   H3083     1.0  0.88917  0.58688  0.88999  1.0000
  H   H3084     1.0  0.90157  0.60704  0.89303  1.0000
  H   H3085     1.0  0.88323  0.59676  0.91366  1.0000
  C   C2584     1.0  0.89956  0.63302  0.61227  1.0000
  H   H3086     1.0  0.71186  0.66525  0.77347  1.0000
  S   S701      1.0  0.67333  0.57800  0.84722  1.0000
  C   C2585     1.0  0.96315  0.66329  0.56281  1.0000
  S   S702      1.0  0.74424  0.49266  0.62854  1.0000
  H   H3087     1.0  0.84993  0.51861  0.64112  1.0000
  H   H3088     1.0  0.70521  0.61309  0.75279  1.0000
  C   C2586     1.0  0.73407  0.61482  0.73179  1.0000
  S   S703      1.0  0.84124  0.49019  0.73985  1.0000
  H   H3089     1.0  0.85709  0.54838  0.69475  1.0000
  H   H3090     1.0  0.72800  0.61341  0.71862  1.0000
  C   C2587     1.0  0.69065  0.67582  0.79947  1.0000
  N   N174      1.0  0.83027  0.53162  0.81748  1.0000
  C   C2588     1.0  0.82400  0.52770  0.79913  1.0000
  C   C2589     1.0  0.85026  0.53933  0.81066  1.0000
  C   C2590     1.0  0.83411  0.51162  0.83179  1.0000
  C   C2591     1.0  0.81344  0.54635  0.82752  1.0000
  C   C2592     1.0  0.81529  0.56707  0.82745  1.0000
  C   C2593     1.0  0.79411  0.54037  0.83710  1.0000
  C   C2594     1.0  0.79886  0.58060  0.83677  1.0000
  C   C2595     1.0  0.77770  0.55412  0.84607  1.0000
  C   C2596     1.0  0.78007  0.57421  0.84588  1.0000
  H   H3091     1.0  0.82059  0.54231  0.78805  1.0000
  H   H3092     1.0  0.83638  0.51704  0.79080  1.0000
  H   H3093     1.0  0.80996  0.52034  0.80336  1.0000
  H   H3094     1.0  0.84921  0.55320  0.79825  1.0000
  H   H3095     1.0  0.86287  0.52767  0.80395  1.0000
  H   H3096     1.0  0.85559  0.54314  0.82367  1.0000
  H   H3097     1.0  0.82093  0.50303  0.83529  1.0000
  H   H3098     1.0  0.84772  0.50083  0.82514  1.0000
  H   H3099     1.0  0.83704  0.51401  0.84663  1.0000
  H   H3100     1.0  0.82916  0.57334  0.82015  1.0000
  H   H3101     1.0  0.79144  0.52501  0.83758  1.0000
  H   H3102     1.0  0.80057  0.59632  0.83656  1.0000
  H   H3103     1.0  0.76302  0.54913  0.85310  1.0000
  H   H3104     1.0  0.76726  0.58488  0.85263  1.0000
  C   C2597     1.0  0.95626  0.68314  0.70272  1.0000
  H   H3105     1.0  0.83769  0.69848  0.64549  1.0000
  C   C2598     1.0  0.69100  0.67614  0.94532  1.0000
  H   H3106     1.0  0.74467  0.51141  0.85262  1.0000
  S   S704      1.0  0.97223  0.67081  0.62290  1.0000
  H   H3107     1.0  0.93818  0.60994  0.60082  1.0000
  H   H3108     1.0  0.82817  0.48498  0.70040  1.0000
  C   C2599     1.0  0.92096  0.61521  0.63884  1.0000
  H   H3109     1.0  0.83285  0.67974  0.71402  1.0000
  H   H3110     1.0  0.72204  0.69380  0.95212  1.0000
  C   C2600     1.0  0.81435  0.59012  0.89982  1.0000
  H   H3111     1.0  0.87147  0.48400  0.76650  1.0000
  H   H3112     1.0  0.91191  0.71839  0.69713  1.0000
  H   H3113     1.0  0.84923  0.60497  0.65246  1.0000
  N   N175      1.0  0.84361  0.67545  0.67220  1.0000
  C   C2601     1.0  0.82998  0.68701  0.65740  1.0000
  C   C2602     1.0  0.86270  0.66439  0.66078  1.0000
  C   C2603     1.0  0.83268  0.65941  0.68634  1.0000
  C   C2604     1.0  0.84896  0.69024  0.68281  1.0000
  C   C2605     1.0  0.84192  0.69066  0.70414  1.0000
  C   C2606     1.0  0.86103  0.70534  0.67159  1.0000
  C   C2607     1.0  0.74187  0.50162  0.74441  1.0000
  H   H3114     1.0  0.86814  0.70933  0.51541  1.0000
  N   N176      1.0  0.71931  0.58327  0.94979  1.0000
  C   C2608     1.0  0.74759  0.51908  0.83674  1.0000
  H   H3115     1.0  0.90194  0.70160  0.49508  1.0000
  C   C2609     1.0  0.76065  0.61087  0.89784  1.0000
  H   H3116     1.0  0.87081  0.67495  0.64823  1.0000
  H   H3117     1.0  0.85911  0.65258  0.65338  1.0000
  H   H3118     1.0  0.87377  0.65636  0.67134  1.0000
  H   H3119     1.0  0.81746  0.66627  0.69468  1.0000
  H   H3120     1.0  0.82921  0.64831  0.67794  1.0000
  H   H3121     1.0  0.84235  0.65006  0.69771  1.0000
  H   H3122     1.0  0.84202  0.70466  0.72996  1.0000
  C   C2610     1.0  0.93996  0.60925  0.64638  1.0000
  H   H3123     1.0  0.69794  0.61199  0.95073  1.0000
  C   C2611     1.0  0.76393  0.51015  0.82283  1.0000
  C   C2612     1.0  0.85920  0.71941  0.70211  1.0000
  N   N177      1.0  0.75937  0.61897  0.78414  1.0000
  C   C2613     1.0  0.77461  0.59981  0.78853  1.0000
  C   C2614     1.0  0.77007  0.63708  0.77937  1.0000
  C   C2615     1.0  0.74391  0.62085  0.80329  1.0000
  C   C2616     1.0  0.75025  0.61799  0.76633  1.0000
  C   C2617     1.0  0.76285  0.61789  0.74659  1.0000
  C   C2618     1.0  0.72911  0.61647  0.76800  1.0000
  C   C2619     1.0  0.75482  0.61640  0.72961  1.0000
  H   H3124     1.0  0.78693  0.59734  0.77499  1.0000
  H   H3125     1.0  0.78256  0.60034  0.80121  1.0000
  H   H3126     1.0  0.76694  0.58592  0.79302  1.0000
  H   H3127     1.0  0.78456  0.63507  0.76783  1.0000
  H   H3128     1.0  0.77491  0.63979  0.79321  1.0000
  H   H3129     1.0  0.75978  0.65148  0.77352  1.0000
  H   H3130     1.0  0.75124  0.62200  0.81624  1.0000
  H   H3131     1.0  0.73184  0.63494  0.80120  1.0000
  H   H3132     1.0  0.73629  0.60702  0.80870  1.0000
  H   H3133     1.0  0.77915  0.61865  0.74419  1.0000
  H   H3134     1.0  0.71845  0.61591  0.78243  1.0000
  C   C2620     1.0  0.94978  0.63521  0.68265  1.0000
  C   C2621     1.0  0.85996  0.54427  0.66280  1.0000
  C   C2622     1.0  0.74580  0.60068  0.89484  1.0000
  C   C2623     1.0  0.67021  0.70918  0.94994  1.0000
  H   H3135     1.0  0.85029  0.58571  0.68779  1.0000
  H   H3136     1.0  0.77286  0.62126  0.91994  1.0000
  C   C2624     1.0  0.76777  0.52028  0.80239  1.0000
  C   C2625     1.0  0.84874  0.51383  0.65806  1.0000
  H   H3137     1.0  0.78062  0.51368  0.79172  1.0000
  H   H3138     1.0  0.83259  0.51972  0.66529  1.0000
  C   C2626     1.0  0.82169  0.59985  0.88002  1.0000
  H   H3139     1.0  0.76805  0.51742  0.75972  1.0000
  H   H3140     1.0  0.86557  0.49437  0.69047  1.0000
  C   C2627     1.0  0.85250  0.58820  0.65525  1.0000
  C   C2628     1.0  0.74528  0.48698  0.76245  1.0000
  H   H3141     1.0  0.95700  0.65384  0.72346  1.0000
  H   H3142     1.0  0.67354  0.70678  0.84605  1.0000
  H   H3143     1.0  0.89250  0.72525  0.61605  1.0000
  H   H3144     1.0  0.77034  0.61858  0.88474  1.0000
  H   H3145     1.0  0.65974  0.59641  0.91250  1.0000
  C   C2629     1.0  0.90381  0.60630  0.65088  1.0000
  C   C2630     1.0  0.84717  0.70496  0.71358  1.0000
  C   C2631     1.0  0.90584  0.59210  0.66912  1.0000
  H   H3146     1.0  0.69279  0.59608  0.93494  1.0000
  H   H3147     1.0  0.73125  0.52362  0.77627  1.0000
  C   C2632     1.0  0.76206  0.61235  0.91770  1.0000
  C   C2633     1.0  0.92238  0.70488  0.70299  1.0000
  C   C2634     1.0  0.86608  0.71963  0.68114  1.0000
  H   H3148     1.0  0.68578  0.65124  0.76209  1.0000
  H   H3149     1.0  0.68338  0.71074  0.81896  1.0000
  C   C2635     1.0  0.69612  0.66650  0.78197  1.0000
  C   C2636     1.0  0.67024  0.72227  0.93040  1.0000
  H   H3150     1.0  0.74789  0.49160  0.77593  1.0000
  H   H3151     1.0  0.74988  0.60642  0.94941  1.0000
  C   C2637     1.0  0.72825  0.48672  0.57489  1.0000
  C   C2638     1.0  0.65950  0.67184  0.84775  1.0000
  H   H3152     1.0  0.67743  0.66818  0.95150  1.0000
  H   H3153     1.0  0.85440  0.58609  0.62363  1.0000
  H   H3154     1.0  0.88910  0.49678  0.65822  1.0000
  C   C2639     1.0  0.73733  0.49322  0.58893  1.0000
  H   H3155     1.0  0.74092  0.57417  0.97108  1.0000
  C   C2640     1.0  0.92632  0.67190  0.72602  1.0000
  H   H3156     1.0  0.91025  0.72071  0.50424  1.0000
  S   S705      1.0  0.98684  0.65011  0.56997  1.0000
  H   H3157     1.0  0.71250  0.56066  0.93471  1.0000
  H   H3158     1.0  0.77622  0.59251  0.96809  1.0000
  C   C2641     1.0  0.67929  0.69876  0.83255  1.0000
  H   H3159     1.0  0.84775  0.72527  0.93305  1.0000
  H   H3160     1.0  0.68057  0.53360  0.93988  1.0000
  C   C2642     1.0  0.79019  0.59301  0.97330  1.0000
  H   H3161     1.0  0.87525  0.72976  0.52422  1.0000
  H   H3162     1.0  0.87325  0.70959  0.47739  1.0000
  C   C2643     1.0  0.97564  0.71382  0.67333  1.0000
  H   H3163     1.0  0.70627  0.71919  0.95097  1.0000
  H   H3164     1.0  0.73146  0.49326  0.55871  1.0000
  S   S706      1.0  0.98838  0.72493  0.61797  1.0000
  H   H3165     1.0  0.83593  0.67774  0.97318  1.0000
  H   H3166     1.0  0.68388  0.72188  0.91855  1.0000
  C   C2644     1.0  0.81373  0.72887  0.51943  1.0000
  H   H3167     1.0  0.68661  0.58935  0.96236  1.0000
  S   S707      1.0  0.85583  0.72997  0.57056  1.0000
  H   H3168     1.0  0.98167  0.72647  0.66149  1.0000
  H   H3169     1.0  0.95078  0.72997  0.64647  1.0000
  H   H3170     1.0  0.97393  0.72850  0.56237  1.0000
  H   H3171     1.0  0.74736  0.73055  0.60298  1.0000
  H   H3172     1.0  0.87518  0.73110  0.67215  1.0000
  H   H3173     1.0  0.86313  0.73052  0.70947  1.0000
  H   H3174     1.0  0.65701  0.53918  0.97262  1.0000
  H   H3175     1.0  0.72346  0.59838  0.97339  1.0000
  N   N178      1.0  0.88220  0.73163  0.49139  1.0000
  Fe  Fe355     1.0  0.87267  0.77892  0.00112  1.0000
  S   S708      1.0  0.84627  0.78147  0.02760  1.0000
  Fe  Fe356     1.0  0.90318  0.78710  0.02624  1.0000
  S   S709      1.0  0.87897  0.78877  0.05477  1.0000
  S   S710      1.0  0.93705  0.78753  0.02619  1.0000
  Fe  Fe357     1.0  0.86901  0.76197  0.04694  1.0000
  H   H3176     1.0  0.78735  0.89246  0.27994  1.0000
  Fe  Fe358     1.0  0.85869  0.80837  0.03270  1.0000
  S   S711      1.0  0.83668  0.83726  0.04117  1.0000
  S   S712      1.0  0.89505  0.75837  0.02045  1.0000
  S   S713      1.0  0.88343  0.80779  0.00422  1.0000
  C   C2645     1.0  0.89454  0.93978  0.14515  1.0000
  S   S714      1.0  0.85156  0.96427  0.06813  1.0000
  H   H3177     1.0  0.90211  0.83615  0.35663  1.0000
  Fe  Fe359     1.0  0.81636  0.95192  0.12007  1.0000
  S   S715      1.0  0.85088  0.94131  0.11606  1.0000
  S   S716      1.0  0.79269  0.94772  0.14890  1.0000
  H   H3178     1.0  0.87900  0.96375  0.30806  1.0000
  Fe  Fe360     1.0  0.84717  0.93305  0.08656  1.0000
  S   S717      1.0  0.86743  0.90552  0.07368  1.0000
  N   N179      1.0  0.79126  0.90612  0.37020  1.0000
  S   S718      1.0  0.81244  0.94114  0.09199  1.0000
  Fe  Fe361     1.0  0.68618  0.93405  0.33889  1.0000
  S   S719      1.0  0.96177  0.85500  0.06498  1.0000
  Fe  Fe362     1.0  0.83315  0.83075  0.44549  1.0000
  H   H3179     1.0  0.97175  0.79548  0.09865  1.0000
  H   H3180     1.0  0.85594  0.91917  0.00633  1.0000
  Fe  Fe363     1.0  0.83495  0.81830  0.40458  1.0000
  S   S720      1.0  0.80585  0.80480  0.41577  1.0000
  S   S721      1.0  0.84928  0.81638  0.37157  1.0000
  Fe  Fe364     1.0  0.79396  0.83336  0.42955  1.0000
  S   S722      1.0  0.76210  0.85175  0.42910  1.0000
  Fe  Fe365     1.0  0.81862  0.79134  0.44477  1.0000
  C   C2646     1.0  0.92181  0.97704  0.18965  1.0000
  S   S723      1.0  0.82195  0.84806  0.41644  1.0000
  S   S724      1.0  0.84905  0.80219  0.43246  1.0000
  Fe  Fe366     1.0  0.84792  0.91091  0.24219  1.0000
  S   S725      1.0  0.87523  0.91900  0.21841  1.0000
  S   S726      1.0  0.81543  0.91284  0.23738  1.0000
  Fe  Fe367     1.0  0.87121  0.90323  0.27800  1.0000
  S   S727      1.0  0.90072  0.91051  0.25728  1.0000
  S   S728      1.0  0.86821  0.89925  0.31242  1.0000
  Fe  Fe368     1.0  0.88013  0.93670  0.24105  1.0000
  S   S729      1.0  0.88435  0.96972  0.23373  1.0000
  Fe  Fe369     1.0  0.89340  0.89194  0.23661  1.0000
  S   S730      1.0  0.91724  0.86733  0.22249  1.0000
  S   S731      1.0  0.85127  0.93100  0.26316  1.0000
  S   S732      1.0  0.86548  0.88230  0.25889  1.0000
  H   H3181     1.0  0.82165  0.95056  0.04355  1.0000
  S   S733      1.0  0.68555  0.90798  0.32294  1.0000
  Fe  Fe370     1.0  0.70308  0.88833  0.34723  1.0000
  S   S734      1.0  0.73321  0.86607  0.34340  1.0000
  S   S735      1.0  0.70535  0.91466  0.36146  1.0000
  H   H3182     1.0  0.76474  0.78578  0.44512  1.0000
  C   C2647     1.0  0.95884  0.82787  0.97826  1.0000
  H   H3183     1.0  0.73409  0.92881  0.31095  1.0000
  C   C2648     1.0  0.80744  0.86865  0.47220  1.0000
  C   C2649     1.0  0.89981  0.95435  0.17306  1.0000
  C   C2650     1.0  0.88171  0.96639  0.27526  1.0000
  H   H3184     1.0  0.75243  0.78525  0.42427  1.0000
  S   S736      1.0  0.98007  0.84369  0.11657  1.0000
  H   H3185     1.0  0.89134  0.95133  0.27483  1.0000
  C   C2651     1.0  0.85309  0.83994  0.35535  1.0000
  C   C2652     1.0  0.85711  0.85604  0.36313  1.0000
  C   C2653     1.0  0.86173  0.87417  0.34975  1.0000
  C   C2654     1.0  0.86191  0.87647  0.32861  1.0000
  C   C2655     1.0  0.85734  0.86062  0.32087  1.0000
  C   C2656     1.0  0.85322  0.84224  0.33420  1.0000
  H   H3186     1.0  0.85743  0.85421  0.37936  1.0000
  H   H3187     1.0  0.86547  0.88633  0.35577  1.0000
  H   H3188     1.0  0.85716  0.86243  0.30464  1.0000
  H   H3189     1.0  0.85019  0.82975  0.32815  1.0000
  C   C2657     1.0  0.75446  0.85474  0.40529  1.0000
  C   C2658     1.0  0.73434  0.86459  0.40317  1.0000
  C   C2659     1.0  0.72784  0.86744  0.38432  1.0000
  C   C2660     1.0  0.74141  0.86074  0.36731  1.0000
  C   C2661     1.0  0.76159  0.85060  0.36943  1.0000
  C   C2662     1.0  0.76813  0.84760  0.38846  1.0000
  H   H3190     1.0  0.72354  0.86991  0.41611  1.0000
  H   H3191     1.0  0.71206  0.87456  0.38326  1.0000
  H   H3192     1.0  0.77219  0.84528  0.35637  1.0000
  H   H3193     1.0  0.78378  0.84000  0.38998  1.0000
  H   H3194     1.0  0.76317  0.88382  0.28959  1.0000
  H   H3195     1.0  0.73460  0.90329  0.30739  1.0000
  N   N180      1.0  0.76337  0.91458  0.29438  1.0000
  C   C2663     1.0  0.87467  0.97338  0.29409  1.0000
  C   C2664     1.0  0.76845  0.94752  0.30310  1.0000
  C   C2665     1.0  0.93271  0.87545  0.19867  1.0000
  C   C2666     1.0  0.93054  0.89631  0.18938  1.0000
  C   C2667     1.0  0.94293  0.90239  0.17035  1.0000
  C   C2668     1.0  0.74434  0.91351  0.31029  1.0000
  H   H3196     1.0  0.91938  0.90777  0.19684  1.0000
  H   H3197     1.0  0.94111  0.91845  0.16315  1.0000
  H   H3198     1.0  0.81187  0.97067  0.24726  1.0000
  H   H3199     1.0  0.91601  0.86559  0.26575  1.0000
  C   C2669     1.0  0.90439  0.82734  0.34438  1.0000
  C   C2670     1.0  0.90468  0.79533  0.33367  1.0000
  C   C2671     1.0  0.91983  0.75110  0.09679  1.0000
  C   C2672     1.0  0.80019  0.93717  0.17285  1.0000
  C   C2673     1.0  0.78460  0.93355  0.18991  1.0000
  C   C2674     1.0  0.78958  0.92582  0.20950  1.0000
  C   C2675     1.0  0.81021  0.92172  0.21226  1.0000
  C   C2676     1.0  0.82596  0.92525  0.19520  1.0000
  C   C2677     1.0  0.82097  0.93298  0.17543  1.0000
  H   H3200     1.0  0.76855  0.93675  0.18797  1.0000
  H   H3201     1.0  0.77735  0.92309  0.22255  1.0000
  H   H3202     1.0  0.84191  0.92209  0.19722  1.0000
  H   H3203     1.0  0.83307  0.93585  0.16231  1.0000
  Fe  Fe371     1.0  0.85217  0.97333  0.09796  1.0000
  C   C2678     1.0  0.84546  0.85521  0.05148  1.0000
  C   C2679     1.0  0.86657  0.85591  0.04884  1.0000
  C   C2680     1.0  0.87303  0.87124  0.05603  1.0000
  C   C2681     1.0  0.85849  0.88585  0.06608  1.0000
  C   C2682     1.0  0.83739  0.88486  0.06920  1.0000
  C   C2683     1.0  0.83091  0.86971  0.06172  1.0000
  H   H3204     1.0  0.87787  0.84491  0.04086  1.0000
  H   H3205     1.0  0.88936  0.87193  0.05349  1.0000
  H   H3206     1.0  0.82605  0.89580  0.07723  1.0000
  H   H3207     1.0  0.81456  0.86912  0.06396  1.0000
  C   C2684     1.0  0.94367  0.80559  0.03810  1.0000
  C   C2685     1.0  0.92873  0.82162  0.04516  1.0000
  C   C2686     1.0  0.93453  0.83633  0.05378  1.0000
  C   C2687     1.0  0.95519  0.83489  0.05590  1.0000
  C   C2688     1.0  0.97011  0.81849  0.04937  1.0000
  C   C2689     1.0  0.96439  0.80404  0.04024  1.0000
  H   H3208     1.0  0.91276  0.82298  0.04356  1.0000
  H   H3209     1.0  0.92293  0.84904  0.05862  1.0000
  H   H3210     1.0  0.96537  0.78267  0.12486  1.0000
  H   H3211     1.0  0.95974  0.95297  0.15627  1.0000
  H   H3212     1.0  0.91031  0.79547  0.30149  1.0000
  H   H3213     1.0  0.90977  0.84395  0.12000  1.0000
  C   C2690     1.0  0.89980  0.88013  0.13304  1.0000
  H   H3214     1.0  0.93500  0.84728  0.10546  1.0000
  C   C2691     1.0  0.94578  0.77299  0.08962  1.0000
  H   H3215     1.0  0.85264  0.96485  0.21533  1.0000
  H   H3216     1.0  0.66537  0.88111  0.45732  1.0000
  H   H3217     1.0  0.82651  0.92630  0.30562  1.0000
  H   H3218     1.0  0.70596  0.83420  0.38952  1.0000
  H   H3219     1.0  0.98022  0.74411  0.13405  1.0000
  H   H3220     1.0  0.79696  0.96783  0.02388  1.0000
  C   C2692     1.0  0.92671  0.76952  0.08714  1.0000
  H   H3221     1.0  0.72396  0.76892  0.44952  1.0000
  N   N181      1.0  0.82497  0.93196  0.02017  1.0000
  C   C2693     1.0  0.83299  0.93853  0.03610  1.0000
  C   C2694     1.0  0.80558  0.92381  0.02989  1.0000
  C   C2695     1.0  0.84051  0.91459  0.01273  1.0000
  C   C2696     1.0  0.82068  0.95005  0.00379  1.0000
  H   H3222     1.0  0.94671  0.82294  0.99070  1.0000
  H   H3223     1.0  0.77293  0.98108  0.18411  1.0000
  H   H3224     1.0  0.92002  0.96310  0.20175  1.0000
  H   H3225     1.0  0.81259  0.88860  0.34865  1.0000
  H   H3226     1.0  0.69032  0.80878  0.46459  1.0000
  H   H3227     1.0  0.83659  0.92543  0.04867  1.0000
  H   H3228     1.0  0.84751  0.94488  0.02950  1.0000
  H   H3229     1.0  0.96460  0.75422  0.00935  1.0000
  H   H3230     1.0  0.80852  0.90948  0.04149  1.0000
  H   H3231     1.0  0.75472  0.86569  0.46999  1.0000
  H   H3232     1.0  0.83528  0.90854  0.00097  1.0000
  H   H3233     1.0  0.98672  0.77553  0.07146  1.0000
  S   S737      1.0  0.69699  0.96284  0.31885  1.0000
  S   S738      1.0  0.67188  0.90409  0.41605  1.0000
  H   H3234     1.0  0.80875  0.87019  0.45574  1.0000
  H   H3235     1.0  0.80226  0.74892  0.98142  1.0000
  H   H3236     1.0  0.73951  0.76852  0.46833  1.0000
  C   C2697     1.0  0.83727  0.96909  0.21043  1.0000
  C   C2698     1.0  0.77666  0.92703  0.29956  1.0000
  C   C2699     1.0  0.79805  0.91970  0.30053  1.0000
  C   C2700     1.0  0.78086  0.95990  0.30717  1.0000
  C   C2701     1.0  0.81024  0.93218  0.30484  1.0000
  C   C2702     1.0  0.80176  0.95233  0.30780  1.0000
  H   H3237     1.0  0.77891  0.88462  0.30747  1.0000
  H   H3238     1.0  0.74824  0.90712  0.32587  1.0000
  H   H3239     1.0  0.80587  0.90450  0.29773  1.0000
  C   C2703     1.0  0.77378  0.89297  0.29280  1.0000
  H   H3240     1.0  0.91725  0.78116  0.07758  1.0000
  H   H3241     1.0  0.74789  0.94027  0.27465  1.0000
  C   C2704     1.0  0.95760  0.88777  0.16051  1.0000
  C   C2705     1.0  0.94721  0.86075  0.18871  1.0000
  H   H3242     1.0  0.91697  0.94337  0.11732  1.0000
  H   H3243     1.0  0.94893  0.84458  0.19579  1.0000
  C   C2706     1.0  0.95962  0.86687  0.16965  1.0000
  H   H3244     1.0  0.77122  0.92606  0.26198  1.0000
  C   C2707     1.0  0.79980  0.92557  0.36331  1.0000
  H   H3245     1.0  0.92993  0.84611  0.13275  1.0000
  H   H3246     1.0  0.95043  0.78746  0.08170  1.0000
  C   C2708     1.0  0.75726  0.92452  0.27424  1.0000
  H   H3247     1.0  0.75241  0.95428  0.30239  1.0000
  H   H3248     1.0  0.74774  0.91536  0.26937  1.0000
  N   N182      1.0  0.97917  0.76188  0.10352  1.0000
  H   H3249     1.0  0.97609  0.79176  0.03464  1.0000
  H   H3250     1.0  0.96374  0.75427  0.04828  1.0000
  H   H3251     1.0  0.94601  0.88245  0.10004  1.0000
  H   H3252     1.0  0.92187  0.87772  0.08229  1.0000
  C   C2709     1.0  0.71519  0.80977  0.43775  1.0000
  H   H3253     1.0  0.84471  0.94474  0.34123  1.0000
  H   H3254     1.0  0.70781  0.96029  0.35912  1.0000
  H   H3255     1.0  0.90283  0.77924  0.33760  1.0000
  H   H3256     1.0  0.89852  0.86703  0.28965  1.0000
  C   C2710     1.0  0.95133  0.73926  0.11121  1.0000
  C   C2711     1.0  0.92393  0.95681  0.14070  1.0000
  C   C2712     1.0  0.90237  0.80660  0.34929  1.0000
  H   H3257     1.0  0.90872  0.85343  0.32127  1.0000
  H   H3258     1.0  0.76710  0.89261  0.36430  1.0000
  C   C2713     1.0  0.71892  0.81735  0.41619  1.0000
  H   H3259     1.0  0.83201  0.91231  0.35132  1.0000
  H   H3260     1.0  0.81144  0.96214  0.31051  1.0000
  H   H3261     1.0  0.75785  0.80927  0.42807  1.0000
  H   H3262     1.0  0.77788  0.91068  0.34309  1.0000
  H   H3263     1.0  0.93784  0.96107  0.13076  1.0000
  C   C2714     1.0  0.90817  0.83712  0.32383  1.0000
  H   H3264     1.0  0.84321  0.90121  0.02543  1.0000
  H   H3265     1.0  0.76008  0.91952  0.36461  1.0000
  C   C2715     1.0  0.93419  0.88476  0.11410  1.0000
  H   H3266     1.0  0.94250  0.87832  0.12722  1.0000
  C   C2716     1.0  0.92301  0.85203  0.11859  1.0000
  H   H3267     1.0  0.84034  0.97160  0.19332  1.0000
  C   C2717     1.0  0.68257  0.83219  0.41672  1.0000
  C   C2718     1.0  0.96106  0.73826  0.01430  1.0000
  H   H3268     1.0  0.97092  0.85547  0.16220  1.0000
  H   H3269     1.0  0.92940  0.90171  0.11378  1.0000
  C   C2719     1.0  0.90913  0.88130  0.09528  1.0000
  H   H3270     1.0  0.72995  0.88293  0.44729  1.0000
  H   H3271     1.0  0.88567  0.93147  0.13917  1.0000
  C   C2720     1.0  0.82855  0.94469  0.34830  1.0000
  H   H3272     1.0  0.70280  0.88774  0.45747  1.0000
  C   C2721     1.0  0.75256  0.79451  0.43604  1.0000
  C   C2722     1.0  0.93380  0.82638  0.27476  1.0000
  N   N183      1.0  0.91612  0.87476  0.11547  1.0000
  H   H3273     1.0  0.90348  0.89829  0.09211  1.0000
  H   H3274     1.0  0.89664  0.87312  0.09436  1.0000
  H   H3275     1.0  0.89413  0.95691  0.18867  1.0000
  H   H3276     1.0  0.89843  0.79941  0.36526  1.0000
  C   C2723     1.0  0.91025  0.82615  0.30747  1.0000
  H   H3277     1.0  0.92630  0.86194  0.28867  1.0000
  C   C2724     1.0  0.91356  0.85862  0.28238  1.0000
  C   C2725     1.0  0.90875  0.80485  0.31305  1.0000
  H   H3278     1.0  0.94675  0.82780  0.28198  1.0000
  S   S739      1.0  0.80371  0.81878  0.45967  1.0000
  H   H3279     1.0  0.92023  0.87051  0.15588  1.0000
  H   H3280     1.0  0.94391  0.73978  0.01641  1.0000
  C   C2726     1.0  0.88827  0.94385  0.16510  1.0000
  H   H3281     1.0  0.89352  0.87808  0.18525  1.0000
  N   N184      1.0  0.91355  0.83607  0.28551  1.0000
  H   H3282     1.0  0.72913  0.97991  0.37089  1.0000
  H   H3283     1.0  0.98615  0.81742  0.05061  1.0000
  H   H3284     1.0  0.88129  0.83920  0.28400  1.0000
  H   H3285     1.0  0.93452  0.80967  0.27497  1.0000
  H   H3286     1.0  0.93688  0.83382  0.25821  1.0000
  C   C2727     1.0  0.90465  0.87675  0.15309  1.0000
  C   C2728     1.0  0.83142  0.95121  0.98312  1.0000
  C   C2729     1.0  0.89686  0.83330  0.27557  1.0000
  H   H3287     1.0  0.89729  0.81687  0.27488  1.0000
  C   C2730     1.0  0.80579  0.96761  0.00853  1.0000
  H   H3288     1.0  0.79964  0.87311  0.37048  1.0000
  H   H3289     1.0  0.85686  0.74505  0.10441  1.0000
  Fe  Fe372     1.0  0.98782  0.85279  0.08231  1.0000
  C   C2731     1.0  0.87869  0.88786  0.13113  1.0000
  C   C2732     1.0  0.88942  0.88096  0.17007  1.0000
  H   H3290     1.0  0.87339  0.89072  0.11660  1.0000
  C   C2733     1.0  0.82096  0.92605  0.35420  1.0000
  C   C2734     1.0  0.91223  0.94639  0.13292  1.0000
  N   N185      1.0  0.93129  0.97146  0.16915  1.0000
  C   C2735     1.0  0.95129  0.95735  0.17121  1.0000
  H   H3291     1.0  0.89813  0.84166  0.25933  1.0000
  H   H3292     1.0  0.73755  0.90371  0.46693  1.0000
  C   C2736     1.0  0.69439  0.81386  0.44819  1.0000
  H   H3293     1.0  0.77131  0.91549  0.39757  1.0000
  H   H3294     1.0  0.79703  0.90256  0.40099  1.0000
  C   C2737     1.0  0.86890  0.88845  0.16767  1.0000
  C   C2738     1.0  0.67839  0.82477  0.43776  1.0000
  C   C2739     1.0  0.83248  0.75723  0.97735  1.0000
  H   H3295     1.0  0.83657  0.97732  0.24667  1.0000
  C   C2740     1.0  0.86355  0.89194  0.14826  1.0000
  H   H3296     1.0  0.85706  0.89127  0.18094  1.0000
  C   C2741     1.0  0.97683  0.78200  0.11031  1.0000
  N   N186      1.0  0.73186  0.79835  0.44930  1.0000
  H   H3297     1.0  0.90500  0.74847  0.09490  1.0000
  Fe  Fe373     1.0  0.67542  0.90811  0.38161  1.0000
  H   H3298     1.0  0.77064  0.94584  0.37273  1.0000
  H   H3299     1.0  0.73714  0.82591  0.45692  1.0000
  H   H3300     1.0  0.79832  0.91991  0.01819  1.0000
  H   H3301     1.0  0.84750  0.89765  0.14650  1.0000
  C   C2742     1.0  0.79462  0.96341  0.35987  1.0000
  H   H3302     1.0  0.82955  0.95538  0.21663  1.0000
  C   C2743     1.0  0.98770  0.87445  0.99305  1.0000
  C   C2744     1.0  0.91808  0.96118  0.16101  1.0000
  H   H3303     1.0  0.98821  0.85230  0.02113  1.0000
  S   S740      1.0  0.84531  0.84362  0.46761  1.0000
  C   C2745     1.0  0.78687  0.94488  0.36592  1.0000
  C   C2746     1.0  0.70275  0.82831  0.40592  1.0000
  C   C2747     1.0  0.95869  0.75802  0.10180  1.0000
  C   C2748     1.0  0.81544  0.96331  0.35120  1.0000
  S   S741      1.0  0.67444  0.88038  0.36883  1.0000
  H   H3304     1.0  0.96181  0.96453  0.17714  1.0000
  H   H3305     1.0  0.94883  0.94271  0.18207  1.0000
  S   S742      1.0  0.81777  0.75814  0.46019  1.0000
  H   H3306     1.0  0.74627  0.80247  0.47346  1.0000
  C   C2749     1.0  0.72678  0.77795  0.46033  1.0000
  H   H3307     1.0  0.79391  0.93494  0.03828  1.0000
  H   H3308     1.0  0.73421  0.81540  0.40688  1.0000
  Fe  Fe374     1.0  0.81713  0.97306  0.07595  1.0000
  H   H3309     1.0  0.77818  0.88818  0.39872  1.0000
  C   C2750     1.0  0.95858  0.73919  0.05029  1.0000
  H   H3310     1.0  0.81986  0.88481  0.37367  1.0000
  H   H3311     1.0  0.87437  0.93880  0.17443  1.0000
  C   C2751     1.0  0.87652  0.97897  0.25707  1.0000
  H   H3312     1.0  0.71273  0.77942  0.47251  1.0000
  C   C2752     1.0  0.77334  0.90733  0.36010  1.0000
  H   H3313     1.0  0.82142  0.97771  0.34650  1.0000
  C   C2753     1.0  0.71567  0.97163  0.34816  1.0000
  C   C2754     1.0  0.80654  0.88745  0.36547  1.0000
  H   H3314     1.0  0.82807  0.76613  0.98965  1.0000
  C   C2755     1.0  0.78413  0.90301  0.39281  1.0000
  C   C2756     1.0  0.73368  0.81038  0.46461  1.0000
  H   H3315     1.0  0.67018  0.84114  0.40882  1.0000
  S   S743      1.0  0.97291  0.89620  0.13674  1.0000
  H   H3316     1.0  0.98284  0.81705  0.99654  1.0000
  C   C2757     1.0  0.71775  0.87738  0.46003  1.0000
  H   H3317     1.0  0.94150  0.74317  0.05119  1.0000
  H   H3318     1.0  0.78441  0.97798  0.36191  1.0000
  H   H3319     1.0  0.66265  0.82763  0.44609  1.0000
  H   H3320     1.0  0.97527  0.86906  0.98894  1.0000
  H   H3321     1.0  0.77429  0.97555  0.30971  1.0000
  C   C2758     1.0  0.93208  0.73603  0.10882  1.0000
  H   H3322     1.0  0.84292  0.93860  0.97798  1.0000
  C   C2759     1.0  0.97918  0.82453  0.98153  1.0000
  C   C2760     1.0  0.71308  0.97576  0.32758  1.0000
  H   H3323     1.0  0.80629  0.96920  0.19457  1.0000
  H   H3324     1.0  0.86091  0.98141  0.14004  1.0000
  H   H3325     1.0  0.71712  0.86160  0.45790  1.0000
  Fe  Fe375     1.0  0.65657  0.90274  0.34625  1.0000
  H   H3326     1.0  0.85866  0.73308  0.02152  1.0000
  S   S744      1.0  0.65593  0.93044  0.36047  1.0000
  H   H3327     1.0  0.76335  0.73620  0.57804  1.0000
  Fe  Fe376     1.0  0.67497  0.94864  0.80589  1.0000
  C   C2761     1.0  0.69312  0.95285  0.57829  1.0000
  C   C2762     1.0  0.69667  0.90197  0.71071  1.0000
  C   C2763     1.0  0.82320  0.73566  0.95675  1.0000
  H   H3328     1.0  0.88285  0.90093  0.53827  1.0000
  H   H3329     1.0  0.65637  0.96485  0.70484  1.0000
  S   S745      1.0  0.67688  0.92116  0.79066  1.0000
  H   H3330     1.0  0.66586  0.79974  0.54980  1.0000
  Fe  Fe377     1.0  0.77567  0.84905  0.58981  1.0000
  S   S746      1.0  0.77153  0.88322  0.57764  1.0000
  S   S747      1.0  0.80454  0.82937  0.60079  1.0000
  Fe  Fe378     1.0  0.73363  0.84530  0.58091  1.0000
  S   S748      1.0  0.72619  0.87902  0.56840  1.0000
  S   S749      1.0  0.70873  0.82620  0.58487  1.0000
  Fe  Fe379     1.0  0.75934  0.87507  0.55244  1.0000
  S   S750      1.0  0.76482  0.88859  0.51885  1.0000
  Fe  Fe380     1.0  0.73870  0.88383  0.59478  1.0000
  S   S751      1.0  0.72071  0.90489  0.61678  1.0000
  S   S752      1.0  0.76600  0.84075  0.56303  1.0000
  S   S753      1.0  0.74374  0.85014  0.60883  1.0000
  Fe  Fe381     1.0  0.89228  0.84328  0.65204  1.0000
  S   S754      1.0  0.90470  0.81662  0.67547  1.0000
  S   S755      1.0  0.85916  0.85980  0.65098  1.0000
  Fe  Fe382     1.0  0.93404  0.84402  0.62474  1.0000
  S   S756      1.0  0.94956  0.81715  0.64496  1.0000
  S   S757      1.0  0.95175  0.86098  0.59654  1.0000
  Fe  Fe383     1.0  0.92144  0.80315  0.64748  1.0000
  S   S758      1.0  0.92547  0.77032  0.64231  1.0000
  Fe  Fe384     1.0  0.93208  0.83312  0.67125  1.0000
  S   S759      1.0  0.95396  0.83149  0.69385  1.0000
  S   S760      1.0  0.90768  0.82868  0.62463  1.0000
  S   S761      1.0  0.91791  0.86097  0.65041  1.0000
  S   S762      1.0  0.84811  0.74030  0.62592  1.0000
  C   C2764     1.0  0.95944  0.85002  0.70649  1.0000
  H   H3331     1.0  0.70159  0.90905  0.72141  1.0000
  H   H3332     1.0  0.91492  0.78942  0.48062  1.0000
  H   H3333     1.0  0.67680  0.90194  0.64317  1.0000
  C   C2765     1.0  0.66220  0.87247  0.60279  1.0000
  C   C2766     1.0  0.94917  0.87060  0.70437  1.0000
  H   H3334     1.0  0.74369  0.79250  0.56931  1.0000
  C   C2767     1.0  0.82751  0.96899  0.96832  1.0000
  S   S763      1.0  0.87217  0.76674  0.97201  1.0000
  H   H3335     1.0  0.93725  0.87568  0.69493  1.0000
  C   C2768     1.0  0.90407  0.76292  0.63639  1.0000
  C   C2769     1.0  0.88398  0.77364  0.64166  1.0000
  C   C2770     1.0  0.86697  0.76673  0.63803  1.0000
  H   H3336     1.0  0.98867  0.86540  0.56679  1.0000
  H   H3337     1.0  0.69336  0.95770  0.56192  1.0000
  H   H3338     1.0  0.88151  0.78692  0.64909  1.0000
  H   H3339     1.0  0.85142  0.77484  0.64262  1.0000
  C   C2771     1.0  0.70566  0.92817  0.60679  1.0000
  C   C2772     1.0  0.70591  0.93445  0.58564  1.0000
  C   C2773     1.0  0.96940  0.87835  0.72729  1.0000
  H   H3340     1.0  0.71599  0.92520  0.57495  1.0000
  H   H3341     1.0  0.68894  0.91593  0.88180  1.0000
  C   C2774     1.0  0.81915  0.83803  0.61515  1.0000
  C   C2775     1.0  0.83740  0.82517  0.62039  1.0000
  C   C2776     1.0  0.84977  0.83171  0.63129  1.0000
  C   C2777     1.0  0.84389  0.85109  0.63729  1.0000
  C   C2778     1.0  0.82560  0.86393  0.63208  1.0000
  C   C2779     1.0  0.81331  0.85749  0.62096  1.0000
  H   H3342     1.0  0.84193  0.81000  0.61620  1.0000
  H   H3343     1.0  0.86364  0.82157  0.63543  1.0000
  H   H3344     1.0  0.82092  0.87895  0.63666  1.0000
  H   H3345     1.0  0.79931  0.86756  0.61700  1.0000
  C   C2780     1.0  0.78768  0.87648  0.50497  1.0000
  S   S764      1.0  0.80272  0.74080  0.55726  1.0000
  H   H3346     1.0  0.70521  0.87295  0.64672  1.0000
  H   H3347     1.0  0.85292  0.73470  0.51238  1.0000
  C   C2781     1.0  0.90072  0.78349  0.48223  1.0000
  H   H3348     1.0  0.95035  0.73855  0.69933  1.0000
  C   C2782     1.0  0.96275  0.82481  0.58119  1.0000
  H   H3349     1.0  0.98281  0.82790  0.72089  1.0000
  H   H3350     1.0  0.94929  0.81993  0.59156  1.0000
  H   H3351     1.0  0.79874  0.78467  0.49033  1.0000
  C   C2783     1.0  0.69413  0.80614  0.52963  1.0000
  C   C2784     1.0  0.71268  0.81346  0.52780  1.0000
  C   C2785     1.0  0.71711  0.82021  0.54445  1.0000
  C   C2786     1.0  0.70325  0.81913  0.56319  1.0000
  C   C2787     1.0  0.68486  0.81159  0.56505  1.0000
  H   H3352     1.0  0.67957  0.90028  0.85865  1.0000
  H   H3353     1.0  0.72352  0.81414  0.51343  1.0000
  H   H3354     1.0  0.73129  0.82609  0.54283  1.0000
  C   C2788     1.0  0.85627  0.86806  0.57534  1.0000
  H   H3355     1.0  0.68223  0.95986  0.72289  1.0000
  C   C2789     1.0  0.98840  0.73244  0.56483  1.0000
  C   C2790     1.0  0.72424  0.94725  0.87303  1.0000
  H   H3356     1.0  0.69238  0.93559  0.63686  1.0000
  H   H3357     1.0  0.92264  0.73727  0.62272  1.0000
  C   C2791     1.0  0.90709  0.74551  0.62701  1.0000
  C   C2792     1.0  0.68016  0.80539  0.54826  1.0000
  H   H3358     1.0  0.66111  0.85100  0.50965  1.0000
  H   H3359     1.0  0.67409  0.81071  0.57949  1.0000
  C   C2793     1.0  0.69261  0.94030  0.62050  1.0000
  C   C2794     1.0  0.75983  0.76763  0.60085  1.0000
  H   H3360     1.0  0.87346  0.74282  0.94102  1.0000
  H   H3361     1.0  0.73555  0.77308  0.56011  1.0000
  H   H3362     1.0  0.68862  0.85664  0.64410  1.0000
  C   C2795     1.0  0.97484  0.84379  0.71897  1.0000
  C   C2796     1.0  0.68298  0.88804  0.71804  1.0000
  H   H3363     1.0  0.71866  0.78491  0.60182  1.0000
  H   H3364     1.0  0.94579  0.90038  0.71317  1.0000
  H   H3365     1.0  0.87613  0.89342  0.59852  1.0000
  H   H3366     1.0  0.78064  0.73749  0.60295  1.0000
  S   S765      1.0  0.65693  0.87669  0.83334  1.0000
  C   C2797     1.0  0.67112  0.88997  0.60025  1.0000
  H   H3367     1.0  0.70189  0.85041  0.66580  1.0000
  H   H3368     1.0  0.74743  0.86312  0.49736  1.0000
  C   C2798     1.0  0.74816  0.74097  0.58773  1.0000
  H   H3369     1.0  0.83429  0.84575  0.51088  1.0000
  H   H3370     1.0  0.98431  0.76959  0.54409  1.0000
  C   C2799     1.0  0.82357  0.85684  0.48200  1.0000
  H   H3371     1.0  0.72154  0.75956  0.61711  1.0000
  H   H3372     1.0  0.88195  0.81386  0.47784  1.0000
  H   H3373     1.0  0.75072  0.94792  0.84876  1.0000
  C   C2800     1.0  0.98502  0.85037  0.56731  1.0000
  C   C2801     1.0  0.86995  0.74926  0.62884  1.0000
  H   H3374     1.0  0.71177  0.76468  0.59328  1.0000
  C   C2802     1.0  0.97982  0.85781  0.72927  1.0000
  H   H3375     1.0  0.95362  0.75054  0.67258  1.0000
  C   C2803     1.0  0.68906  0.86302  0.49528  1.0000
  H   H3376     1.0  0.69485  0.88222  0.87615  1.0000
  C   C2804     1.0  0.72593  0.89849  0.48045  1.0000
  C   C2805     1.0  0.70662  0.87336  0.51821  1.0000
  C   C2806     1.0  0.78973  0.87882  0.48361  1.0000
  H   H3377     1.0  0.73629  0.73798  0.57998  1.0000
  C   C2807     1.0  0.67458  0.86017  0.53159  1.0000
  C   C2808     1.0  0.78836  0.77764  0.62120  1.0000
  H   H3378     1.0  0.74514  0.79992  0.60129  1.0000
  H   H3379     1.0  0.87698  0.86621  0.60703  1.0000
  C   C2809     1.0  0.87092  0.89231  0.54680  1.0000
  H   H3380     1.0  0.91723  0.85020  0.58107  1.0000
  H   H3381     1.0  0.79284  0.77754  0.52830  1.0000
  H   H3382     1.0  0.98378  0.97912  0.80458  1.0000
  H   H3383     1.0  0.90088  0.75586  0.53177  1.0000
  H   H3384     1.0  0.68784  0.88851  0.59803  1.0000
  H   H3385     1.0  0.92926  0.74446  0.68518  1.0000
  H   H3386     1.0  0.80213  0.86269  0.53141  1.0000
  H   H3387     1.0  0.84947  0.76374  0.48709  1.0000
  H   H3388     1.0  0.73990  0.97983  0.80331  1.0000
  C   C2810     1.0  0.85308  0.89518  0.53816  1.0000
  N   N187      1.0  0.89173  0.87504  0.57533  1.0000
  C   C2811     1.0  0.67631  0.87899  0.70438  1.0000
  S   S766      1.0  0.70457  0.96085  0.80578  1.0000
  H   H3389     1.0  0.82295  0.88720  0.54147  1.0000
  H   H3390     1.0  0.80449  0.74661  0.62060  1.0000
  H   H3391     1.0  0.97773  0.75450  0.52821  1.0000
  H   H3392     1.0  0.73220  0.89945  0.49410  1.0000
  C   C2812     1.0  0.89008  0.73874  0.62314  1.0000
  H   H3393     1.0  0.85175  0.90566  0.52368  1.0000
  H   H3394     1.0  0.71947  0.87865  0.52159  1.0000
  C   C2813     1.0  0.85271  0.75554  0.96613  1.0000
  C   C2814     1.0  0.65858  0.90942  0.60071  1.0000
  H   H3395     1.0  0.66958  0.96751  0.62389  1.0000
  H   H3396     1.0  0.91338  0.88643  0.54881  1.0000
  H   H3397     1.0  0.82572  0.86321  0.57442  1.0000
  C   C2815     1.0  0.80368  0.86444  0.51491  1.0000
  H   H3398     1.0  0.76961  0.80783  0.61924  1.0000
  C   C2816     1.0  0.80554  0.74504  0.53040  1.0000
  C   C2817     1.0  0.80299  0.76915  0.49829  1.0000
  C   C2818     1.0  0.69397  0.88853  0.85968  1.0000
  H   H3399     1.0  0.77753  0.88835  0.47588  1.0000
  C   C2819     1.0  0.66557  0.89258  0.65349  1.0000
  C   C2820     1.0  0.88586  0.87798  0.59713  1.0000
  H   H3400     1.0  0.89940  0.90554  0.56455  1.0000
  H   H3401     1.0  0.69619  0.94406  0.89479  1.0000
  H   H3402     1.0  0.89970  0.87663  0.60432  1.0000
  C   C2821     1.0  0.87296  0.87876  0.56586  1.0000
  S   S767      1.0  0.68891  0.79765  0.50861  1.0000
  C   C2822     1.0  0.88217  0.79731  0.48071  1.0000
  H   H3403     1.0  0.68124  0.97642  0.84335  1.0000
  H   H3404     1.0  0.76266  0.77192  0.55997  1.0000
  N   N188      1.0  0.83719  0.79597  0.55590  1.0000
  C   C2823     1.0  0.82246  0.78734  0.57379  1.0000
  C   C2824     1.0  0.83600  0.81823  0.55602  1.0000
  C   C2825     1.0  0.83008  0.79446  0.53700  1.0000
  C   C2826     1.0  0.85860  0.78492  0.55733  1.0000
  C   C2827     1.0  0.86730  0.78445  0.57486  1.0000
  C   C2828     1.0  0.87145  0.77459  0.54159  1.0000
  C   C2829     1.0  0.88743  0.77415  0.57664  1.0000
  C   C2830     1.0  0.89151  0.76407  0.54367  1.0000
  C   C2831     1.0  0.89944  0.76380  0.56119  1.0000
  H   H3405     1.0  0.82555  0.78926  0.58873  1.0000
  H   H3406     1.0  0.80614  0.79519  0.57319  1.0000
  H   H3407     1.0  0.82316  0.77051  0.57448  1.0000
  H   H3408     1.0  0.83984  0.82081  0.57036  1.0000
  H   H3409     1.0  0.82008  0.82715  0.55505  1.0000
  H   H3410     1.0  0.84695  0.82524  0.54290  1.0000
  H   H3411     1.0  0.83025  0.77806  0.53615  1.0000
  H   H3412     1.0  0.81384  0.80273  0.53664  1.0000
  H   H3413     1.0  0.83972  0.80167  0.52283  1.0000
  H   H3414     1.0  0.85851  0.79190  0.58748  1.0000
  H   H3415     1.0  0.86625  0.77412  0.52770  1.0000
  H   H3416     1.0  0.89362  0.77400  0.59027  1.0000
  H   H3417     1.0  0.66722  0.84778  0.68803  1.0000
  H   H3418     1.0  0.98370  0.74502  0.57417  1.0000
  H   H3419     1.0  0.97190  0.79658  0.56877  1.0000
  C   C2832     1.0  0.86408  0.76863  0.48588  1.0000
  C   C2833     1.0  0.69360  0.86331  0.65560  1.0000
  H   H3420     1.0  0.66622  0.92246  0.59887  1.0000
  C   C2834     1.0  0.68316  0.88383  0.68277  1.0000
  C   C2835     1.0  0.69739  0.89781  0.67588  1.0000
  C   C2836     1.0  0.90262  0.85349  0.57467  1.0000
  C   C2837     1.0  0.70400  0.90672  0.68966  1.0000
  H   H3421     1.0  0.90690  0.85049  0.55861  1.0000
  N   N189      1.0  0.74488  0.76303  0.58988  1.0000
  C   C2838     1.0  0.79962  0.76506  0.51984  1.0000
  C   C2839     1.0  0.77158  0.79245  0.61577  1.0000
  H   H3422     1.0  0.85698  0.73422  0.47498  1.0000
  C   C2840     1.0  0.72335  0.76823  0.60103  1.0000
  C   C2841     1.0  0.97555  0.81159  0.56832  1.0000
  C   C2842     1.0  0.79120  0.75795  0.61654  1.0000
  C   C2843     1.0  0.81166  0.75313  0.48721  1.0000
  H   H3423     1.0  0.71489  0.91735  0.68394  1.0000
  C   C2844     1.0  0.67977  0.95855  0.61316  1.0000
  C   C2845     1.0  0.70685  0.93820  0.88201  1.0000
  N   N190      1.0  0.71277  0.89719  0.84861  1.0000
  H   H3424     1.0  0.92027  0.88625  0.57278  1.0000
  C   C2846     1.0  0.71026  0.90473  0.82686  1.0000
  C   C2847     1.0  0.73079  0.88002  0.84943  1.0000
  C   C2848     1.0  0.71639  0.91433  0.85725  1.0000
  C   C2849     1.0  0.70286  0.92198  0.87431  1.0000
  C   C2850     1.0  0.73381  0.92412  0.84833  1.0000
  H   H3425     1.0  0.84949  0.80060  0.48115  1.0000
  H   H3426     1.0  0.91489  0.75548  0.56289  1.0000
  H   H3427     1.0  0.69798  0.91871  0.82558  1.0000
  H   H3428     1.0  0.70582  0.89286  0.82018  1.0000
  H   H3429     1.0  0.72459  0.90923  0.81677  1.0000
  H   H3430     1.0  0.73365  0.87444  0.86549  1.0000
  H   H3431     1.0  0.72829  0.86661  0.84359  1.0000
  H   H3432     1.0  0.74530  0.88467  0.83986  1.0000
  H   H3433     1.0  0.74440  0.91965  0.83491  1.0000
  C   C2851     1.0  0.88267  0.75407  0.48742  1.0000
  C   C2852     1.0  0.95406  0.88459  0.71478  1.0000
  H   H3434     1.0  0.68753  0.86016  0.48062  1.0000
  H   H3435     1.0  0.79939  0.78156  0.62875  1.0000
  C   C2853     1.0  0.96977  0.84358  0.94281  1.0000
  C   C2854     1.0  0.70584  0.87152  0.49785  1.0000
  H   H3436     1.0  0.66553  0.86853  0.71119  1.0000
  C   C2855     1.0  0.95415  0.83736  0.95896  1.0000
  C   C2856     1.0  0.90672  0.88901  0.56480  1.0000
  C   C2857     1.0  0.82182  0.85491  0.50334  1.0000
  C   C2858     1.0  0.83846  0.87118  0.56664  1.0000
  C   C2859     1.0  0.73763  0.94029  0.85617  1.0000
  C   C2860     1.0  0.77724  0.75290  0.60647  1.0000
  N   N191      1.0  0.67578  0.87531  0.66771  1.0000
  H   H3437     1.0  0.98746  0.82039  0.61238  1.0000
  C   C2861     1.0  0.81652  0.73288  0.49784  1.0000
  C   C2862     1.0  0.69596  0.98173  0.83926  1.0000
  H   H3438     1.0  0.67725  0.88444  0.73444  1.0000
  C   C2863     1.0  0.68912  0.97271  0.74623  1.0000
  C   C2864     1.0  0.68004  0.96499  0.59204  1.0000
  H   H3439     1.0  0.85681  0.85726  0.58966  1.0000
  C   C2865     1.0  0.81786  0.74740  0.97265  1.0000
  C   C2866     1.0  0.83685  0.88473  0.54810  1.0000
  S   S768      1.0  0.97506  0.89683  0.73983  1.0000
  C   C2867     1.0  0.96739  0.84430  0.58051  1.0000
  H   H3440     1.0  0.69183  0.87554  0.85293  1.0000
  H   H3441     1.0  0.89293  0.84198  0.58378  1.0000
  C   C2868     1.0  0.70985  0.97660  0.82169  1.0000
  C   C2869     1.0  0.75759  0.78767  0.60560  1.0000
  H   H3442     1.0  0.70350  0.90200  0.65971  1.0000
  C   C2870     1.0  0.74676  0.77567  0.56892  1.0000
  C   C2871     1.0  0.74192  0.86250  0.48312  1.0000
  C   C2872     1.0  0.67365  0.85761  0.51194  1.0000
  C   C2873     1.0  0.69106  0.86796  0.53474  1.0000
  H   H3443     1.0  0.73976  0.84636  0.48414  1.0000
  H   H3444     1.0  0.72704  0.96014  0.87871  1.0000
  C   C2874     1.0  0.94618  0.73862  0.68425  1.0000
  H   H3445     1.0  0.67196  0.85739  0.60222  1.0000
  N   N192      1.0  0.72246  0.87736  0.48056  1.0000
  H   H3446     1.0  0.83582  0.96954  0.95261  1.0000
  H   H3447     1.0  0.91599  0.75232  0.48645  1.0000
  H   H3448     1.0  0.71124  0.90991  0.48006  1.0000
  C   C2875     1.0  0.66055  0.86137  0.67733  1.0000
  H   H3449     1.0  0.93828  0.83974  0.95648  1.0000
  H   H3450     1.0  0.65789  0.88687  0.64330  1.0000
  H   H3451     1.0  0.69208  0.86923  0.55020  1.0000
  C   C2876     1.0  0.85794  0.74410  0.94998  1.0000
  H   H3452     1.0  0.96502  0.85068  0.92825  1.0000
  H   H3453     1.0  0.71919  0.81279  0.47605  1.0000
  C   C2877     1.0  0.90109  0.76214  0.48554  1.0000
  H   H3454     1.0  0.69503  0.95771  0.75465  1.0000
  C   C2878     1.0  0.86390  0.78986  0.48258  1.0000
  C   C2879     1.0  0.84339  0.73407  0.94543  1.0000
  H   H3455     1.0  0.69082  0.97035  0.68706  1.0000
  H   H3456     1.0  0.66282  0.85551  0.54451  1.0000
  C   C2880     1.0  0.68170  0.97413  0.72806  1.0000
