data_image0
_chemical_formula_structural       Fe2H3CS2FeSFeSHCHS2H2SH3SCHCSHC2HFeS2FeS3HCHC3HFeHC6HCH2CHCHC2H3CHC2SHC6HCH3CH2C2H2SHSCNS2H2NC9H11NHSC2HC3H5FeH6CSHCH2CHCHFeHCHFeH2SHFeSH2FeS2H2CHCHS2CH2SHCSHC2HSNH2SH2CHC6HSH2C6HFeH7C7H4CH2C2NHFeHC3SCHSC2SHCHNHC2HCHFeHCH3CH3CSHCH2C2SHCH4C2H4CHC3H2S2H2CHFeSCSHC2S2CH2FeS2FeS2FeSFeS3CSHCH2SH3S2C2H5CSHC3H3C6H4C6H4C10H2CHFeCSC7H3FeC2H2FeC2HS2CH4C3HNCH2C6H5CHCH9CH2CH2NCH2C2HNCH4CH2FeHCHSC2H2C2HSHCHC2HFeCHC2SHNH4CHCH3C2NC2H4CHFeH2C3HCHFeNHCHCH3C2H7NSHSH2CFeCH2FeS4H3SFeS2FeS2FeSFeS3HSHSHCSHNCFeS2H2C6H4C6H4C6HCH3NCH2CH4FeC6H4C4H2C6HC4H5NC3H7NC9H5CH8S2HNHCH2CH2CFeCH2CH4CNC9H14CHCSCHFeHCHCH2CHSH10CFeSHCH3CHS2FeNFeCH2SC2FeC3FeH3C2H3CFeSHS2CHCH2CH2CFeHC2H2FeCSCHC2FeHCH3CHCH2CH4CFeC2HC2FeNH4CHNHCH4CFeHC2H2C2HC3HC2HCHC3SC2HC2NHCH2SNCHSH3SFeS2FeS2FeSFeS3HCSHCFeC2SCHCHC8H4C3HC2H2SC6H4C6H4C2FeCH5SC7H2CHCHCH2CH2C2HCHSH5C2H2NHCNCH2C2HCH2CHC3H2SCHC2HCSH4C3H5CHCH3CH2NHCHCH2NHCSH2CH5CHC5HFeC3HCHSHNHCFeHCHCHC2HC4H6CH2CNC2H2CH2SH2CHCH2C2HCH3CHSH3CH2CSHCH2CH5CH3FeSHSHFe2S2FeS2FeSFeS3FeHSC3SHS4C4HC2H3C6H4C3H2C6H4FeH3CHC6H3NFeCH3C2SC6H2SCH4CH2NH6CHCHC4SC3H3NHCH3C2H2C2HCFeNH3C2HCH3C2H3CNHFeCHC2SCH3SH2SC2HCH5NC9H16CH2CSH3C4H2C2H2CH3FeCH2C2HFeHCHCH3SHC2H4SC2H2CHCN2HC3H2CSCSHC2HC2HC2HC2H2C2H5C3H3NCSHC2HSCH2CFeCH3SFeSFeS2FeSFeHS2H3CH2CS2FeS2FeSFeSCHCSCH2CSCH2CS2CHC6H5CFeH2NC6H4C4HCHCH3C2HCH2CH3NC9H17SC2H2CFeCHC2NSH3CNHCH2C2HCFeHCHSH4NH4C4H3CHC2SCSC2FeHCH2CHSCH2FeSHFeS2FeSFeSCFeSC2SHFeSCFeHSHSFeCSFeHSH3S3HSH2C6H4CHC6H4C6H5C2HC6H5SC2HNC8H5FeH8CNCHC7HCH2CH2C2H6C2HCH2CH2SCH3C2H2FeHCHSCNC2H7FeH2CHC2HCH5C2H5CH3CH3C3H3C2HNHNC2SFeS2FeS2FeSFeS3HFeHSCH2S3HFeSNCSHC2HC7H4C6H4C6H4SC2HCH2C7H2C5HCH2CH4C2HSH2CH6CNCHNH3C2H2CH3NC9H6CH4CHCHCHC3H4C3HC2FeCH2NH5NH2SH6FeC2H3C3HSH5CS2C3HC3H2SHN2CH4C2H4CFeC3FeH3CHC2HFeCHCHCHCH4CHCHCH2CSC2H4C3H2CHCSFeHC3HC2H2FeCFeNH5CH2C3HCH3C2H3CHSC2H4CHSCH6CHCHCH2SC3FeCHCFeS2FeS2FeSFeS3FeC3SCH3SCHCSHC2SNCSHCHCHCHC6H4C6HCH3C3H3CHC3H4C6H3C7H3C2H2CNC4NC2HSHCH4CHC2HNC8H15CH4C4H4SH3CH2C2H2CSH3C3H2CH2C2HCH3C3H2CH3C2SH2CHSHFeHCH4C2H2CHFeCNC2HCNCH2FeH2CH4NHC4HCHCH8SHC2HCSH2CS2HCSFeSCHS2FeSFeSH3SFeSC2SCSFeSHFeS2FeHFeNFeS3C2HC2H2C2H2C6H4C6H4C6H4C6HCH2CHSH3C2H3CH2C4SH2CH2SCH3C2HC3HSH2CH3FeC4H4NH3C4HCHC2H5C2H5C3H3SCNCHFeHCHC2HC2HCFeH3CNH10SH3SCHC2HNCH3CH2C2SH3FeS2FeSFeHFeS3FeCSFeHSHFeS3C3SHFeHFeSHSHCH2SHC6H5CHS2C6H5C4NH7C2HCHCHC4NC3HCSCFeH5C2FeHC2HNSH2CHC2H2C2H2CHCNH2CSCH2C3HSH2FeC2HCHCH5CSH4C2H7CH3SHCHCH3C2H2C2HFeCSC2SHFeSH2SHFeSFeSHSH3SCHSH2CSC8H5NHC8H4FeH2SC2H4FeH2C7H2CHSC3SCHNH2CH2CHC3H3S2H2CH3C3H3CS2CHCH6CNHCFeC3H3SC2HS2FeHCSFeS2CFeCS2HSCFeHSFeS3FeSHSNHSHCH4CSFeCH3C6H4NFe3HSH3CHCSHC5H3C2HC6HC2HC2HCH5FeH2CH3NC9H6C2HSNCHSH2C3HC2HCH3CHSHFeHCH2SC3HSC2FeH2NCH3CHCH2S2CHSFeC2HCHFeCFeS2FeS2FeSFeS4HS2HSFeS2HFeSCS3HNC3HSH2CH3C3HC3FeCHCHC6H4C6H6C6H6CHSHC4H4C2HC2HC2HCH2CNC4H3CFeHC3H2CH5CHSCHNCHCH2C4H6FeC2S2HSHCHCH3CN2C2H2FeHNC9HCH2SH9C3H4FeC3H9C3FeH2C6H2CSC2H2C6H5C3H3CHC2HCH2CHNH6C2H7FeHC3FeH4SH2NFeH3FeHCFeH2C2H3CSCHNC3H2CHC2HCH4C2SHFe2HSH2CHFeS2FeS2FeSFeS4HSFeHSFeHC2H2CHC8H3SCHSC7H4C3SC6H4CSHC2H4SC6H4CHNCH2CSCHSH4C2SHCSCSHNC3H8CH2SC4H2CH2C4H2CH5CFeCH3C2HCH2SCH3NC8FeH12SHNHC6HCHSHC2HC3FeH3CH3NCHFeH6CH
_chemical_formula_sum              "Fe192 H1728 C1440 S384 N96"
_cell_length_a       56.8015
_cell_length_b       56.7235
_cell_length_c       56.4994
_cell_angle_alpha    84.3671
_cell_angle_beta     84.3937
_cell_angle_gamma    84.3835

_space_group_name_H-M_alt    "P 1"
_space_group_IT_number       1

loop_
  _space_group_symop_operation_xyz
  'x, y, z'

loop_
  _atom_site_type_symbol
  _atom_site_label
  _atom_site_symmetry_multiplicity
  _atom_site_fract_x
  _atom_site_fract_y
  _atom_site_fract_z
  _atom_site_occupancy
  Fe  Fe1       1.0  0.19548  0.21378  0.36965  1.0000
  Fe  Fe2       1.0  0.00535  0.14819  0.45649  1.0000
  H   H1        1.0  0.29431  0.20071  0.39507  1.0000
  H   H2        1.0  0.39487  0.09426  0.12832  1.0000
  H   H3        1.0  0.01807  0.19268  0.39503  1.0000
  C   C1        1.0  0.34777  0.20557  0.29176  1.0000
  S   S1        1.0  0.02659  0.13626  0.42343  1.0000
  S   S2        1.0  0.45706  0.09679  0.46579  1.0000
  Fe  Fe3       1.0  0.01269  0.10065  0.43575  1.0000
  S   S3        1.0  0.99777  0.07702  0.41164  1.0000
  Fe  Fe4       1.0  0.05595  0.12539  0.44751  1.0000
  S   S4        1.0  0.09528  0.13297  0.44428  1.0000
  H   H4        1.0  0.35096  0.10991  0.07024  1.0000
  C   C2        1.0  0.28576  0.15499  0.39296  1.0000
  H   H5        1.0  0.47369  0.20291  0.15343  1.0000
  S   S5        1.0  0.15760  0.20165  0.37158  1.0000
  S   S6        1.0  0.45894  0.14899  0.43599  1.0000
  H   H6        1.0  0.09266  0.21419  0.39580  1.0000
  H   H7        1.0  0.43214  0.02172  0.27387  1.0000
  S   S7        1.0  0.27255  0.18639  0.31978  1.0000
  H   H8        1.0  0.43619  0.05701  0.24848  1.0000
  H   H9        1.0  0.27457  0.15584  0.37767  1.0000
  H   H10       1.0  0.44442  0.03331  0.05350  1.0000
  S   S8        1.0  0.22857  0.19095  0.37880  1.0000
  C   C3        1.0  0.35280  0.15547  0.44472  1.0000
  H   H11       1.0  0.44647  0.06195  0.41798  1.0000
  C   C4        1.0  0.31529  0.16893  0.42874  1.0000
  S   S9        1.0  0.45786  0.00606  0.11517  1.0000
  H   H12       1.0  0.34549  0.22007  0.45059  1.0000
  C   C5        1.0  0.45230  0.03141  0.39722  1.0000
  C   C6        1.0  0.45100  0.02273  0.27715  1.0000
  H   H13       1.0  0.32221  0.17041  0.46541  1.0000
  Fe  Fe5       1.0  0.41418  0.17789  0.20385  1.0000
  S   S10       1.0  0.43059  0.19284  0.23346  1.0000
  S   S11       1.0  0.42898  0.13913  0.19915  1.0000
  Fe  Fe6       1.0  0.39354  0.20829  0.24475  1.0000
  S   S12       1.0  0.98974  0.11344  0.46711  1.0000
  S   S13       1.0  0.04420  0.08823  0.45667  1.0000
  S   S14       1.0  0.37680  0.19106  0.21740  1.0000
  H   H14       1.0  0.38035  0.14124  0.42002  1.0000
  C   C7        1.0  0.45649  0.05424  0.40289  1.0000
  H   H15       1.0  0.29106  0.19483  0.36522  1.0000
  C   C8        1.0  0.34804  0.15219  0.40303  1.0000
  C   C9        1.0  0.43586  0.10818  0.28912  1.0000
  C   C10       1.0  0.02281  0.20866  0.40175  1.0000
  H   H16       1.0  0.98905  0.01996  0.46178  1.0000
  Fe  Fe7       1.0  0.47366  0.11135  0.43036  1.0000
  H   H17       1.0  0.11377  0.18154  0.36797  1.0000
  C   C11       1.0  0.45256  0.09331  0.13597  1.0000
  C   C12       1.0  0.45634  0.08465  0.15947  1.0000
  C   C13       1.0  0.44890  0.09889  0.17848  1.0000
  C   C14       1.0  0.43749  0.12193  0.17435  1.0000
  C   C15       1.0  0.43357  0.13054  0.15085  1.0000
  C   C16       1.0  0.44115  0.11636  0.13183  1.0000
  H   H18       1.0  0.46788  0.16238  0.15274  1.0000
  C   C17       1.0  0.30324  0.19152  0.37969  1.0000
  H   H19       1.0  0.42471  0.14813  0.14732  1.0000
  H   H20       1.0  0.46180  0.02569  0.25975  1.0000
  C   C18       1.0  0.30098  0.19505  0.30850  1.0000
  H   H21       1.0  0.36377  0.15267  0.45961  1.0000
  C   C19       1.0  0.42807  0.11243  0.26633  1.0000
  H   H22       1.0  0.42088  0.03570  0.31517  1.0000
  C   C20       1.0  0.33687  0.18856  0.28139  1.0000
  C   C21       1.0  0.31371  0.18313  0.28994  1.0000
  H   H23       1.0  0.09786  0.08399  0.46783  1.0000
  H   H24       1.0  0.42189  0.13031  0.25952  1.0000
  H   H25       1.0  0.34653  0.17909  0.26723  1.0000
  C   C22       1.0  0.44037  0.03453  0.31662  1.0000
  H   H26       1.0  0.30566  0.16950  0.28223  1.0000
  C   C23       1.0  0.46514  0.02104  0.37771  1.0000
  C   C24       1.0  0.44433  0.06555  0.28383  1.0000
  S   S15       1.0  0.41858  0.21037  0.17801  1.0000
  H   H27       1.0  0.43806  0.12327  0.11375  1.0000
  C   C25       1.0  0.11268  0.15145  0.42340  1.0000
  C   C26       1.0  0.10527  0.16029  0.40107  1.0000
  C   C27       1.0  0.11963  0.17494  0.38525  1.0000
  C   C28       1.0  0.14140  0.18135  0.39158  1.0000
  C   C29       1.0  0.14884  0.17241  0.41388  1.0000
  C   C30       1.0  0.13463  0.15749  0.42958  1.0000
  H   H28       1.0  0.08864  0.15560  0.39583  1.0000
  C   C31       1.0  0.31931  0.15519  0.36374  1.0000
  H   H29       1.0  0.16550  0.17709  0.41906  1.0000
  H   H30       1.0  0.14067  0.15073  0.44673  1.0000
  H   H31       1.0  0.30684  0.15757  0.34942  1.0000
  C   C32       1.0  0.31160  0.21267  0.31827  1.0000
  H   H32       1.0  0.42230  0.09720  0.23436  1.0000
  H   H33       1.0  0.27452  0.16449  0.40693  1.0000
  C   C33       1.0  0.44397  0.08514  0.29778  1.0000
  C   C34       1.0  0.42832  0.09368  0.25214  1.0000
  H   H34       1.0  0.43916  0.02163  0.40820  1.0000
  H   H35       1.0  0.31968  0.20033  0.37348  1.0000
  S   S16       1.0  0.45805  0.98249  0.04932  1.0000
  H   H36       1.0  0.36270  0.11931  0.10904  1.0000
  S   S17       1.0  0.37749  0.21164  0.28285  1.0000
  C   C35       1.0  0.32945  0.16547  0.44792  1.0000
  N   N1        1.0  0.30853  0.16571  0.38582  1.0000
  S   S18       1.0  0.25624  0.21135  0.42998  1.0000
  S   S19       1.0  0.46176  0.07635  0.11113  1.0000
  H   H37       1.0  0.43564  0.12286  0.30010  1.0000
  H   H38       1.0  0.28892  0.13599  0.39982  1.0000
  N   N2        1.0  0.40832  0.04424  0.06656  1.0000
  C   C36       1.0  0.40484  0.02198  0.08210  1.0000
  C   C37       1.0  0.40073  0.04092  0.04277  1.0000
  C   C38       1.0  0.43403  0.04766  0.06322  1.0000
  C   C39       1.0  0.39524  0.06467  0.07798  1.0000
  C   C40       1.0  0.40117  0.07048  0.10043  1.0000
  C   C41       1.0  0.37663  0.07939  0.06740  1.0000
  C   C42       1.0  0.38960  0.08999  0.11138  1.0000
  C   C43       1.0  0.36503  0.09880  0.07861  1.0000
  C   C44       1.0  0.37156  0.10414  0.10050  1.0000
  H   H39       1.0  0.38573  0.01868  0.08490  1.0000
  H   H40       1.0  0.09874  0.20844  0.45130  1.0000
  H   H41       1.0  0.41114  0.02248  0.10001  1.0000
  H   H42       1.0  0.40358  0.05675  0.02989  1.0000
  H   H43       1.0  0.38174  0.03724  0.04395  1.0000
  H   H44       1.0  0.41114  0.02541  0.03483  1.0000
  H   H45       1.0  0.44192  0.04748  0.08044  1.0000
  H   H46       1.0  0.31932  0.21953  0.47129  1.0000
  H   H47       1.0  0.43733  0.06500  0.05301  1.0000
  H   H48       1.0  0.41511  0.06016  0.10963  1.0000
  H   H49       1.0  0.37078  0.07639  0.05043  1.0000
  N   N3        1.0  0.45340  0.04141  0.29325  1.0000
  H   H50       1.0  0.05776  0.19369  0.40744  1.0000
  S   S20       1.0  0.98016  0.18147  0.45310  1.0000
  C   C45       1.0  0.32401  0.16205  0.40576  1.0000
  C   C46       1.0  0.36210  0.14896  0.42232  1.0000
  H   H51       1.0  0.41482  0.00621  0.07427  1.0000
  C   C47       1.0  0.43634  0.07056  0.26059  1.0000
  C   C48       1.0  0.33502  0.21757  0.31025  1.0000
  C   C49       1.0  0.47303  0.06734  0.38858  1.0000
  H   H52       1.0  0.29739  0.17706  0.43207  1.0000
  H   H53       1.0  0.35641  0.14678  0.38619  1.0000
  H   H54       1.0  0.45210  0.09198  0.19652  1.0000
  H   H55       1.0  0.08256  0.19154  0.43510  1.0000
  H   H56       1.0  0.44352  0.04580  0.33082  1.0000
  Fe  Fe8       1.0  0.24687  0.20757  0.34498  1.0000
  H   H57       1.0  0.45769  0.00478  0.28483  1.0000
  H   H58       1.0  0.32403  0.13573  0.36712  1.0000
  H   H59       1.0  0.45012  0.08278  0.31546  1.0000
  H   H60       1.0  0.33533  0.16399  0.35587  1.0000
  H   H61       1.0  0.44602  0.01595  0.32357  1.0000
  H   H62       1.0  0.06731  0.20693  0.45909  1.0000
  C   C50       1.0  0.04544  0.20931  0.40929  1.0000
  S   S21       1.0  0.45960  0.99198  0.37162  1.0000
  H   H63       1.0  0.46087  0.17779  0.19076  1.0000
  C   C51       1.0  0.98897  0.20795  0.46196  1.0000
  H   H64       1.0  0.46508  0.06701  0.16303  1.0000
  H   H65       1.0  0.97931  0.15689  0.40413  1.0000
  C   C52       1.0  0.08128  0.20831  0.44390  1.0000
  H   H66       1.0  0.97585  0.04048  0.39233  1.0000
  C   C53       1.0  0.01081  0.20847  0.47128  1.0000
  H   H67       1.0  0.46905  0.16763  0.35421  1.0000
  Fe  Fe9       1.0  0.23823  0.22261  0.39580  1.0000
  H   H68       1.0  0.47087  0.15131  0.38278  1.0000
  C   C54       1.0  0.33854  0.22251  0.46939  1.0000
  H   H69       1.0  0.30193  0.22240  0.33217  1.0000
  Fe  Fe10      1.0  0.98828  0.01926  0.84144  1.0000
  H   H70       1.0  0.08468  0.11460  0.49239  1.0000
  H   H71       1.0  0.27527  0.20558  0.67254  1.0000
  S   S22       1.0  0.15296  0.20467  0.73545  1.0000
  H   H72       1.0  0.12575  0.09596  0.52275  1.0000
  Fe  Fe11      1.0  0.11695  0.19186  0.74838  1.0000
  S   S23       1.0  0.11191  0.15175  0.75260  1.0000
  H   H73       1.0  0.12746  0.16472  0.70399  1.0000
  H   H74       1.0  0.98485  0.01011  0.75284  1.0000
  Fe  Fe12      1.0  0.02979  0.04912  0.82223  1.0000
  S   S24       1.0  0.99823  0.03857  0.80534  1.0000
  S   S25       1.0  0.03904  0.08823  0.81904  1.0000
  H   H75       1.0  0.13038  0.16570  0.67228  1.0000
  H   H76       1.0  0.20350  0.12150  0.68147  1.0000
  C   C55       1.0  0.97873  0.99898  0.71851  1.0000
  H   H77       1.0  0.16039  0.18070  0.64761  1.0000
  C   C56       1.0  0.07497  0.04543  0.56341  1.0000
  H   H78       1.0  0.18133  0.16684  0.71009  1.0000
  S   S26       1.0  0.05349  0.01655  0.81266  1.0000
  S   S27       1.0  0.01803  0.03173  0.85893  1.0000
  C   C57       1.0  0.21486  0.15589  0.63005  1.0000
  H   H79       1.0  0.06602  0.07959  0.54670  1.0000
  H   H80       1.0  0.18538  0.13507  0.71551  1.0000
  S   S28       1.0  0.00869  0.98500  0.83205  1.0000
  H   H81       1.0  0.08074  0.06136  0.48369  1.0000
  C   C58       1.0  0.99156  0.99910  0.73865  1.0000
  S   S29       1.0  0.03863  0.97796  0.56640  1.0000
  H   H82       1.0  0.15881  0.15055  0.72722  1.0000
  C   C59       1.0  0.24365  0.21011  0.74344  1.0000
  C   C60       1.0  0.01531  0.17146  0.79418  1.0000
  H   H83       1.0  0.19058  0.20830  0.69084  1.0000
  S   S30       1.0  0.25715  0.20780  0.62835  1.0000
  N   N4        1.0  0.16089  0.14828  0.68906  1.0000
  H   H84       1.0  0.11796  0.00431  0.54391  1.0000
  H   H85       1.0  0.22894  0.15852  0.61588  1.0000
  S   S31       1.0  0.01679  0.08597  0.52562  1.0000
  H   H86       1.0  0.16527  0.10982  0.69312  1.0000
  H   H87       1.0  0.08562  0.00944  0.57620  1.0000
  C   C61       1.0  0.08906  0.02397  0.56272  1.0000
  H   H88       1.0  0.38088  0.21831  0.49191  1.0000
  C   C62       1.0  0.39494  0.16629  0.50722  1.0000
  C   C63       1.0  0.40973  0.17910  0.51854  1.0000
  C   C64       1.0  0.39986  0.19531  0.53507  1.0000
  C   C65       1.0  0.37511  0.19904  0.54046  1.0000
  C   C66       1.0  0.36030  0.18611  0.52925  1.0000
  C   C67       1.0  0.37018  0.16987  0.51276  1.0000
  H   H89       1.0  0.42877  0.17657  0.51453  1.0000
  S   S32       1.0  0.03006  0.98437  0.76502  1.0000
  H   H90       1.0  0.34127  0.18858  0.53334  1.0000
  H   H91       1.0  0.01447  0.00560  0.92355  1.0000
  C   C68       1.0  0.03081  0.00744  0.55424  1.0000
  C   C69       1.0  0.03940  0.01504  0.53079  1.0000
  C   C70       1.0  0.03456  0.03882  0.52134  1.0000
  C   C71       1.0  0.02169  0.05536  0.53558  1.0000
  C   C72       1.0  0.01314  0.04772  0.55898  1.0000
  C   C73       1.0  0.01734  0.02385  0.56814  1.0000
  H   H92       1.0  0.04993  0.00250  0.51995  1.0000
  Fe  Fe13      1.0  0.02170  0.10311  0.48750  1.0000
  H   H93       1.0  0.00322  0.06038  0.57015  1.0000
  H   H94       1.0  0.01079  0.01834  0.58627  1.0000
  H   H95       1.0  0.13752  0.12262  0.70596  1.0000
  H   H96       1.0  0.14294  0.12243  0.67401  1.0000
  H   H97       1.0  0.04127  0.04445  0.50332  1.0000
  H   H98       1.0  0.30194  0.21943  0.66278  1.0000
  H   H99       1.0  0.04208  0.18372  0.75420  1.0000
  C   C74       1.0  0.11078  0.03951  0.52646  1.0000
  C   C75       1.0  0.09177  0.13430  0.77155  1.0000
  C   C76       1.0  0.07860  0.14285  0.79168  1.0000
  C   C77       1.0  0.06302  0.12830  0.80617  1.0000
  C   C78       1.0  0.06017  0.10505  0.80076  1.0000
  C   C79       1.0  0.07342  0.09647  0.78067  1.0000
  C   C80       1.0  0.08915  0.11096  0.76628  1.0000
  H   H100      1.0  0.08068  0.16055  0.79629  1.0000
  H   H101      1.0  0.05314  0.13505  0.82181  1.0000
  H   H102      1.0  0.07151  0.07869  0.77619  1.0000
  H   H103      1.0  0.09928  0.10400  0.75088  1.0000
  C   C81       1.0  0.19624  0.21402  0.67255  1.0000
  H   H104      1.0  0.00636  0.18847  0.80022  1.0000
  H   H105      1.0  0.29875  0.20399  0.69175  1.0000
  C   C82       1.0  0.28894  0.21587  0.67852  1.0000
  C   C83       1.0  0.21987  0.20844  0.66332  1.0000
  N   N5        1.0  0.00999  0.16830  0.76956  1.0000
  H   H106      1.0  0.98070  0.98312  0.89467  1.0000
  Fe  Fe14      1.0  0.02141  0.00512  0.79773  1.0000
  H   H107      1.0  0.23218  0.19819  0.67463  1.0000
  C   C84       1.0  0.07831  0.06388  0.54544  1.0000
  C   C85       1.0  0.17213  0.15026  0.71135  1.0000
  C   C86       1.0  0.21801  0.13820  0.64867  1.0000
  S   S33       1.0  0.29191  0.22090  0.56238  1.0000
  C   C87       1.0  0.12344  0.08858  0.50566  1.0000
  H   H108      1.0  0.23450  0.12683  0.64869  1.0000
  S   S34       1.0  0.03511  0.13947  0.48001  1.0000
  C   C88       1.0  0.02003  0.14429  0.76332  1.0000
  C   C89       1.0  0.19372  0.17053  0.62986  1.0000
  S   S35       1.0  0.40627  0.14623  0.48558  1.0000
  H   H109      1.0  0.02248  0.19233  0.47347  1.0000
  C   C90       1.0  0.15129  0.12475  0.69056  1.0000
  H   H110      1.0  0.35856  0.15989  0.50436  1.0000
  N   N6        1.0  0.09956  0.07998  0.50614  1.0000
  H   H111      1.0  0.12632  0.10288  0.49089  1.0000
  C   C91       1.0  0.20020  0.13542  0.66741  1.0000
  C   C92       1.0  0.14046  0.16672  0.68800  1.0000
  H   H112      1.0  0.19147  0.18444  0.61544  1.0000
  C   C93       1.0  0.09619  0.06133  0.52615  1.0000
  H   H113      1.0  0.14640  0.18490  0.68737  1.0000
  Fe  Fe15      1.0  0.03898  0.99829  0.84748  1.0000
  H   H114      1.0  0.06068  0.04746  0.57748  1.0000
  C   C94       1.0  0.17590  0.16812  0.64862  1.0000
  H   H115      1.0  0.24710  0.19734  0.75856  1.0000
  H   H116      1.0  0.03980  0.14252  0.76210  1.0000
  H   H117      1.0  0.20650  0.21607  0.75466  1.0000
  C   C95       1.0  0.17880  0.15066  0.66825  1.0000
  H   H118      1.0  0.00051  0.99761  0.95260  1.0000
  H   H119      1.0  0.08278  0.11003  0.52411  1.0000
  H   H120      1.0  0.12486  0.03637  0.51253  1.0000
  C   C96       1.0  0.98729  0.98482  0.69988  1.0000
  S   S36       1.0  0.97682  0.97771  0.60637  1.0000
  H   H121      1.0  0.03469  0.17186  0.79543  1.0000
  C   C97       1.0  0.01305  0.98498  0.74028  1.0000
  H   H122      1.0  0.01239  0.98338  0.89099  1.0000
  H   H123      1.0  0.06347  0.09582  0.50739  1.0000
  C   C98       1.0  0.26207  0.21594  0.72627  1.0000
  C   C99       1.0  0.10709  0.02108  0.54441  1.0000
  S   S37       1.0  0.09941  0.21287  0.71794  1.0000
  H   H124      1.0  0.41150  0.20518  0.54361  1.0000
  C   C100      1.0  0.08183  0.10096  0.50770  1.0000
  H   H125      1.0  0.00950  0.15676  0.80731  1.0000
  H   H126      1.0  0.01440  0.12986  0.77689  1.0000
  H   H127      1.0  0.01950  0.18454  0.73415  1.0000
  H   H128      1.0  0.13792  0.07423  0.50278  1.0000
  C   C101      1.0  0.98390  0.17062  0.76840  1.0000
  C   C102      1.0  0.09759  0.06999  0.48316  1.0000
  H   H129      1.0  0.27956  0.20724  0.72871  1.0000
  H   H130      1.0  0.98284  0.00872  0.92823  1.0000
  H   H131      1.0  0.01664  0.20461  0.75751  1.0000
  H   H132      1.0  0.27300  0.19948  0.47606  1.0000
  C   C103      1.0  0.22074  0.22076  0.74135  1.0000
  H   H133      1.0  0.01461  0.14042  0.74580  1.0000
  C   C104      1.0  0.02248  0.18609  0.75311  1.0000
  C   C105      1.0  0.26742  0.21832  0.47466  1.0000
  C   C106      1.0  0.22758  0.21594  0.63961  1.0000
  H   H134      1.0  0.98814  0.97727  0.48156  1.0000
  H   H135      1.0  0.11242  0.05648  0.47868  1.0000
  S   S38       1.0  0.36368  0.22062  0.56055  1.0000
  S   S39       1.0  0.10869  0.22073  0.77353  1.0000
  H   H136      1.0  0.34724  0.20795  0.48101  1.0000
  H   H137      1.0  0.97738  0.14041  0.79450  1.0000
  C   C107      1.0  0.99890  0.99717  0.93318  1.0000
  H   H138      1.0  0.98125  0.20178  0.74204  1.0000
  Fe  Fe16      1.0  0.44509  0.13497  0.47296  1.0000
  S   S40       1.0  0.06143  0.97351  0.87244  1.0000
  C   C108      1.0  0.99758  0.97372  0.90045  1.0000
  S   S41       1.0  0.11107  0.41409  0.44012  1.0000
  H   H139      1.0  0.24307  0.25648  0.18166  1.0000
  C   C109      1.0  0.25068  0.25337  0.45213  1.0000
  C   C110      1.0  0.44282  0.45927  0.46747  1.0000
  S   S42       1.0  0.15597  0.43492  0.04692  1.0000
  S   S43       1.0  0.15565  0.43619  0.97868  1.0000
  C   C111      1.0  0.21658  0.44662  0.00380  1.0000
  H   H140      1.0  0.09114  0.24582  0.39384  1.0000
  H   H141      1.0  0.36437  0.37813  0.14678  1.0000
  Fe  Fe17      1.0  0.24185  0.39499  0.15945  1.0000
  S   S44       1.0  0.27312  0.40944  0.17333  1.0000
  S   S45       1.0  0.23345  0.41697  0.12415  1.0000
  Fe  Fe18      1.0  0.23588  0.36048  0.20557  1.0000
  S   S46       1.0  0.26588  0.37358  0.22177  1.0000
  S   S47       1.0  0.21495  0.33214  0.22723  1.0000
  Fe  Fe19      1.0  0.25106  0.41003  0.20840  1.0000
  S   S48       1.0  0.24116  0.43986  0.23254  1.0000
  Fe  Fe20      1.0  0.28496  0.37132  0.18523  1.0000
  S   S49       1.0  0.32361  0.35609  0.18330  1.0000
  S   S50       1.0  0.21938  0.39724  0.19443  1.0000
  S   S51       1.0  0.25551  0.35659  0.16908  1.0000
  C   C112      1.0  0.32651  0.26406  0.46235  1.0000
  S   S52       1.0  0.22736  0.29466  0.33569  1.0000
  H   H142      1.0  0.16482  0.47127  0.11577  1.0000
  C   C113      1.0  0.41484  0.47090  0.12971  1.0000
  H   H143      1.0  0.18007  0.37264  0.42821  1.0000
  H   H144      1.0  0.43906  0.44058  0.46618  1.0000
  S   S53       1.0  0.00653  0.38960  0.42358  1.0000
  H   H145      1.0  0.28043  0.41253  0.08210  1.0000
  H   H146      1.0  0.19854  0.40636  0.01996  1.0000
  H   H147      1.0  0.28746  0.23781  0.27335  1.0000
  S   S54       1.0  0.39811  0.24272  0.22228  1.0000
  S   S55       1.0  0.35210  0.24508  0.17579  1.0000
  C   C114      1.0  0.26598  0.27413  0.22973  1.0000
  C   C115      1.0  0.36587  0.40763  0.16753  1.0000
  H   H148      1.0  0.46083  0.42523  0.03484  1.0000
  H   H149      1.0  0.06478  0.45877  0.45521  1.0000
  H   H150      1.0  0.45511  0.31963  0.19142  1.0000
  H   H151      1.0  0.24849  0.38662  0.08009  1.0000
  H   H152      1.0  0.23051  0.40270  0.26907  1.0000
  C   C116      1.0  0.41717  0.44348  0.99737  1.0000
  S   S56       1.0  0.21299  0.22752  0.33372  1.0000
  H   H153      1.0  0.46676  0.42205  0.43768  1.0000
  C   C117      1.0  0.43105  0.45045  0.04308  1.0000
  C   C118      1.0  0.44502  0.43498  0.02844  1.0000
  C   C119      1.0  0.43793  0.43129  0.00587  1.0000
  H   H154      1.0  0.17989  0.33896  0.45404  1.0000
  H   H155      1.0  0.03785  0.26582  0.42711  1.0000
  H   H156      1.0  0.44854  0.41883  0.99501  1.0000
  C   C120      1.0  0.33087  0.32502  0.18210  1.0000
  C   C121      1.0  0.31488  0.31035  0.17507  1.0000
  C   C122      1.0  0.32167  0.28600  0.17305  1.0000
  C   C123      1.0  0.34423  0.27585  0.17872  1.0000
  C   C124      1.0  0.36004  0.29042  0.18627  1.0000
  C   C125      1.0  0.35348  0.31491  0.18769  1.0000
  H   H157      1.0  0.29747  0.31785  0.17057  1.0000
  H   H158      1.0  0.30939  0.27502  0.16695  1.0000
  H   H159      1.0  0.37757  0.28299  0.19038  1.0000
  H   H160      1.0  0.36601  0.32609  0.19306  1.0000
  C   C126      1.0  0.22098  0.31939  0.25632  1.0000
  C   C127      1.0  0.20656  0.30227  0.26803  1.0000
  C   C128      1.0  0.20932  0.29340  0.29191  1.0000
  C   C129      1.0  0.22622  0.30197  0.30452  1.0000
  C   C130      1.0  0.24109  0.31859  0.29261  1.0000
  C   C131      1.0  0.23886  0.32682  0.26851  1.0000
  H   H161      1.0  0.19281  0.29618  0.25877  1.0000
  H   H162      1.0  0.19766  0.28068  0.30088  1.0000
  H   H163      1.0  0.25428  0.32525  0.30216  1.0000
  H   H164      1.0  0.25069  0.33929  0.25962  1.0000
  C   C132      1.0  0.21260  0.40495  0.00477  1.0000
  C   C133      1.0  0.00624  0.22836  0.40315  1.0000
  C   C134      1.0  0.41036  0.46267  0.03451  1.0000
  C   C135      1.0  0.40024  0.27485  0.45420  1.0000
  C   C136      1.0  0.21107  0.42195  0.10353  1.0000
  C   C137      1.0  0.19293  0.40696  0.10352  1.0000
  C   C138      1.0  0.17628  0.41134  0.08617  1.0000
  C   C139      1.0  0.17731  0.43083  0.06869  1.0000
  C   C140      1.0  0.19508  0.44621  0.06917  1.0000
  C   C141      1.0  0.21194  0.44162  0.08624  1.0000
  H   H165      1.0  0.19189  0.39178  0.11664  1.0000
  H   H166      1.0  0.16252  0.39941  0.08625  1.0000
  C   C142      1.0  0.01227  0.24883  0.41196  1.0000
  H   H167      1.0  0.22582  0.45343  0.08600  1.0000
  Fe  Fe21      1.0  0.12739  0.44968  0.43458  1.0000
  C   C143      1.0  0.47050  0.43724  0.42524  1.0000
  S   S57       1.0  0.11248  0.47183  0.00076  1.0000
  C   C144      1.0  0.08139  0.40857  0.43630  1.0000
  C   C145      1.0  0.07245  0.38768  0.44765  1.0000
  C   C146      1.0  0.04941  0.38200  0.44441  1.0000
  C   C147      1.0  0.03512  0.39694  0.42936  1.0000
  C   C148      1.0  0.04398  0.41795  0.41813  1.0000
  C   C149      1.0  0.06690  0.42385  0.42170  1.0000
  C   C150      1.0  0.29333  0.25615  0.27164  1.0000
  H   H168      1.0  0.04300  0.36570  0.45304  1.0000
  H   H169      1.0  0.03315  0.42961  0.40639  1.0000
  H   H170      1.0  0.07358  0.43987  0.41263  1.0000
  Fe  Fe22      1.0  0.98740  0.36082  0.44662  1.0000
  C   C151      1.0  0.05196  0.22963  0.41909  1.0000
  C   C152      1.0  0.27056  0.41434  0.06643  1.0000
  H   H171      1.0  0.46994  0.32336  0.16150  1.0000
  H   H172      1.0  0.40607  0.29074  0.44395  1.0000
  Fe  Fe23      1.0  0.14899  0.45676  0.01120  1.0000
  C   C153      1.0  0.46077  0.39234  0.18093  1.0000
  C   C154      1.0  0.47240  0.31703  0.18046  1.0000
  H   H173      1.0  0.19511  0.41781  0.24801  1.0000
  S   S58       1.0  0.46565  0.24659  0.19735  1.0000
  S   S59       1.0  0.25859  0.23747  0.36251  1.0000
  C   C155      1.0  0.22852  0.47065  0.46774  1.0000
  H   H174      1.0  0.22570  0.37482  0.25948  1.0000
  H   H175      1.0  0.08349  0.37565  0.45888  1.0000
  H   H176      1.0  0.34328  0.23084  0.31829  1.0000
  H   H177      1.0  0.19838  0.46593  0.30673  1.0000
  C   C156      1.0  0.27689  0.24310  0.19408  1.0000
  C   C157      1.0  0.37508  0.42946  0.16869  1.0000
  C   C158      1.0  0.46487  0.36758  0.18118  1.0000
  H   H178      1.0  0.98856  0.22768  0.39772  1.0000
  N   N7        1.0  0.19511  0.39159  0.27863  1.0000
  C   C159      1.0  0.25544  0.25732  0.19492  1.0000
  H   H179      1.0  0.22893  0.37727  0.29051  1.0000
  H   H180      1.0  0.17027  0.38550  0.32434  1.0000
  C   C160      1.0  0.18972  0.40854  0.29720  1.0000
  C   C161      1.0  0.17669  0.40278  0.31949  1.0000
  C   C162      1.0  0.19754  0.43177  0.29319  1.0000
  C   C163      1.0  0.17148  0.41948  0.33637  1.0000
  C   C164      1.0  0.19230  0.44828  0.31022  1.0000
  C   C165      1.0  0.17920  0.44219  0.33172  1.0000
  H   H181      1.0  0.09665  0.24993  0.44681  1.0000
  H   H182      1.0  0.22492  0.39081  0.04625  1.0000
  H   H183      1.0  0.31902  0.29259  0.22720  1.0000
  H   H184      1.0  0.23332  0.28394  0.21336  1.0000
  H   H185      1.0  0.22147  0.38655  0.00569  1.0000
  C   C166      1.0  0.18576  0.40218  0.25594  1.0000
  H   H186      1.0  0.22234  0.44713  0.16465  1.0000
  C   C167      1.0  0.47404  0.43357  0.40100  1.0000
  H   H187      1.0  0.43011  0.47109  0.45683  1.0000
  H   H188      1.0  0.33942  0.24838  0.25828  1.0000
  H   H189      1.0  0.20782  0.43734  0.27680  1.0000
  H   H190      1.0  0.36992  0.43858  0.18456  1.0000
  H   H191      1.0  0.25788  0.43637  0.97957  1.0000
  H   H192      1.0  0.39136  0.39418  0.11312  1.0000
  H   H193      1.0  0.99921  0.26403  0.41337  1.0000
  H   H194      1.0  0.28130  0.23130  0.18002  1.0000
  H   H195      1.0  0.20304  0.40757  0.98829  1.0000
  C   C168      1.0  0.18474  0.36848  0.28500  1.0000
  H   H196      1.0  0.28452  0.45299  0.20434  1.0000
  H   H197      1.0  0.24742  0.28567  0.46988  1.0000
  C   C169      1.0  0.36798  0.25062  0.47115  1.0000
  H   H198      1.0  0.30564  0.25690  0.28567  1.0000
  H   H199      1.0  0.45141  0.35855  0.17440  1.0000
  N   N8        1.0  0.30483  0.26223  0.24736  1.0000
  C   C170      1.0  0.39616  0.42589  0.12961  1.0000
  H   H200      1.0  0.43080  0.45825  0.12654  1.0000
  H   H201      1.0  0.18813  0.38925  0.24205  1.0000
  C   C171      1.0  0.07878  0.25086  0.44003  1.0000
  C   C172      1.0  0.37603  0.27126  0.45760  1.0000
  H   H202      1.0  0.32371  0.22735  0.24612  1.0000
  N   N9        1.0  0.23001  0.42288  0.00482  1.0000
  C   C173      1.0  0.41704  0.25818  0.46415  1.0000
  H   H203      1.0  0.19578  0.46178  0.05655  1.0000
  H   H204      1.0  0.40765  0.43185  0.11423  1.0000
  H   H205      1.0  0.24365  0.45644  0.18177  1.0000
  H   H206      1.0  0.28252  0.46340  0.38958  1.0000
  C   C174      1.0  0.39043  0.43936  0.14969  1.0000
  H   H207      1.0  0.24349  0.26182  0.43604  1.0000
  H   H208      1.0  0.36402  0.28499  0.44958  1.0000
  Fe  Fe24      1.0  0.43342  0.22570  0.20815  1.0000
  H   H209      1.0  0.30761  0.25995  0.46568  1.0000
  C   C175      1.0  0.23913  0.40226  0.04550  1.0000
  H   H210      1.0  0.06533  0.25240  0.45569  1.0000
  S   S60       1.0  0.16517  0.45333  0.41934  1.0000
  C   C176      1.0  0.24371  0.41964  0.02609  1.0000
  C   C177      1.0  0.26217  0.43438  0.02795  1.0000
  H   H211      1.0  0.28928  0.44323  0.04892  1.0000
  H   H212      1.0  0.20682  0.45002  0.98753  1.0000
  C   C178      1.0  0.27536  0.43169  0.04784  1.0000
  C   C179      1.0  0.29305  0.24434  0.21100  1.0000
  H   H213      1.0  0.17502  0.45512  0.34481  1.0000
  S   S61       1.0  0.20423  0.24498  0.38827  1.0000
  H   H214      1.0  0.03832  0.46962  0.98278  1.0000
  C   C180      1.0  0.38689  0.40405  0.12869  1.0000
  H   H215      1.0  0.16342  0.40024  0.43332  1.0000
  C   C181      1.0  0.28808  0.26004  0.22935  1.0000
  C   C182      1.0  0.22657  0.46232  0.17401  1.0000
  H   H216      1.0  0.27742  0.26846  0.27622  1.0000
  Fe  Fe25      1.0  0.22393  0.25690  0.35285  1.0000
  C   C183      1.0  0.17038  0.38302  0.44242  1.0000
  H   H217      1.0  0.20315  0.44810  0.01934  1.0000
  C   C184      1.0  0.31139  0.28708  0.24561  1.0000
  C   C185      1.0  0.24998  0.27278  0.21274  1.0000
  S   S62       1.0  0.43728  0.45358  0.07292  1.0000
  H   H218      1.0  0.16647  0.40795  0.25870  1.0000
  N   N10       1.0  0.07595  0.22973  0.42728  1.0000
  H   H219      1.0  0.32486  0.28923  0.25810  1.0000
  H   H220      1.0  0.29592  0.30000  0.24989  1.0000
  H   H221      1.0  0.21273  0.46476  0.18916  1.0000
  H   H222      1.0  0.42940  0.44798  0.17020  1.0000
  C   C186      1.0  0.22117  0.38642  0.27433  1.0000
  H   H223      1.0  0.07712  0.26763  0.42808  1.0000
  C   C187      1.0  0.25658  0.46569  0.22977  1.0000
  H   H224      1.0  0.35395  0.40042  0.18209  1.0000
  H   H225      1.0  0.19227  0.35852  0.30097  1.0000
  H   H226      1.0  0.26639  0.44831  0.01413  1.0000
  C   C188      1.0  0.47176  0.46002  0.43325  1.0000
  C   C189      1.0  0.37174  0.39498  0.14757  1.0000
  N   N11       1.0  0.39953  0.46274  0.15123  1.0000
  C   C190      1.0  0.32721  0.24644  0.24444  1.0000
  C   C191      1.0  0.25259  0.39961  0.06519  1.0000
  H   H227      1.0  0.02731  0.43815  0.46414  1.0000
  H   H228      1.0  0.16506  0.37092  0.28825  1.0000
  H   H229      1.0  0.22825  0.46129  0.00354  1.0000
  H   H230      1.0  0.16132  0.41485  0.35317  1.0000
  C   C192      1.0  0.03473  0.24958  0.41989  1.0000
  H   H231      1.0  0.47358  0.41592  0.39534  1.0000
  Fe  Fe26      1.0  0.38290  0.22514  0.19432  1.0000
  H   H232      1.0  0.18867  0.35647  0.27036  1.0000
  H   H233      1.0  0.30950  0.23314  0.20896  1.0000
  C   C193      1.0  0.24641  0.42136  0.98276  1.0000
  C   C194      1.0  0.98084  0.25056  0.46534  1.0000
  C   C195      1.0  0.19083  0.34129  0.46807  1.0000
  H   H234      1.0  0.25819  0.40448  0.98359  1.0000
  C   C196      1.0  0.09378  0.22951  0.40629  1.0000
  H   H235      1.0  0.24203  0.46516  0.12762  1.0000
  Fe  Fe27      1.0  0.47241  0.44935  0.09034  1.0000
  N   N12       1.0  0.46773  0.46348  0.45901  1.0000
  H   H236      1.0  0.33728  0.25063  0.22686  1.0000
  C   C197      1.0  0.25287  0.26682  0.47135  1.0000
  H   H237      1.0  0.26093  0.28645  0.24313  1.0000
  C   C198      1.0  0.40364  0.45949  0.01171  1.0000
  H   H238      1.0  0.44479  0.40139  0.17409  1.0000
  H   H239      1.0  0.20215  0.45896  0.13297  1.0000
  H   H240      1.0  0.32681  0.28232  0.46788  1.0000
  C   C199      1.0  0.27729  0.46770  0.21443  1.0000
  C   C200      1.0  0.41381  0.46142  0.17202  1.0000
  H   H241      1.0  0.11233  0.22823  0.41153  1.0000
  H   H242      1.0  0.33122  0.26417  0.44275  1.0000
  H   H243      1.0  0.38762  0.46898  0.00553  1.0000
  H   H244      1.0  0.19977  0.41629  0.43916  1.0000
  H   H245      1.0  0.40342  0.45674  0.18923  1.0000
  H   H246      1.0  0.47425  0.42478  0.18852  1.0000
  H   H247      1.0  0.21733  0.40510  0.46267  1.0000
  N   N13       1.0  0.18596  0.38659  0.46121  1.0000
  S   S63       1.0  0.97934  0.32544  0.43527  1.0000
  H   H248      1.0  0.16360  0.41836  0.46902  1.0000
  S   S64       1.0  0.13329  0.46386  0.46900  1.0000
  H   H249      1.0  0.15441  0.37402  0.45010  1.0000
  H   H250      1.0  0.21768  0.38842  0.43715  1.0000
  C   C201      1.0  0.20606  0.39955  0.44953  1.0000
  Fe  Fe28      1.0  0.16998  0.47043  0.45244  1.0000
  C   C202      1.0  0.25794  0.22904  0.45374  1.0000
  H   H251      1.0  0.43577  0.26111  0.46166  1.0000
  H   H252      1.0  0.03452  0.23031  0.48487  1.0000
  Fe  Fe29      1.0  0.00144  0.46988  0.79061  1.0000
  S   S65       1.0  0.06674  0.44214  0.84395  1.0000
  S   S66       1.0  0.05789  0.26484  0.74945  1.0000
  S   S67       1.0  0.17270  0.24833  0.77591  1.0000
  S   S68       1.0  0.12625  0.25902  0.72840  1.0000
  H   H253      1.0  0.05774  0.41481  0.92940  1.0000
  H   H254      1.0  0.22261  0.30551  0.50783  1.0000
  H   H255      1.0  0.25075  0.43565  0.82240  1.0000
  S   S69       1.0  0.38035  0.42066  0.50313  1.0000
  Fe  Fe30      1.0  0.26385  0.40956  0.74206  1.0000
  S   S70       1.0  0.29958  0.39247  0.75145  1.0000
  S   S71       1.0  0.25702  0.44402  0.71905  1.0000
  Fe  Fe31      1.0  0.23701  0.36803  0.76691  1.0000
  S   S72       1.0  0.27067  0.34857  0.77876  1.0000
  S   S73       1.0  0.19973  0.35536  0.77320  1.0000
  Fe  Fe32      1.0  0.28059  0.38417  0.78797  1.0000
  S   S74       1.0  0.29141  0.38874  0.82542  1.0000
  Fe  Fe33      1.0  0.28627  0.35878  0.74121  1.0000
  S   S75       1.0  0.30565  0.32954  0.71965  1.0000
  S   S76       1.0  0.24539  0.40291  0.77871  1.0000
  S   S77       1.0  0.25215  0.37669  0.72924  1.0000
  H   H256      1.0  0.21449  0.38142  0.49825  1.0000
  S   S78       1.0  0.34819  0.45488  0.93554  1.0000
  H   H257      1.0  0.21698  0.23431  0.60668  1.0000
  S   S79       1.0  0.99858  0.47154  0.59576  1.0000
  H   H258      1.0  0.32211  0.45028  0.56484  1.0000
  C   C203      1.0  0.02517  0.33201  0.71656  1.0000
  S   S80       1.0  0.35839  0.45930  0.86282  1.0000
  H   H259      1.0  0.25691  0.24764  0.65836  1.0000
  N   N14       1.0  0.16666  0.41847  0.89174  1.0000
  C   C204      1.0  0.39990  0.38382  0.88323  1.0000
  Fe  Fe34      1.0  0.29800  0.27862  0.59417  1.0000
  S   S81       1.0  0.29736  0.31428  0.61025  1.0000
  S   S82       1.0  0.26276  0.26763  0.58642  1.0000
  H   H260      1.0  0.04665  0.45868  0.95456  1.0000
  H   H261      1.0  0.47138  0.24113  0.49170  1.0000
  C   C205      1.0  0.30954  0.40915  0.83533  1.0000
  C   C206      1.0  0.32297  0.42420  0.81946  1.0000
  C   C207      1.0  0.33754  0.43957  0.82822  1.0000
  C   C208      1.0  0.33848  0.44060  0.85292  1.0000
  C   C209      1.0  0.32475  0.42585  0.86882  1.0000
  C   C210      1.0  0.31063  0.41004  0.86005  1.0000
  H   H262      1.0  0.32240  0.42373  0.80043  1.0000
  H   H263      1.0  0.34828  0.45064  0.81570  1.0000
  H   H264      1.0  0.32540  0.42620  0.88784  1.0000
  H   H265      1.0  0.30043  0.39842  0.87251  1.0000
  C   C211      1.0  0.30309  0.32599  0.68912  1.0000
  C   C212      1.0  0.31344  0.30499  0.67969  1.0000
  C   C213      1.0  0.31136  0.30090  0.65579  1.0000
  C   C214      1.0  0.29957  0.31821  0.64076  1.0000
  C   C215      1.0  0.28997  0.33966  0.64990  1.0000
  C   C216      1.0  0.29129  0.34337  0.67408  1.0000
  H   H266      1.0  0.32344  0.29198  0.69095  1.0000
  H   H267      1.0  0.31965  0.28474  0.64876  1.0000
  H   H268      1.0  0.28116  0.35335  0.63832  1.0000
  H   H269      1.0  0.28366  0.35984  0.68095  1.0000
  C   C217      1.0  0.41092  0.41327  0.50659  1.0000
  C   C218      1.0  0.42269  0.39309  0.49670  1.0000
  C   C219      1.0  0.44697  0.38674  0.49933  1.0000
  C   C220      1.0  0.21500  0.32172  0.49855  1.0000
  C   C221      1.0  0.44764  0.42013  0.52263  1.0000
  C   C222      1.0  0.42347  0.42670  0.51969  1.0000
  H   H270      1.0  0.00717  0.42666  0.74743  1.0000
  C   C223      1.0  0.03172  0.43623  0.48306  1.0000
  H   H271      1.0  0.29349  0.45682  0.68052  1.0000
  H   H272      1.0  0.41452  0.44199  0.52782  1.0000
  H   H273      1.0  0.28565  0.25821  0.65430  1.0000
  N   N15       1.0  0.35008  0.37033  0.56066  1.0000
  C   C224      1.0  0.29611  0.24908  0.69960  1.0000
  H   H274      1.0  0.29198  0.45208  0.75120  1.0000
  H   H275      1.0  0.15507  0.41510  0.92947  1.0000
  C   C225      1.0  0.04255  0.40114  0.72811  1.0000
  H   H276      1.0  0.12883  0.41758  0.90079  1.0000
  H   H277      1.0  0.02302  0.40647  0.68564  1.0000
  H   H278      1.0  0.05510  0.39644  0.71255  1.0000
  H   H279      1.0  0.34525  0.23411  0.51303  1.0000
  Fe  Fe35      1.0  0.14286  0.23567  0.75760  1.0000
  C   C226      1.0  0.18012  0.27822  0.77384  1.0000
  C   C227      1.0  0.20378  0.28272  0.77559  1.0000
  C   C228      1.0  0.21014  0.30619  0.77533  1.0000
  C   C229      1.0  0.19274  0.32540  0.77390  1.0000
  C   C230      1.0  0.16905  0.32088  0.77230  1.0000
  C   C231      1.0  0.16281  0.29746  0.77187  1.0000
  H   H280      1.0  0.21725  0.26795  0.77738  1.0000
  H   H281      1.0  0.22841  0.30935  0.77673  1.0000
  H   H282      1.0  0.15545  0.33560  0.77120  1.0000
  H   H283      1.0  0.14451  0.29424  0.77079  1.0000
  C   C232      1.0  0.99197  0.24618  0.71693  1.0000
  C   C233      1.0  0.03267  0.25723  0.73697  1.0000
  C   C234      1.0  0.01008  0.26761  0.74458  1.0000
  C   C235      1.0  0.98976  0.26208  0.73461  1.0000
  H   H284      1.0  0.00826  0.27997  0.75819  1.0000
  H   H285      1.0  0.15714  0.39233  0.48835  1.0000
  C   C236      1.0  0.07147  0.44306  0.87442  1.0000
  C   C237      1.0  0.05967  0.42865  0.89237  1.0000
  C   C238      1.0  0.06637  0.42674  0.91589  1.0000
  C   C239      1.0  0.08451  0.43962  0.92189  1.0000
  C   C240      1.0  0.09542  0.45506  0.90425  1.0000
  C   C241      1.0  0.08931  0.45632  0.88051  1.0000
  H   H286      1.0  0.04610  0.41814  0.88790  1.0000
  C   C242      1.0  0.18252  0.39755  0.85467  1.0000
  C   C243      1.0  0.20156  0.38835  0.83964  1.0000
  C   C244      1.0  0.22926  0.40174  0.86401  1.0000
  C   C245      1.0  0.22485  0.39024  0.84445  1.0000
  H   H287      1.0  0.31318  0.36700  0.59801  1.0000
  H   H288      1.0  0.16497  0.39555  0.84976  1.0000
  H   H289      1.0  0.19831  0.37963  0.82411  1.0000
  H   H290      1.0  0.24750  0.40323  0.86743  1.0000
  H   H291      1.0  0.23956  0.38287  0.83288  1.0000
  N   N16       1.0  0.40764  0.40081  0.89857  1.0000
  C   C246      1.0  0.38662  0.41121  0.91288  1.0000
  C   C247      1.0  0.42488  0.38989  0.91554  1.0000
  C   C248      1.0  0.41898  0.42032  0.88355  1.0000
  H   H292      1.0  0.39178  0.42338  0.92541  1.0000
  H   H293      1.0  0.24769  0.44378  0.48993  1.0000
  H   H294      1.0  0.43027  0.40329  0.92674  1.0000
  H   H295      1.0  0.03924  0.31768  0.71480  1.0000
  H   H296      1.0  0.40624  0.43167  0.87259  1.0000
  H   H297      1.0  0.42629  0.43262  0.89460  1.0000
  H   H298      1.0  0.43379  0.41315  0.87114  1.0000
  N   N17       1.0  0.03537  0.32518  0.80332  1.0000
  C   C249      1.0  0.04642  0.30097  0.79888  1.0000
  C   C250      1.0  0.01667  0.32248  0.82346  1.0000
  C   C251      1.0  0.02398  0.33524  0.78160  1.0000
  C   C252      1.0  0.05256  0.34150  0.80880  1.0000
  C   C253      1.0  0.07759  0.33560  0.80661  1.0000
  C   C254      1.0  0.04447  0.36448  0.81588  1.0000
  C   C255      1.0  0.09328  0.35163  0.81166  1.0000
  C   C256      1.0  0.06029  0.38024  0.82107  1.0000
  C   C257      1.0  0.08463  0.37386  0.81896  1.0000
  H   H299      1.0  0.05937  0.30127  0.78273  1.0000
  H   H300      1.0  0.05560  0.29240  0.81447  1.0000
  H   H301      1.0  0.03306  0.28891  0.79533  1.0000
  H   H302      1.0  0.00507  0.33921  0.82589  1.0000
  H   H303      1.0  0.02465  0.31688  0.84059  1.0000
  C   C258      1.0  0.19537  0.36414  0.47404  1.0000
  H   H304      1.0  0.03751  0.33763  0.76619  1.0000
  H   H305      1.0  0.01101  0.32347  0.77661  1.0000
  H   H306      1.0  0.01403  0.35285  0.78404  1.0000
  H   H307      1.0  0.08556  0.31870  0.80109  1.0000
  H   H308      1.0  0.02579  0.37051  0.81752  1.0000
  H   H309      1.0  0.11230  0.34676  0.80998  1.0000
  H   H310      1.0  0.05365  0.39756  0.82685  1.0000
  H   H311      1.0  0.09674  0.38627  0.82301  1.0000
  S   S83       1.0  0.99685  0.43115  0.85054  1.0000
  S   S84       1.0  0.09360  0.43485  0.95132  1.0000
  H   H312      1.0  0.00990  0.27082  0.53433  1.0000
  N   N18       1.0  0.27789  0.23814  0.68828  1.0000
  H   H313      1.0  0.32665  0.36643  0.53388  1.0000
  C   C259      1.0  0.26944  0.23172  0.49394  1.0000
  H   H314      1.0  0.29097  0.44104  0.59712  1.0000
  H   H315      1.0  0.07815  0.44092  0.47883  1.0000
  C   C260      1.0  0.14301  0.41169  0.88706  1.0000
  H   H316      1.0  0.02682  0.46505  0.92153  1.0000
  H   H317      1.0  0.99118  0.25822  0.59717  1.0000
  C   C261      1.0  0.21136  0.22877  0.62507  1.0000
  Fe  Fe36      1.0  0.32540  0.23528  0.57075  1.0000
  C   C262      1.0  0.98867  0.36843  0.72102  1.0000
  H   H318      1.0  0.17331  0.38985  0.91891  1.0000
  H   H319      1.0  0.15124  0.45272  0.90174  1.0000
  C   C263      1.0  0.26088  0.46901  0.80488  1.0000
  H   H320      1.0  0.04922  0.35777  0.71855  1.0000
  H   H321      1.0  0.45582  0.37123  0.49153  1.0000
  H   H322      1.0  0.18604  0.41682  0.92324  1.0000
  H   H323      1.0  0.30131  0.44862  0.63822  1.0000
  C   C264      1.0  0.98345  0.34524  0.71867  1.0000
  N   N19       1.0  0.21087  0.33035  0.69912  1.0000
  C   C265      1.0  0.21510  0.35519  0.68993  1.0000
  C   C266      1.0  0.18747  0.33126  0.71340  1.0000
  C   C267      1.0  0.22933  0.32102  0.71530  1.0000
  C   C268      1.0  0.21215  0.31522  0.67905  1.0000
  C   C269      1.0  0.19396  0.30058  0.67587  1.0000
  C   C270      1.0  0.23213  0.31480  0.66192  1.0000
  C   C271      1.0  0.19530  0.28745  0.65603  1.0000
  C   C272      1.0  0.23333  0.30160  0.64214  1.0000
  C   C273      1.0  0.21487  0.28807  0.63912  1.0000
  H   H324      1.0  0.20328  0.36194  0.67569  1.0000
  H   H325      1.0  0.21169  0.36757  0.70429  1.0000
  H   H326      1.0  0.23378  0.35699  0.68255  1.0000
  H   H327      1.0  0.17271  0.33739  0.70207  1.0000
  H   H328      1.0  0.18648  0.34394  0.72739  1.0000
  H   H329      1.0  0.18407  0.31365  0.72304  1.0000
  H   H330      1.0  0.24764  0.32154  0.70633  1.0000
  H   H331      1.0  0.22855  0.33163  0.73099  1.0000
  H   H332      1.0  0.22698  0.30229  0.72238  1.0000
  H   H333      1.0  0.17835  0.29906  0.68830  1.0000
  H   H334      1.0  0.24692  0.32485  0.66365  1.0000
  H   H335      1.0  0.18089  0.27692  0.65370  1.0000
  H   H336      1.0  0.24863  0.30200  0.62901  1.0000
  H   H337      1.0  0.21572  0.27806  0.62363  1.0000
  C   C274      1.0  0.17053  0.40962  0.91683  1.0000
  H   H338      1.0  0.26350  0.27253  0.67376  1.0000
  C   C275      1.0  0.03062  0.35518  0.71889  1.0000
  S   S85       1.0  0.40845  0.43782  0.96907  1.0000
  C   C276      1.0  0.00164  0.32709  0.71642  1.0000
  H   H339      1.0  0.98319  0.41167  0.74074  1.0000
  Fe  Fe37      1.0  0.97951  0.46818  0.84165  1.0000
  H   H340      1.0  0.34873  0.38672  0.52453  1.0000
  C   C277      1.0  0.34544  0.36971  0.53536  1.0000
  H   H341      1.0  0.06012  0.43907  0.51872  1.0000
  C   C278      1.0  0.33398  0.38942  0.57132  1.0000
  H   H342      1.0  0.99749  0.30919  0.71438  1.0000
  H   H343      1.0  0.37905  0.37727  0.58012  1.0000
  C   C279      1.0  0.16576  0.44478  0.88948  1.0000
  H   H344      1.0  0.28555  0.46301  0.48373  1.0000
  S   S86       1.0  0.99947  0.34571  0.48193  1.0000
  H   H345      1.0  0.01595  0.46861  0.96264  1.0000
  H   H346      1.0  0.18252  0.45122  0.89403  1.0000
  H   H347      1.0  0.01664  0.43231  0.70195  1.0000
  H   H348      1.0  0.45717  0.43056  0.53291  1.0000
  H   H349      1.0  0.32899  0.34070  0.57169  1.0000
  H   H350      1.0  0.41703  0.37602  0.92840  1.0000
  H   H351      1.0  0.33849  0.26542  0.50738  1.0000
  H   H352      1.0  0.37789  0.41046  0.86278  1.0000
  H   H353      1.0  0.00375  0.39703  0.76083  1.0000
  H   H354      1.0  0.41897  0.35114  0.89854  1.0000
  C   C280      1.0  0.26215  0.25604  0.49236  1.0000
  Fe  Fe38      1.0  0.27694  0.23078  0.59913  1.0000
  S   S87       1.0  0.26505  0.27373  0.51584  1.0000
  H   H355      1.0  0.25342  0.46652  0.78841  1.0000
  C   C281      1.0  0.03479  0.24126  0.71940  1.0000
  H   H356      1.0  0.21469  0.42048  0.89370  1.0000
  H   H357      1.0  0.19717  0.30319  0.47528  1.0000
  H   H358      1.0  0.01495  0.43343  0.49449  1.0000
  C   C282      1.0  0.06651  0.45750  0.47474  1.0000
  H   H359      1.0  0.44142  0.38203  0.90599  1.0000
  S   S88       1.0  0.02167  0.43409  0.79588  1.0000
  S   S89       1.0  0.31467  0.27307  0.55709  1.0000
  Fe  Fe39      1.0  0.36148  0.47195  0.89968  1.0000
  N   N20       1.0  0.04295  0.45730  0.48875  1.0000
  Fe  Fe40      1.0  0.98713  0.42256  0.81441  1.0000
  C   C283      1.0  0.38403  0.39190  0.86565  1.0000
  H   H360      1.0  0.04764  0.38989  0.74442  1.0000
  H   H361      1.0  0.35716  0.35556  0.52662  1.0000
  S   S90       1.0  0.32859  0.47283  0.51371  1.0000
  C   C284      1.0  0.27051  0.25486  0.66787  1.0000
  C   C285      1.0  0.04722  0.45460  0.51442  1.0000
  Fe  Fe41      1.0  0.28055  0.25902  0.55045  1.0000
  C   C286      1.0  0.21037  0.41123  0.87905  1.0000
  C   C287      1.0  0.34710  0.34624  0.57295  1.0000
  C   C288      1.0  0.97694  0.30554  0.54525  1.0000
  Fe  Fe42      1.0  0.09271  0.24223  0.74234  1.0000
  H   H362      1.0  0.41308  0.38244  0.48674  1.0000
  H   H363      1.0  0.99337  0.41439  0.69796  1.0000
  H   H364      1.0  0.37699  0.39713  0.92378  1.0000
  C   C289      1.0  0.28538  0.46906  0.74271  1.0000
  C   C290      1.0  0.03468  0.47238  0.96365  1.0000
  H   H365      1.0  0.04364  0.41955  0.48557  1.0000
  H   H366      1.0  0.00119  0.24928  0.55789  1.0000
  H   H367      1.0  0.23113  0.34457  0.51907  1.0000
  C   C291      1.0  0.30297  0.42677  0.59020  1.0000
  Fe  Fe43      1.0  0.12121  0.45405  0.96663  1.0000
  S   S91       1.0  0.97823  0.38508  0.80721  1.0000
  H   H368      1.0  0.32936  0.47184  0.61102  1.0000
  S   S92       1.0  0.14967  0.23284  0.66811  1.0000
  S   S93       1.0  0.31157  0.24208  0.60866  1.0000
  C   C292      1.0  0.26857  0.45489  0.84525  1.0000
  H   H369      1.0  0.05447  0.47073  0.51956  1.0000
  C   C293      1.0  0.01240  0.37410  0.72159  1.0000
  H   H370      1.0  0.35977  0.33235  0.56491  1.0000
  H   H371      1.0  0.98515  0.31503  0.55825  1.0000
  C   C294      1.0  0.21013  0.36471  0.49284  1.0000
  H   H372      1.0  0.18272  0.40792  0.49143  1.0000
  H   H373      1.0  0.28860  0.26601  0.70704  1.0000
  C   C295      1.0  0.00226  0.40885  0.74401  1.0000
  Fe  Fe44      1.0  0.02958  0.44539  0.83126  1.0000
  H   H374      1.0  0.25487  0.45252  0.91850  1.0000
  C   C296      1.0  0.37522  0.37512  0.56154  1.0000
  C   C297      1.0  0.21976  0.34378  0.50487  1.0000
  H   H375      1.0  0.13734  0.42008  0.86961  1.0000
  H   H376      1.0  0.05206  0.23341  0.71317  1.0000
  Fe  Fe45      1.0  0.36596  0.45954  0.50112  1.0000
  C   C298      1.0  0.18638  0.40888  0.87520  1.0000
  S   S94       1.0  0.20586  0.46030  0.93689  1.0000
  C   C299      1.0  0.30081  0.40328  0.59937  1.0000
  H   H377      1.0  0.04547  0.41981  0.73090  1.0000
  C   C300      1.0  0.37543  0.37623  0.85166  1.0000
  C   C301      1.0  0.32044  0.43193  0.57190  1.0000
  Fe  Fe46      1.0  0.98858  0.31120  0.47212  1.0000
  H   H378      1.0  0.36293  0.38293  0.83867  1.0000
  C   C302      1.0  0.17990  0.22646  0.65785  1.0000
  H   H379      1.0  0.23656  0.42224  0.96653  1.0000
  H   H380      1.0  0.37583  0.33993  0.84368  1.0000
  H   H381      1.0  0.43855  0.46294  0.48647  1.0000
  C   C303      1.0  0.01452  0.23574  0.70945  1.0000
  H   H382      1.0  0.34859  0.41853  0.54791  1.0000
  C   C304      1.0  0.31601  0.38478  0.59015  1.0000
  H   H383      1.0  0.00444  0.30902  0.82060  1.0000
  H   H384      1.0  0.17499  0.24311  0.62248  1.0000
  C   C305      1.0  0.30590  0.46689  0.66873  1.0000
  H   H385      1.0  0.31148  0.25313  0.68653  1.0000
  H   H386      1.0  0.16276  0.45226  0.87094  1.0000
  H   H387      1.0  0.37374  0.42174  0.90148  1.0000
  H   H388      1.0  0.26723  0.44139  0.86015  1.0000
  C   C306      1.0  0.38263  0.35203  0.85453  1.0000
  Fe  Fe47      1.0  0.38268  0.46364  0.94835  1.0000
  C   C307      1.0  0.01242  0.41360  0.70142  1.0000
  C   C308      1.0  0.33564  0.41360  0.56245  1.0000
  H   H389      1.0  0.37988  0.39148  0.55024  1.0000
  C   C309      1.0  0.25372  0.46567  0.93129  1.0000
  C   C310      1.0  0.45958  0.40023  0.51233  1.0000
  Fe  Fe48      1.0  0.17211  0.46845  0.96080  1.0000
  N   N21       1.0  0.01749  0.39888  0.72380  1.0000
  H   H390      1.0  0.98759  0.30816  0.52768  1.0000
  H   H391      1.0  0.01634  0.22345  0.69575  1.0000
  H   H392      1.0  0.14284  0.39204  0.88752  1.0000
  H   H393      1.0  0.38784  0.36051  0.55474  1.0000
  C   C311      1.0  0.40699  0.35900  0.88567  1.0000
  H   H394      1.0  0.45785  0.46495  0.96675  1.0000
  N   N22       1.0  0.34250  0.24649  0.47587  1.0000
  H   H395      1.0  0.35024  0.34542  0.59218  1.0000
  C   C312      1.0  0.26812  0.47000  0.72652  1.0000
  H   H396      1.0  0.31601  0.24549  0.50608  1.0000
  H   H397      1.0  0.28719  0.39930  0.61364  1.0000
  H   H398      1.0  0.22952  0.25626  0.69038  1.0000
  H   H399      1.0  0.40396  0.32457  0.87358  1.0000
  C   C313      1.0  0.39844  0.34345  0.87141  1.0000
  Fe  Fe49      1.0  0.13474  0.22748  0.70695  1.0000
  H   H400      1.0  0.01143  0.27711  0.56443  1.0000
  C   C314      1.0  0.25918  0.45168  0.82405  1.0000
  C   C315      1.0  0.31030  0.46224  0.64489  1.0000
  H   H401      1.0  0.19821  0.24579  0.72093  1.0000
  H   H402      1.0  0.29158  0.46896  0.92791  1.0000
  C   C316      1.0  0.97950  0.46775  0.73200  1.0000
  C   C317      1.0  0.23444  0.24346  0.70490  1.0000
  H   H403      1.0  0.10907  0.46544  0.90869  1.0000
  C   C318      1.0  0.24865  0.46035  0.47878  1.0000
  C   C319      1.0  0.25803  0.23265  0.70635  1.0000
  C   C320      1.0  0.21615  0.23751  0.72225  1.0000
  H   H404      1.0  0.30344  0.23730  0.71451  1.0000
  C   C321      1.0  0.33523  0.24789  0.50165  1.0000
  C   C322      1.0  0.00065  0.26875  0.55268  1.0000
  H   H405      1.0  0.03075  0.45189  0.52633  1.0000
  C   C323      1.0  0.17179  0.40182  0.47832  1.0000
  H   H406      1.0  0.09853  0.46751  0.86674  1.0000
  C   C324      1.0  0.01763  0.22998  0.47765  1.0000
  C   C325      1.0  0.18755  0.23364  0.63405  1.0000
  C   C326      1.0  0.00283  0.25110  0.47435  1.0000
  S   S95       1.0  0.01247  0.27799  0.48115  1.0000
  C   C327      1.0  0.20061  0.32047  0.48021  1.0000
  C   C328      1.0  0.27008  0.47129  0.47540  1.0000
  H   H407      1.0  0.99781  0.46824  0.50946  1.0000
  C   C329      1.0  0.98190  0.46968  0.68857  1.0000
  C   C330      1.0  0.38561  0.23412  0.48104  1.0000
  N   N23       1.0  0.97584  0.27997  0.55339  1.0000
  H   H408      1.0  0.42275  0.22491  0.48542  1.0000
  C   C331      1.0  0.40971  0.23783  0.47751  1.0000
  H   H409      1.0  0.07624  0.47257  0.47870  1.0000
  H   H410      1.0  0.27651  0.22318  0.51004  1.0000
  S   S96       1.0  0.20210  0.45604  0.47205  1.0000
  N   N24       1.0  0.46547  0.67683  0.28230  1.0000
  C   C332      1.0  0.07903  0.59219  0.02425  1.0000
  H   H411      1.0  0.19132  0.58125  0.26909  1.0000
  S   S97       1.0  0.16679  0.50165  0.36612  1.0000
  H   H412      1.0  0.19142  0.51271  0.32007  1.0000
  H   H413      1.0  0.38200  0.56064  0.42788  1.0000
  H   H414      1.0  0.34808  0.58736  0.33097  1.0000
  S   S98       1.0  0.15939  0.50779  0.43740  1.0000
  Fe  Fe50      1.0  0.26236  0.58127  0.29219  1.0000
  S   S99       1.0  0.29947  0.56884  0.27787  1.0000
  S   S100      1.0  0.24844  0.57057  0.33085  1.0000
  Fe  Fe51      1.0  0.25353  0.61288  0.24621  1.0000
  S   S101      1.0  0.28941  0.60220  0.22848  1.0000
  S   S102      1.0  0.22747  0.64137  0.22985  1.0000
  Fe  Fe52      1.0  0.28269  0.56513  0.24410  1.0000
  S   S103      1.0  0.29402  0.53452  0.22128  1.0000
  Fe  Fe53      1.0  0.30321  0.60703  0.26349  1.0000
  S   S104      1.0  0.33823  0.62423  0.26155  1.0000
  S   S105      1.0  0.24536  0.57539  0.25911  1.0000
  S   S106      1.0  0.26756  0.61987  0.28058  1.0000
  H   H415      1.0  0.38899  0.68641  0.20498  1.0000
  C   C333      1.0  0.43271  0.61048  0.29125  1.0000
  S   S107      1.0  0.44187  0.51965  0.34982  1.0000
  H   H416      1.0  0.22273  0.53973  0.30554  1.0000
  C   C334      1.0  0.28030  0.67315  0.22987  1.0000
  Fe  Fe54      1.0  0.13112  0.50187  0.98070  1.0000
  C   C335      1.0  0.30819  0.66291  0.14829  1.0000
  C   C336      1.0  0.47234  0.49563  0.97744  1.0000
  S   S108      1.0  0.00955  0.58417  0.99498  1.0000
  C   C337      1.0  0.20500  0.49212  0.14854  1.0000
  H   H417      1.0  0.46649  0.56403  0.00123  1.0000
  C   C338      1.0  0.16897  0.59422  0.31231  1.0000
  H   H418      1.0  0.28110  0.57813  0.37083  1.0000
  C   C339      1.0  0.26300  0.71789  0.98240  1.0000
  C   C340      1.0  0.26312  0.69197  0.23351  1.0000
  C   C341      1.0  0.41915  0.52306  0.43007  1.0000
  C   C342      1.0  0.43771  0.53600  0.41897  1.0000
  C   C343      1.0  0.44542  0.53443  0.39465  1.0000
  C   C344      1.0  0.43433  0.52021  0.38100  1.0000
  C   C345      1.0  0.41586  0.50716  0.39212  1.0000
  C   C346      1.0  0.40859  0.50824  0.41660  1.0000
  H   H419      1.0  0.44605  0.54753  0.42916  1.0000
  H   H420      1.0  0.30422  0.59041  0.33320  1.0000
  H   H421      1.0  0.39466  0.49778  0.42489  1.0000
  H   H422      1.0  0.02588  0.50999  0.98703  1.0000
  C   C347      1.0  0.07087  0.54084  0.99831  1.0000
  C   C348      1.0  0.04745  0.55120  0.00267  1.0000
  C   C349      1.0  0.03857  0.57073  0.98780  1.0000
  H   H423      1.0  0.14450  0.51134  0.12091  1.0000
  C   C350      1.0  0.27511  0.48062  0.39634  1.0000
  C   C351      1.0  0.26677  0.52266  0.38793  1.0000
  H   H424      1.0  0.03627  0.54428  0.01787  1.0000
  H   H425      1.0  0.16309  0.59769  0.26345  1.0000
  S   S109      1.0  0.40915  0.52686  0.46039  1.0000
  C   C352      1.0  0.34220  0.65400  0.26651  1.0000
  C   C353      1.0  0.32516  0.66798  0.27984  1.0000
  C   C354      1.0  0.32940  0.69131  0.28383  1.0000
  C   C355      1.0  0.35036  0.70118  0.27399  1.0000
  C   C356      1.0  0.36726  0.68729  0.26041  1.0000
  C   C357      1.0  0.36334  0.66374  0.25702  1.0000
  H   H426      1.0  0.30889  0.66070  0.28739  1.0000
  H   H427      1.0  0.21466  0.62204  0.28148  1.0000
  H   H428      1.0  0.38359  0.69450  0.25298  1.0000
  H   H429      1.0  0.37677  0.65299  0.24697  1.0000
  C   C358      1.0  0.23404  0.65238  0.19964  1.0000
  C   C359      1.0  0.24747  0.63820  0.18343  1.0000
  C   C360      1.0  0.25154  0.64685  0.15930  1.0000
  C   C361      1.0  0.24308  0.67007  0.15122  1.0000
  C   C362      1.0  0.23010  0.68449  0.16754  1.0000
  C   C363      1.0  0.22527  0.67552  0.19154  1.0000
  H   H430      1.0  0.25409  0.62026  0.18930  1.0000
  H   H431      1.0  0.26135  0.63543  0.14680  1.0000
  H   H432      1.0  0.22335  0.70236  0.16156  1.0000
  H   H433      1.0  0.21470  0.68660  0.20386  1.0000
  C   C364      1.0  0.27957  0.50804  0.22528  1.0000
  C   C365      1.0  0.25898  0.50592  0.24076  1.0000
  Fe  Fe55      1.0  0.24306  0.71864  0.10509  1.0000
  C   C366      1.0  0.28870  0.48884  0.21218  1.0000
  H   H434      1.0  0.25184  0.52057  0.25096  1.0000
  H   H435      1.0  0.24459  0.68850  0.23678  1.0000
  H   H436      1.0  0.33971  0.68742  0.11810  1.0000
  H   H437      1.0  0.28007  0.70304  0.14903  1.0000
  H   H438      1.0  0.35832  0.52489  0.43140  1.0000
  S   S110      1.0  0.24963  0.68025  0.12074  1.0000
  C   C367      1.0  0.34483  0.49422  0.36668  1.0000
  C   C368      1.0  0.18984  0.52056  0.35680  1.0000
  C   C369      1.0  0.19907  0.53394  0.37266  1.0000
  C   C370      1.0  0.21653  0.54957  0.36429  1.0000
  C   C371      1.0  0.22527  0.55179  0.34007  1.0000
  C   C372      1.0  0.21613  0.53835  0.32420  1.0000
  C   C373      1.0  0.19851  0.52286  0.33254  1.0000
  H   H439      1.0  0.19241  0.53258  0.39131  1.0000
  H   H440      1.0  0.22324  0.56006  0.37670  1.0000
  C   C374      1.0  0.30606  0.52076  0.34747  1.0000
  H   H441      1.0  0.24786  0.49583  0.12490  1.0000
  C   C375      1.0  0.44859  0.69842  0.27914  1.0000
  H   H442      1.0  0.26007  0.51133  0.34461  1.0000
  C   C376      1.0  0.44596  0.53190  0.97662  1.0000
  H   H443      1.0  0.30904  0.69597  0.11335  1.0000
  H   H444      1.0  0.01492  0.63083  0.01342  1.0000
  C   C377      1.0  0.26205  0.49601  0.35835  1.0000
  H   H445      1.0  0.43937  0.69875  0.26257  1.0000
  H   H446      1.0  0.04414  0.60792  0.03129  1.0000
  C   C378      1.0  0.35008  0.53221  0.41481  1.0000
  C   C379      1.0  0.31100  0.70036  0.22582  1.0000
  H   H447      1.0  0.31929  0.55950  0.43906  1.0000
  C   C380      1.0  0.23703  0.50242  0.17164  1.0000
  H   H448      1.0  0.23156  0.48333  0.25493  1.0000
  S   S111      1.0  0.29868  0.50587  0.45452  1.0000
  H   H449      1.0  0.37454  0.58490  0.40638  1.0000
  H   H450      1.0  0.03952  0.68797  0.00036  1.0000
  H   H451      1.0  0.06862  0.67779  0.98917  1.0000
  H   H452      1.0  0.39994  0.63147  0.28494  1.0000
  H   H453      1.0  0.32984  0.70211  0.22365  1.0000
  C   C381      1.0  0.19405  0.47660  0.13566  1.0000
  C   C382      1.0  0.17123  0.52171  0.14142  1.0000
  H   H454      1.0  0.26597  0.53822  0.37436  1.0000
  H   H455      1.0  0.22473  0.50615  0.18770  1.0000
  N   N25       1.0  0.04531  0.64976  0.99963  1.0000
  H   H456      1.0  0.38611  0.55591  0.39731  1.0000
  C   C383      1.0  0.32177  0.49072  0.37674  1.0000
  N   N26       1.0  0.27691  0.50061  0.37735  1.0000
  C   C384      1.0  0.45385  0.65431  0.28526  1.0000
  H   H457      1.0  0.36068  0.52424  0.39949  1.0000
  H   H458      1.0  0.41729  0.66918  0.27976  1.0000
  C   C385      1.0  0.29529  0.70193  0.16026  1.0000
  C   C386      1.0  0.03885  0.64987  0.97484  1.0000
  H   H459      1.0  0.24826  0.52102  0.39608  1.0000
  C   C387      1.0  0.41884  0.63175  0.28638  1.0000
  H   H460      1.0  0.29171  0.53186  0.33963  1.0000
  H   H461      1.0  0.42094  0.47875  0.17372  1.0000
  C   C388      1.0  0.22991  0.49215  0.45347  1.0000
  H   H462      1.0  0.11453  0.57848  0.01278  1.0000
  C   C389      1.0  0.32307  0.69705  0.12563  1.0000
  C   C390      1.0  0.34987  0.57374  0.36791  1.0000
  C   C391      1.0  0.16116  0.50604  0.12865  1.0000
  H   H463      1.0  0.00956  0.66237  0.01239  1.0000
  H   H464      1.0  0.25455  0.49612  0.17833  1.0000
  S   S112      1.0  0.97598  0.64756  0.97677  1.0000
  C   C392      1.0  0.36621  0.70712  0.18098  1.0000
  H   H465      1.0  0.14065  0.55487  0.36674  1.0000
  C   C393      1.0  0.37393  0.56539  0.41065  1.0000
  C   C394      1.0  0.46867  0.52024  0.98086  1.0000
  H   H466      1.0  0.45880  0.50149  0.45642  1.0000
  C   C395      1.0  0.34852  0.51082  0.34713  1.0000
  S   S113      1.0  0.11650  0.54067  0.97578  1.0000
  H   H467      1.0  0.26420  0.47417  0.14407  1.0000
  H   H468      1.0  0.30469  0.49036  0.20025  1.0000
  H   H469      1.0  0.19035  0.61050  0.25417  1.0000
  H   H470      1.0  0.34654  0.56396  0.44952  1.0000
  C   C396      1.0  0.06087  0.61040  0.02095  1.0000
  C   C397      1.0  0.37932  0.48117  0.15434  1.0000
  C   C398      1.0  0.08587  0.55039  0.97942  1.0000
  H   H471      1.0  0.43505  0.69983  0.29470  1.0000
  H   H472      1.0  0.36935  0.64945  0.20391  1.0000
  H   H473      1.0  0.24982  0.51250  0.97735  1.0000
  H   H474      1.0  0.42173  0.48831  0.13151  1.0000
  H   H475      1.0  0.15724  0.59214  0.37334  1.0000
  C   C399      1.0  0.08678  0.63078  0.99073  1.0000
  H   H476      1.0  0.14822  0.63171  0.28719  1.0000
  C   C400      1.0  0.25128  0.50318  0.45027  1.0000
  H   H477      1.0  0.05047  0.49775  0.45636  1.0000
  H   H478      1.0  0.06884  0.49672  0.97398  1.0000
  H   H479      1.0  0.28886  0.69464  0.17850  1.0000
  C   C401      1.0  0.30033  0.57687  0.37017  1.0000
  H   H480      1.0  0.14178  0.54236  0.32614  1.0000
  H   H481      1.0  0.02329  0.53267  0.44959  1.0000
  N   N27       1.0  0.31597  0.68684  0.15024  1.0000
  H   H482      1.0  0.07768  0.52622  0.01025  1.0000
  C   C402      1.0  0.33614  0.56787  0.43362  1.0000
  H   H483      1.0  0.15921  0.56601  0.29198  1.0000
  C   C403      1.0  0.33585  0.68627  0.16549  1.0000
  H   H484      1.0  0.21522  0.59425  0.29995  1.0000
  H   H485      1.0  0.32589  0.71623  0.12482  1.0000
  N   N28       1.0  0.34919  0.55847  0.41187  1.0000
  H   H486      1.0  0.27756  0.52682  0.40217  1.0000
  C   C404      1.0  0.17256  0.48350  0.12579  1.0000
  S   S114      1.0  0.16702  0.48852  0.99366  1.0000
  H   H487      1.0  0.21445  0.50039  0.44512  1.0000
  H   H488      1.0  0.25204  0.52004  0.43968  1.0000
  C   C405      1.0  0.32917  0.52405  0.33754  1.0000
  H   H489      1.0  0.31743  0.66236  0.22436  1.0000
  H   H490      1.0  0.44140  0.55052  0.97875  1.0000
  H   H491      1.0  0.33203  0.52585  0.41611  1.0000
  H   H492      1.0  0.28445  0.48361  0.41208  1.0000
  H   H493      1.0  0.23976  0.51935  0.16043  1.0000
  C   C406      1.0  0.18121  0.59910  0.26879  1.0000
  H   H494      1.0  0.17499  0.64452  0.27462  1.0000
  C   C407      1.0  0.30159  0.50372  0.36717  1.0000
  C   C408      1.0  0.34439  0.66537  0.17926  1.0000
  C   C409      1.0  0.10085  0.59312  0.01080  1.0000
  C   C410      1.0  0.33804  0.58215  0.34771  1.0000
  C   C411      1.0  0.36330  0.66555  0.19336  1.0000
  H   H495      1.0  0.42467  0.59374  0.29366  1.0000
  Fe  Fe56      1.0  0.12196  0.49947  0.45107  1.0000
  C   C412      1.0  0.14802  0.56604  0.35167  1.0000
  C   C413      1.0  0.46745  0.63224  0.28995  1.0000
  C   C414      1.0  0.42913  0.65342  0.28342  1.0000
  H   H496      1.0  0.20634  0.62165  0.31270  1.0000
  C   C415      1.0  0.31333  0.58386  0.34889  1.0000
  H   H497      1.0  0.29433  0.66362  0.13556  1.0000
  S   S115      1.0  0.47205  0.47803  0.17113  1.0000
  H   H498      1.0  0.33211  0.58750  0.43099  1.0000
  N   N29       1.0  0.22827  0.48450  0.15793  1.0000
  H   H499      1.0  0.33207  0.53699  0.32231  1.0000
  C   C416      1.0  0.30414  0.67730  0.22617  1.0000
  Fe  Fe57      1.0  0.15300  0.49039  0.40473  1.0000
  H   H500      1.0  0.45953  0.54473  0.38630  1.0000
  C   C417      1.0  0.31197  0.56832  0.39045  1.0000
  H   H501      1.0  0.36826  0.47791  0.17148  1.0000
  C   C418      1.0  0.14868  0.55903  0.32867  1.0000
  H   H502      1.0  0.33665  0.64866  0.17973  1.0000
  C   C419      1.0  0.19284  0.51499  0.15126  1.0000
  C   C420      1.0  0.37429  0.68634  0.19410  1.0000
  H   H503      1.0  0.32314  0.65049  0.14148  1.0000
  C   C421      1.0  0.16773  0.60095  0.33600  1.0000
  C   C422      1.0  0.24635  0.47977  0.13777  1.0000
  C   C423      1.0  0.15751  0.58697  0.35534  1.0000
  C   C424      1.0  0.15898  0.57279  0.30919  1.0000
  H   H504      1.0  0.19966  0.52803  0.16084  1.0000
  H   H505      1.0  0.16227  0.53925  0.14359  1.0000
  H   H506      1.0  0.36904  0.57252  0.36563  1.0000
  H   H507      1.0  0.27517  0.65522  0.23037  1.0000
  H   H508      1.0  0.30108  0.56259  0.40632  1.0000
  H   H509      1.0  0.36644  0.51342  0.33938  1.0000
  C   C425      1.0  0.05380  0.67315  0.00261  1.0000
  H   H510      1.0  0.25259  0.70280  0.98320  1.0000
  H   H511      1.0  0.07587  0.57677  0.03667  1.0000
  C   C426      1.0  0.34711  0.70720  0.16716  1.0000
  N   N30       1.0  0.18035  0.60915  0.29223  1.0000
  C   C427      1.0  0.16717  0.63304  0.29000  1.0000
  C   C428      1.0  0.20515  0.61192  0.29680  1.0000
  H   H512      1.0  0.16746  0.64269  0.30615  1.0000
  H   H513      1.0  0.17496  0.61695  0.33981  1.0000
  C   C429      1.0  0.33711  0.56722  0.39017  1.0000
  H   H514      1.0  0.40731  0.49597  0.38175  1.0000
  H   H515      1.0  0.31632  0.70175  0.29462  1.0000
  S   S116      1.0  0.11446  0.48513  0.41698  1.0000
  H   H516      1.0  0.30013  0.65506  0.16570  1.0000
  H   H517      1.0  0.45788  0.71504  0.27711  1.0000
  C   C430      1.0  0.06427  0.63040  0.00410  1.0000
  H   H518      1.0  0.39932  0.47458  0.04565  1.0000
  C   C431      1.0  0.26974  0.71508  0.23339  1.0000
  H   H519      1.0  0.06006  0.67336  0.02065  1.0000
  H   H520      1.0  0.02687  0.64701  0.03492  1.0000
  C   C432      1.0  0.24753  0.48481  0.24297  1.0000
  C   C433      1.0  0.02329  0.64732  0.01588  1.0000
  H   H521      1.0  0.35998  0.48397  0.37408  1.0000
  C   C434      1.0  0.45697  0.61074  0.29303  1.0000
  H   H522      1.0  0.25631  0.47853  0.40338  1.0000
  H   H523      1.0  0.36752  0.48186  0.13960  1.0000
  H   H524      1.0  0.47171  0.52604  0.02635  1.0000
  C   C435      1.0  0.10472  0.61235  0.99405  1.0000
  H   H525      1.0  0.38552  0.49921  0.15441  1.0000
  S   S117      1.0  0.36393  0.47944  0.46491  1.0000
  H   H526      1.0  0.46599  0.67765  0.32024  1.0000
  H   H527      1.0  0.45827  0.49827  0.21564  1.0000
  H   H528      1.0  0.26979  0.48027  0.34900  1.0000
  C   C436      1.0  0.27152  0.49268  0.46099  1.0000
  H   H529      1.0  0.24358  0.49274  0.36567  1.0000
  H   H530      1.0  0.29946  0.72053  0.16134  1.0000
  C   C437      1.0  0.29390  0.72008  0.22916  1.0000
  S   S118      1.0  0.09176  0.52307  0.46830  1.0000
  H   H531      1.0  0.09050  0.64507  0.97720  1.0000
  C   C438      1.0  0.01779  0.51833  0.46245  1.0000
  H   H532      1.0  0.03240  0.63254  0.97200  1.0000
  H   H533      1.0  0.46781  0.59421  0.29692  1.0000
  C   C439      1.0  0.03334  0.49796  0.46653  1.0000
  H   H534      1.0  0.25812  0.72069  0.02047  1.0000
  H   H535      1.0  0.45611  0.72256  0.97437  1.0000
  H   H536      1.0  0.12155  0.61261  0.98323  1.0000
  H   H537      1.0  0.32029  0.47773  0.39199  1.0000
  H   H538      1.0  0.42902  0.70822  0.97919  1.0000
  C   C440      1.0  0.47170  0.48777  0.46461  1.0000
  H   H539      1.0  0.40510  0.47313  0.11334  1.0000
  H   H540      1.0  0.47399  0.67590  0.24442  1.0000
  H   H541      1.0  0.00085  0.56473  0.59557  1.0000
  Fe  Fe58      1.0  0.01463  0.50651  0.59035  1.0000
  S   S119      1.0  0.05379  0.50719  0.57807  1.0000
  H   H542      1.0  0.31929  0.65868  0.89269  1.0000
  S   S120      1.0  0.13819  0.48457  0.94624  1.0000
  H   H543      1.0  0.46913  0.48960  0.48416  1.0000
  Fe  Fe59      1.0  0.33480  0.49221  0.94318  1.0000
  Fe  Fe60      1.0  0.29963  0.59724  0.67237  1.0000
  S   S121      1.0  0.26964  0.57605  0.68803  1.0000
  S   S122      1.0  0.31913  0.59275  0.63528  1.0000
  Fe  Fe61      1.0  0.29670  0.62571  0.71743  1.0000
  S   S123      1.0  0.26725  0.60548  0.73599  1.0000
  S   S124      1.0  0.30676  0.65887  0.73228  1.0000
  Fe  Fe62      1.0  0.28791  0.57309  0.72185  1.0000
  S   S125      1.0  0.29664  0.53845  0.74431  1.0000
  Fe  Fe63      1.0  0.25206  0.61078  0.70044  1.0000
  S   S126      1.0  0.21302  0.62327  0.69899  1.0000
  S   S127      1.0  0.31891  0.59303  0.70582  1.0000
  S   S128      1.0  0.28062  0.63228  0.68222  1.0000
  Fe  Fe64      1.0  0.34517  0.50268  0.52790  1.0000
  H   H544      1.0  0.41925  0.48644  0.95885  1.0000
  S   S129      1.0  0.32811  0.50883  0.56581  1.0000
  C   C441      1.0  0.99550  0.63108  0.62960  1.0000
  C   C442      1.0  0.04823  0.56849  0.59116  1.0000
  C   C443      1.0  0.33793  0.49266  0.63839  1.0000
  S   S130      1.0  0.98549  0.52536  0.56991  1.0000
  H   H545      1.0  0.00568  0.63125  0.83147  1.0000
  S   S131      1.0  0.34301  0.52632  0.49345  1.0000
  S   S132      1.0  0.38271  0.48758  0.51725  1.0000
  S   S133      1.0  0.39663  0.54918  0.91785  1.0000
  S   S134      1.0  0.31960  0.67244  0.84085  1.0000
  C   C444      1.0  0.29950  0.52913  0.80726  1.0000
  C   C445      1.0  0.42715  0.55360  0.91867  1.0000
  C   C446      1.0  0.43327  0.57574  0.92424  1.0000
  C   C447      1.0  0.45724  0.58011  0.92475  1.0000
  H   H546      1.0  0.31569  0.52704  0.69641  1.0000
  C   C448      1.0  0.00690  0.62552  0.65041  1.0000
  C   C449      1.0  0.44533  0.53585  0.91357  1.0000
  H   H547      1.0  0.41938  0.58960  0.92818  1.0000
  H   H548      1.0  0.46166  0.59726  0.92893  1.0000
  H   H549      1.0  0.44094  0.51874  0.90924  1.0000
  C   C450      1.0  0.30881  0.66205  0.76291  1.0000
  C   C451      1.0  0.30923  0.68498  0.77016  1.0000
  C   C452      1.0  0.31170  0.68841  0.79412  1.0000
  C   C453      1.0  0.31445  0.66882  0.81099  1.0000
  C   C454      1.0  0.31398  0.64583  0.80381  1.0000
  C   C455      1.0  0.31087  0.64245  0.77992  1.0000
  H   H550      1.0  0.30786  0.70017  0.75707  1.0000
  H   H551      1.0  0.34808  0.49734  0.70787  1.0000
  H   H552      1.0  0.31618  0.63055  0.81669  1.0000
  H   H553      1.0  0.31071  0.62470  0.77452  1.0000
  C   C456      1.0  0.28561  0.51228  0.73706  1.0000
  C   C457      1.0  0.29426  0.49014  0.74777  1.0000
  C   C458      1.0  0.26848  0.51314  0.72076  1.0000
  H   H554      1.0  0.30773  0.48924  0.76018  1.0000
  H   H555      1.0  0.26156  0.53004  0.71250  1.0000
  C   C459      1.0  0.32037  0.56988  0.61552  1.0000
  C   C460      1.0  0.30652  0.55059  0.62020  1.0000
  C   C461      1.0  0.30868  0.53253  0.60441  1.0000
  C   C462      1.0  0.32473  0.53336  0.58376  1.0000
  C   C463      1.0  0.33823  0.55290  0.57881  1.0000
  C   C464      1.0  0.33602  0.57101  0.59460  1.0000
  H   H556      1.0  0.29422  0.54948  0.63603  1.0000
  H   H557      1.0  0.29803  0.51760  0.60840  1.0000
  H   H558      1.0  0.35068  0.55386  0.56306  1.0000
  H   H559      1.0  0.34680  0.58586  0.59069  1.0000
  Fe  Fe65      1.0  0.38081  0.51332  0.92205  1.0000
  H   H560      1.0  0.29525  0.63323  0.87430  1.0000
  H   H561      1.0  0.97654  0.52808  0.83852  1.0000
  H   H562      1.0  0.24638  0.68906  0.72238  1.0000
  C   C465      1.0  0.43079  0.68087  0.86660  1.0000
  H   H563      1.0  0.01343  0.56638  0.56500  1.0000
  C   C466      1.0  0.18792  0.70315  0.69302  1.0000
  C   C467      1.0  0.17302  0.68649  0.70447  1.0000
  C   C468      1.0  0.18094  0.66208  0.70635  1.0000
  C   C469      1.0  0.20402  0.65418  0.69741  1.0000
  C   C470      1.0  0.21910  0.67093  0.68647  1.0000
  C   C471      1.0  0.21098  0.69524  0.68404  1.0000
  H   H564      1.0  0.15517  0.69231  0.71135  1.0000
  H   H565      1.0  0.16909  0.64927  0.71471  1.0000
  H   H566      1.0  0.23681  0.66514  0.67928  1.0000
  N   N31       1.0  0.34619  0.51595  0.67266  1.0000
  Fe  Fe66      1.0  0.97958  0.48542  0.62905  1.0000
  C   C472      1.0  0.41506  0.70007  0.85769  1.0000
  H   H567      1.0  0.03111  0.54703  0.88312  1.0000
  H   H568      1.0  0.03023  0.69289  0.73863  1.0000
  H   H569      1.0  0.25653  0.67612  0.75012  1.0000
  C   C473      1.0  0.27191  0.64401  0.93044  1.0000
  C   C474      1.0  0.97523  0.55058  0.72948  1.0000
  S   S135      1.0  0.36783  0.49948  0.95919  1.0000
  C   C475      1.0  0.08108  0.51741  0.49868  1.0000
  C   C476      1.0  0.05819  0.52688  0.50655  1.0000
  C   C477      1.0  0.04923  0.52300  0.53062  1.0000
  C   C478      1.0  0.06348  0.51034  0.54726  1.0000
  C   C479      1.0  0.45473  0.48372  0.96935  1.0000
  C   C480      1.0  0.09508  0.50416  0.51520  1.0000
  H   H570      1.0  0.04731  0.53732  0.49398  1.0000
  H   H571      1.0  0.03156  0.53035  0.53635  1.0000
  S   S136      1.0  0.32276  0.71632  0.88961  1.0000
  C   C481      1.0  0.23154  0.47319  0.94269  1.0000
  H   H572      1.0  0.05400  0.65304  0.96130  1.0000
  H   H573      1.0  0.25836  0.63099  0.93217  1.0000
  H   H574      1.0  0.03398  0.60303  0.66761  1.0000
  H   H575      1.0  0.02917  0.69425  0.86813  1.0000
  C   C482      1.0  0.02539  0.60750  0.65124  1.0000
  H   H576      1.0  0.98058  0.64459  0.62931  1.0000
  H   H577      1.0  0.98647  0.69787  0.97079  1.0000
  N   N32       1.0  0.29635  0.51352  0.82987  1.0000
  H   H578      1.0  0.04280  0.55433  0.60518  1.0000
  H   H579      1.0  0.43065  0.66295  0.86174  1.0000
  H   H580      1.0  0.33151  0.52059  0.83758  1.0000
  H   H581      1.0  0.00829  0.49118  0.67008  1.0000
  H   H582      1.0  0.02458  0.66414  0.97074  1.0000
  H   H583      1.0  0.26213  0.66184  0.92668  1.0000
  C   C483      1.0  0.00774  0.49160  0.70819  1.0000
  H   H584      1.0  0.39376  0.65965  0.84954  1.0000
  C   C484      1.0  0.08645  0.50100  0.53944  1.0000
  H   H585      1.0  0.03399  0.62704  0.88667  1.0000
  C   C485      1.0  0.34361  0.59280  0.92422  1.0000
  C   C486      1.0  0.02362  0.48815  0.89021  1.0000
  C   C487      1.0  0.40115  0.71326  0.81885  1.0000
  C   C488      1.0  0.43282  0.49573  0.96510  1.0000
  S   S137      1.0  0.06826  0.72045  0.74548  1.0000
  C   C489      1.0  0.07689  0.56970  0.96437  1.0000
  C   C490      1.0  0.00403  0.48182  0.49617  1.0000
  C   C491      1.0  0.44748  0.68440  0.88231  1.0000
  H   H586      1.0  0.31211  0.70620  0.79933  1.0000
  H   H587      1.0  0.05682  0.63991  0.86670  1.0000
  H   H588      1.0  0.34197  0.55574  0.93602  1.0000
  N   N33       1.0  0.23345  0.70840  0.75307  1.0000
  H   H589      1.0  0.29247  0.54417  0.85015  1.0000
  C   C492      1.0  0.28318  0.49265  0.82765  1.0000
  H   H590      1.0  0.33010  0.49292  0.82501  1.0000
  H   H591      1.0  0.22261  0.70798  0.67511  1.0000
  H   H592      1.0  0.37232  0.48941  0.68637  1.0000
  C   C493      1.0  0.39772  0.67258  0.83384  1.0000
  C   C494      1.0  0.44904  0.70692  0.88956  1.0000
  H   H593      1.0  0.02168  0.50349  0.70704  1.0000
  H   H594      1.0  0.02288  0.61888  0.56313  1.0000
  C   C495      1.0  0.25099  0.49939  0.96451  1.0000
  C   C496      1.0  0.02694  0.47906  0.48369  1.0000
  H   H595      1.0  0.07626  0.48803  0.94427  1.0000
  C   C497      1.0  0.99709  0.71240  0.96454  1.0000
  Fe  Fe67      1.0  0.32831  0.49576  0.47903  1.0000
  N   N34       1.0  0.02130  0.64983  0.85680  1.0000
  H   H596      1.0  0.98031  0.57040  0.84423  1.0000
  H   H597      1.0  0.41114  0.52886  0.96575  1.0000
  H   H598      1.0  0.37168  0.54199  0.66288  1.0000
  C   C498      1.0  0.02945  0.66995  0.84033  1.0000
  C   C499      1.0  0.03287  0.69179  0.84930  1.0000
  H   H599      1.0  0.38870  0.71073  0.80542  1.0000
  C   C500      1.0  0.33385  0.49786  0.66266  1.0000
  H   H600      1.0  0.30907  0.51912  0.79267  1.0000
  H   H601      1.0  0.31415  0.66237  0.92445  1.0000
  H   H602      1.0  0.98939  0.70404  0.72660  1.0000
  C   C501      1.0  0.03401  0.50130  0.92771  1.0000
  C   C502      1.0  0.00113  0.71769  0.72783  1.0000
  H   H603      1.0  0.21653  0.71778  0.78720  1.0000
  H   H604      1.0  0.99813  0.67173  0.88028  1.0000
  H   H605      1.0  0.97703  0.71984  0.87906  1.0000
  C   C503      1.0  0.03538  0.52440  0.91568  1.0000
  N   N35       1.0  0.29143  0.63899  0.91160  1.0000
  H   H606      1.0  0.37041  0.51726  0.69961  1.0000
  Fe  Fe68      1.0  0.98991  0.65705  0.93877  1.0000
  C   C504      1.0  0.30558  0.61638  0.91838  1.0000
  H   H607      1.0  0.06849  0.51870  0.94910  1.0000
  C   C505      1.0  0.33080  0.61449  0.91791  1.0000
  C   C506      1.0  0.29424  0.59514  0.92498  1.0000
  S   S138      1.0  0.26703  0.71545  0.93402  1.0000
  C   C507      1.0  0.33187  0.57246  0.93109  1.0000
  H   H608      1.0  0.03645  0.62121  0.83591  1.0000
  H   H609      1.0  0.99081  0.64197  0.88100  1.0000
  H   H610      1.0  0.00091  0.63484  0.66609  1.0000
  S   S139      1.0  0.01267  0.48237  0.82383  1.0000
  H   H611      1.0  0.04011  0.53897  0.92469  1.0000
  H   H612      1.0  0.29828  0.55757  0.93674  1.0000
  S   S140      1.0  0.00638  0.49340  0.75629  1.0000
  C   C508      1.0  0.27319  0.49175  0.95336  1.0000
  C   C509      1.0  0.02427  0.71142  0.73456  1.0000
  H   H613      1.0  0.36285  0.59161  0.92370  1.0000
  C   C510      1.0  0.23024  0.49024  0.95912  1.0000
  H   H614      1.0  0.08844  0.57733  0.94986  1.0000
  H   H615      1.0  0.31009  0.54424  0.80916  1.0000
  H   H616      1.0  0.29412  0.67668  0.90392  1.0000
  H   H617      1.0  0.27523  0.59496  0.92513  1.0000
  H   H618      1.0  0.04674  0.59451  0.95664  1.0000
  N   N36       1.0  0.23960  0.60091  0.62045  1.0000
  C   C511      1.0  0.21623  0.61362  0.61557  1.0000
  C   C512      1.0  0.25132  0.61488  0.63600  1.0000
  C   C513      1.0  0.25463  0.60031  0.59741  1.0000
  C   C514      1.0  0.23610  0.57701  0.63269  1.0000
  C   C515      1.0  0.22219  0.57464  0.65494  1.0000
  C   C516      1.0  0.24632  0.55559  0.62324  1.0000
  C   C517      1.0  0.21926  0.55237  0.66727  1.0000
  C   C518      1.0  0.24327  0.53339  0.63574  1.0000
  C   C519      1.0  0.22985  0.53179  0.65773  1.0000
  H   H619      1.0  0.20493  0.61723  0.63230  1.0000
  H   H620      1.0  0.21822  0.63128  0.60544  1.0000
  H   H621      1.0  0.20621  0.60306  0.60504  1.0000
  H   H622      1.0  0.24042  0.61791  0.65305  1.0000
  H   H623      1.0  0.25485  0.63281  0.62727  1.0000
  H   H624      1.0  0.26870  0.60562  0.64051  1.0000
  H   H625      1.0  0.24661  0.59064  0.58443  1.0000
  H   H626      1.0  0.25705  0.61852  0.58876  1.0000
  H   H627      1.0  0.27285  0.59178  0.60007  1.0000
  H   H628      1.0  0.21383  0.59007  0.66328  1.0000
  H   H629      1.0  0.25710  0.55545  0.60640  1.0000
  H   H630      1.0  0.20895  0.55116  0.68450  1.0000
  H   H631      1.0  0.25156  0.51732  0.62839  1.0000
  H   H632      1.0  0.22769  0.51456  0.66744  1.0000
  H   H633      1.0  0.35908  0.70121  0.84039  1.0000
  H   H634      1.0  0.26894  0.62259  0.89042  1.0000
  C   C520      1.0  0.03841  0.64336  0.87514  1.0000
  H   H635      1.0  0.05318  0.55932  0.57456  1.0000
  H   H636      1.0  0.45944  0.66960  0.88890  1.0000
  C   C521      1.0  0.03059  0.52917  0.89180  1.0000
  S   S141      1.0  0.99869  0.51871  0.62582  1.0000
  H   H637      1.0  0.05471  0.72278  0.79845  1.0000
  H   H638      1.0  0.02745  0.53242  0.96294  1.0000
  H   H639      1.0  0.05212  0.61424  0.57326  1.0000
  C   C522      1.0  0.32621  0.47515  0.62973  1.0000
  C   C523      1.0  0.03719  0.60501  0.56817  1.0000
  C   C524      1.0  0.25990  0.49206  0.71541  1.0000
  C   C525      1.0  0.06418  0.50026  0.95520  1.0000
  H   H640      1.0  0.35370  0.53787  0.63984  1.0000
  H   H641      1.0  0.27272  0.50223  0.79123  1.0000
  C   C526      1.0  0.02485  0.51104  0.87908  1.0000
  C   C527      1.0  0.28105  0.63702  0.88887  1.0000
  H   H642      1.0  0.27068  0.65387  0.88278  1.0000
  H   H643      1.0  0.09766  0.49135  0.55222  1.0000
  C   C528      1.0  0.28046  0.47497  0.84709  1.0000
  H   H644      1.0  0.99289  0.62351  0.59396  1.0000
  H   H645      1.0  0.34979  0.50209  0.62552  1.0000
  H   H646      1.0  0.31820  0.54397  0.66803  1.0000
  Fe  Fe69      1.0  0.31015  0.70865  0.85486  1.0000
  C   C529      1.0  0.01911  0.62807  0.84478  1.0000
  H   H647      1.0  0.04352  0.59605  0.55172  1.0000
  H   H648      1.0  0.31338  0.48729  0.69618  1.0000
  C   C530      1.0  0.46932  0.54035  0.91373  1.0000
  C   C531      1.0  0.98866  0.50228  0.49198  1.0000
  H   H649      1.0  0.46217  0.70948  0.90156  1.0000
  Fe  Fe70      1.0  0.37882  0.50829  0.48134  1.0000
  H   H650      1.0  0.04692  0.58111  0.63322  1.0000
  C   C532      1.0  0.02812  0.48320  0.91415  1.0000
  H   H651      1.0  0.19813  0.71108  0.74126  1.0000
  C   C533      1.0  0.03483  0.66842  0.81536  1.0000
  H   H652      1.0  0.41961  0.71005  0.81046  1.0000
  H   H653      1.0  0.37742  0.51555  0.64754  1.0000
  H   H654      1.0  0.22648  0.67392  0.74329  1.0000
  S   S142      1.0  0.34631  0.50900  0.90688  1.0000
  H   H655      1.0  0.03288  0.65260  0.80681  1.0000
  C   C534      1.0  0.00833  0.57686  0.58067  1.0000
  C   C535      1.0  0.32857  0.53443  0.68227  1.0000
  H   H656      1.0  0.03854  0.65754  0.88741  1.0000
  H   H657      1.0  0.01891  0.47415  0.88023  1.0000
  H   H658      1.0  0.04831  0.68574  0.78165  1.0000
  H   H659      1.0  0.24660  0.49284  0.70285  1.0000
  S   S143      1.0  0.29870  0.50359  0.96102  1.0000
  C   C536      1.0  0.28335  0.52804  0.84822  1.0000
  C   C537      1.0  0.00002  0.48484  0.68724  1.0000
  H   H660      1.0  0.36949  0.69218  0.86924  1.0000
  H   H661      1.0  0.23767  0.69161  0.78849  1.0000
  C   C538      1.0  0.35985  0.50446  0.69244  1.0000
  H   H662      1.0  0.28222  0.53724  0.80116  1.0000
  C   C539      1.0  0.24102  0.68598  0.74178  1.0000
  N   N37       1.0  0.02883  0.58780  0.58794  1.0000
  N   N38       1.0  0.39720  0.69719  0.84097  1.0000
  H   H663      1.0  0.38396  0.67108  0.82137  1.0000
  C   C540      1.0  0.04368  0.68741  0.80058  1.0000
  C   C541      1.0  0.99768  0.65691  0.86890  1.0000
  C   C542      1.0  0.02147  0.60035  0.60964  1.0000
  H   H664      1.0  0.20887  0.69033  0.77852  1.0000
  H   H665      1.0  0.26498  0.53396  0.84350  1.0000
  C   C543      1.0  0.21384  0.72155  0.74038  1.0000
  S   S144      1.0  0.01152  0.68791  0.92485  1.0000
  C   C544      1.0  0.03266  0.59500  0.63123  1.0000
  S   S145      1.0  0.00557  0.62004  0.93246  1.0000
  H   H666      1.0  0.27901  0.64397  0.94815  1.0000
  C   C545      1.0  0.27238  0.48940  0.80666  1.0000
  C   C546      1.0  0.04731  0.70838  0.81004  1.0000
  H   H667      1.0  0.01305  0.61328  0.85773  1.0000
  C   C547      1.0  0.30554  0.65995  0.90808  1.0000
  C   C548      1.0  0.04173  0.71065  0.83433  1.0000
  H   H668      1.0  0.99352  0.59011  0.57561  1.0000
  C   C549      1.0  0.00262  0.61875  0.60950  1.0000
  C   C550      1.0  0.22380  0.70178  0.77798  1.0000
  H   H669      1.0  0.98466  0.68476  0.79610  1.0000
  C   C551      1.0  0.36300  0.52824  0.65490  1.0000
  C   C552      1.0  0.37307  0.70351  0.85229  1.0000
  H   H670      1.0  0.06473  0.57538  0.59574  1.0000
  H   H671      1.0  0.34112  0.62942  0.91263  1.0000
  C   C553      1.0  0.30725  0.57359  0.93143  1.0000
  C   C554      1.0  0.99553  0.52052  0.47519  1.0000
  H   H672      1.0  0.02106  0.51478  0.86061  1.0000
  H   H673      1.0  0.41520  0.66680  0.82452  1.0000
  H   H674      1.0  0.11284  0.49700  0.50946  1.0000
  H   H675      1.0  0.98438  0.66246  0.85577  1.0000
  H   H676      1.0  0.33732  0.54795  0.69041  1.0000
  C   C555      1.0  0.99748  0.48313  0.73058  1.0000
  C   C556      1.0  0.32042  0.50550  0.83731  1.0000
  C   C557      1.0  0.01078  0.71212  0.94259  1.0000
  H   H677      1.0  0.28186  0.51796  0.86615  1.0000
  H   H678      1.0  0.31997  0.49628  0.85561  1.0000
  H   H679      1.0  0.98370  0.53349  0.72342  1.0000
  N   N39       1.0  0.03895  0.49680  0.95310  1.0000
  C   C558      1.0  0.41704  0.72274  0.86565  1.0000
  S   S146      1.0  0.39721  0.47778  0.91164  1.0000
  H   H680      1.0  0.98337  0.55290  0.74617  1.0000
  C   C559      1.0  0.27453  0.47492  0.93663  1.0000
  C   C560      1.0  0.42829  0.51962  0.96909  1.0000
  H   H681      1.0  0.00443  0.51267  0.96522  1.0000
  S   S147      1.0  0.27196  0.71935  0.86559  1.0000
  C   C561      1.0  0.31743  0.48442  0.67753  1.0000
  H   H682      1.0  0.98060  0.56486  0.71570  1.0000
  H   H683      1.0  0.21326  0.49644  0.96771  1.0000
  C   C562      1.0  0.05325  0.57958  0.96828  1.0000
  Fe  Fe71      1.0  0.98920  0.60989  0.96918  1.0000
  C   C563      1.0  0.02353  0.51366  0.96764  1.0000
  H   H684      1.0  0.28779  0.47635  0.86380  1.0000
  H   H685      1.0  0.37044  0.72236  0.85652  1.0000
  H   H686      1.0  0.98362  0.53642  0.47216  1.0000
  S   S148      1.0  0.45675  0.87295  0.03297  1.0000
  Fe  Fe72      1.0  0.38160  0.75276  0.25645  1.0000
  S   S149      1.0  0.39764  0.73931  0.22225  1.0000
  Fe  Fe73      1.0  0.40598  0.79974  0.24634  1.0000
  S   S150      1.0  0.42287  0.78904  0.21060  1.0000
  S   S151      1.0  0.40975  0.83734  0.25727  1.0000
  Fe  Fe74      1.0  0.38763  0.77586  0.20524  1.0000
  S   S152      1.0  0.37327  0.77520  0.16883  1.0000
  Fe  Fe75      1.0  0.43106  0.75348  0.23064  1.0000
  H   H687      1.0  0.19811  0.76487  0.03432  1.0000
  S   S153      1.0  0.36983  0.78910  0.23931  1.0000
  S   S154      1.0  0.41595  0.76437  0.26665  1.0000
  H   H688      1.0  0.33412  0.79977  0.08892  1.0000
  H   H689      1.0  0.18883  0.73588  0.01280  1.0000
  H   H690      1.0  0.40649  0.74861  0.01748  1.0000
  C   C564      1.0  0.29680  0.75103  0.25481  1.0000
  H   H691      1.0  0.44042  0.90464  0.29025  1.0000
  H   H692      1.0  0.27786  0.75110  0.26196  1.0000
  C   C565      1.0  0.21000  0.77258  0.01932  1.0000
  S   S155      1.0  0.45236  0.82183  0.99234  1.0000
  S   S156      1.0  0.22040  0.74751  0.12293  1.0000
  Fe  Fe76      1.0  0.25929  0.75327  0.06266  1.0000
  S   S157      1.0  0.23802  0.78464  0.07813  1.0000
  S   S158      1.0  0.28274  0.76146  0.02852  1.0000
  Fe  Fe77      1.0  0.25191  0.76899  0.11300  1.0000
  S   S159      1.0  0.26630  0.78921  0.14066  1.0000
  Fe  Fe78      1.0  0.20872  0.76019  0.08616  1.0000
  S   S160      1.0  0.16921  0.76665  0.07907  1.0000
  C   C566      1.0  0.34050  0.80504  0.07059  1.0000
  H   H693      1.0  0.32726  0.80102  0.01398  1.0000
  C   C567      1.0  0.99688  0.73171  0.97840  1.0000
  S   S161      1.0  0.03950  0.82450  0.01125  1.0000
  C   C568      1.0  0.46578  0.90696  0.18680  1.0000
  H   H694      1.0  0.18042  0.80080  0.99211  1.0000
  H   H695      1.0  0.33261  0.75159  0.00781  1.0000
  C   C569      1.0  0.35621  0.74977  0.97570  1.0000
  S   S162      1.0  0.11020  0.83155  0.00167  1.0000
  C   C570      1.0  0.45599  0.92115  0.01778  1.0000
  H   H696      1.0  0.46682  0.93882  0.08036  1.0000
  H   H697      1.0  0.22837  0.76459  0.02194  1.0000
  C   C571      1.0  0.35663  0.81872  0.02336  1.0000
  S   S163      1.0  0.00257  0.88775  0.01504  1.0000
  S   S164      1.0  0.00867  0.77510  0.98844  1.0000
  C   C572      1.0  0.45985  0.95188  0.04443  1.0000
  H   H698      1.0  0.26660  0.76332  0.22168  1.0000
  C   C573      1.0  0.15318  0.78500  0.05745  1.0000
  C   C574      1.0  0.13101  0.77860  0.05225  1.0000
  C   C575      1.0  0.11755  0.79259  0.03537  1.0000
  C   C576      1.0  0.12599  0.81338  0.02359  1.0000
  C   C577      1.0  0.14791  0.82006  0.02916  1.0000
  C   C578      1.0  0.16145  0.80599  0.04592  1.0000
  H   H699      1.0  0.12425  0.76259  0.06127  1.0000
  H   H700      1.0  0.10070  0.78721  0.03143  1.0000
  H   H701      1.0  0.15450  0.83626  0.02042  1.0000
  H   H702      1.0  0.17809  0.81157  0.05018  1.0000
  H   H703      1.0  0.19121  0.73741  0.98125  1.0000
  C   C579      1.0  0.27929  0.74766  0.00256  1.0000
  Fe  Fe79      1.0  0.07308  0.83188  0.98836  1.0000
  H   H704      1.0  0.43611  0.76840  0.99546  1.0000
  H   H705      1.0  0.39999  0.83216  0.00070  1.0000
  N   N40       1.0  0.39026  0.83905  0.03750  1.0000
  C   C580      1.0  0.34353  0.77991  0.16104  1.0000
  C   C581      1.0  0.33756  0.76993  0.14084  1.0000
  C   C582      1.0  0.31402  0.77246  0.13442  1.0000
  C   C583      1.0  0.29635  0.78592  0.14757  1.0000
  C   C584      1.0  0.30262  0.79698  0.16697  1.0000
  C   C585      1.0  0.32597  0.79364  0.17399  1.0000
  H   H706      1.0  0.35120  0.75988  0.13028  1.0000
  H   H707      1.0  0.30964  0.76436  0.11909  1.0000
  H   H708      1.0  0.28922  0.80800  0.17680  1.0000
  H   H709      1.0  0.33049  0.80214  0.18906  1.0000
  C   C586      1.0  0.43055  0.85017  0.27303  1.0000
  C   C587      1.0  0.42714  0.87466  0.27627  1.0000
  C   C588      1.0  0.44347  0.88587  0.28783  1.0000
  C   C589      1.0  0.46345  0.87269  0.29658  1.0000
  H   H710      1.0  0.33831  0.73707  0.23288  1.0000
  C   C590      1.0  0.45065  0.83705  0.28156  1.0000
  H   H711      1.0  0.41167  0.88506  0.26986  1.0000
  C   C591      1.0  0.45919  0.90336  0.03648  1.0000
  H   H712      1.0  0.42666  0.90336  0.21483  1.0000
  H   H713      1.0  0.45365  0.81825  0.27925  1.0000
  H   H714      1.0  0.42699  0.88172  0.19340  1.0000
  C   C592      1.0  0.43513  0.76750  0.97604  1.0000
  C   C593      1.0  0.38693  0.86051  0.05099  1.0000
  H   H715      1.0  0.45790  0.84172  0.22787  1.0000
  C   C594      1.0  0.20006  0.74218  0.99654  1.0000
  H   H716      1.0  0.32989  0.74232  0.20257  1.0000
  H   H717      1.0  0.10629  0.88132  0.12159  1.0000
  C   C595      1.0  0.17946  0.78127  0.99224  1.0000
  H   H718      1.0  0.45280  0.95895  0.00747  1.0000
  H   H719      1.0  0.30719  0.73813  0.26679  1.0000
  H   H720      1.0  0.31295  0.78924  0.05569  1.0000
  N   N41       1.0  0.05746  0.87270  0.06084  1.0000
  C   C596      1.0  0.04452  0.89590  0.06619  1.0000
  C   C597      1.0  0.06651  0.87489  0.03526  1.0000
  C   C598      1.0  0.04003  0.85455  0.06469  1.0000
  C   C599      1.0  0.07745  0.86523  0.07568  1.0000
  C   C600      1.0  0.08314  0.87862  0.09404  1.0000
  C   C601      1.0  0.09188  0.84377  0.07203  1.0000
  C   C602      1.0  0.10216  0.87086  0.10772  1.0000
  C   C603      1.0  0.11078  0.83617  0.08584  1.0000
  C   C604      1.0  0.11594  0.84970  0.10362  1.0000
  H   H721      1.0  0.05644  0.91056  0.06298  1.0000
  H   H722      1.0  0.02970  0.90088  0.05452  1.0000
  H   H723      1.0  0.03622  0.89532  0.08489  1.0000
  H   H724      1.0  0.07352  0.85751  0.02876  1.0000
  H   H725      1.0  0.08115  0.88682  0.03192  1.0000
  H   H726      1.0  0.98627  0.73171  0.99537  1.0000
  H   H727      1.0  0.03300  0.85220  0.08377  1.0000
  H   H728      1.0  0.02462  0.85957  0.05386  1.0000
  H   H729      1.0  0.04788  0.83686  0.05954  1.0000
  H   H730      1.0  0.07324  0.89515  0.09817  1.0000
  H   H731      1.0  0.08872  0.83268  0.05834  1.0000
  H   H732      1.0  0.21753  0.73162  0.99690  1.0000
  H   H733      1.0  0.12155  0.81971  0.08268  1.0000
  H   H734      1.0  0.13069  0.84372  0.11419  1.0000
  H   H735      1.0  0.16575  0.77592  0.00672  1.0000
  H   H736      1.0  0.29119  0.78012  0.21423  1.0000
  H   H737      1.0  0.38569  0.85608  0.07063  1.0000
  S   S165      1.0  0.27501  0.73948  0.09687  1.0000
  C   C605      1.0  0.28999  0.75665  0.98050  1.0000
  C   C606      1.0  0.32856  0.79908  0.05193  1.0000
  H   H738      1.0  0.25576  0.72886  0.23713  1.0000
  H   H739      1.0  0.33002  0.76627  0.22083  1.0000
  C   C607      1.0  0.28561  0.76178  0.21484  1.0000
  Fe  Fe80      1.0  0.02316  0.85894  0.99421  1.0000
  C   C608      1.0  0.36050  0.81788  0.06579  1.0000
  H   H740      1.0  0.30264  0.76893  0.25650  1.0000
  C   C609      1.0  0.36923  0.75026  0.01498  1.0000
  C   C610      1.0  0.33665  0.80582  0.02840  1.0000
  N   N42       1.0  0.30056  0.74459  0.22985  1.0000
  S   S166      1.0  0.35491  0.73071  0.27935  1.0000
  H   H741      1.0  0.46419  0.90751  0.23366  1.0000
  H   H742      1.0  0.40933  0.81829  0.06495  1.0000
  H   H743      1.0  0.28674  0.75675  0.19616  1.0000
  C   C611      1.0  0.35093  0.75061  0.00021  1.0000
  N   N43       1.0  0.46136  0.88630  0.20444  1.0000
  H   H744      1.0  0.37054  0.87181  0.04649  1.0000
  C   C612      1.0  0.32575  0.74751  0.22110  1.0000
  H   H745      1.0  0.41135  0.85797  0.00915  1.0000
  H   H746      1.0  0.36192  0.82323  0.00468  1.0000
  C   C613      1.0  0.45602  0.94530  0.02184  1.0000
  C   C614      1.0  0.26604  0.72804  0.00350  1.0000
  H   H747      1.0  0.38052  0.85887  0.00469  1.0000
  C   C615      1.0  0.36903  0.82543  0.04203  1.0000
  Fe  Fe81      1.0  0.02881  0.80819  0.97944  1.0000
  H   H748      1.0  0.42771  0.83336  0.04217  1.0000
  C   C616      1.0  0.39564  0.84732  0.01192  1.0000
  H   H749      1.0  0.05232  0.88217  0.02360  1.0000
  S   S167      1.0  0.22955  0.72944  0.06893  1.0000
  H   H750      1.0  0.36926  0.82180  0.08091  1.0000
  H   H751      1.0  0.40223  0.87167  0.04690  1.0000
  H   H752      1.0  0.41439  0.80746  0.03588  1.0000
  H   H753      1.0  0.36496  0.75113  0.03403  1.0000
  N   N44       1.0  0.20285  0.76805  0.99566  1.0000
  H   H754      1.0  0.34122  0.72385  0.15775  1.0000
  H   H755      1.0  0.30021  0.77188  0.97963  1.0000
  H   H756      1.0  0.45779  0.92407  0.19350  1.0000
  H   H757      1.0  0.23899  0.79892  0.99473  1.0000
  C   C617      1.0  0.41126  0.82385  0.04549  1.0000
  C   C618      1.0  0.43523  0.88599  0.20937  1.0000
  C   C619      1.0  0.39290  0.74879  0.00532  1.0000
  C   C620      1.0  0.46829  0.84172  0.21079  1.0000
  H   H758      1.0  0.45277  0.91635  0.00038  1.0000
  H   H759      1.0  0.43020  0.87256  0.22416  1.0000
  H   H760      1.0  0.46789  0.87624  0.24135  1.0000
  C   C621      1.0  0.39896  0.74764  0.98043  1.0000
  H   H761      1.0  0.20902  0.79188  0.02170  1.0000
  C   C622      1.0  0.23685  0.79220  0.97791  1.0000
  C   C623      1.0  0.46326  0.90995  0.05898  1.0000
  S   S168      1.0  0.46458  0.72914  0.22434  1.0000
  C   C624      1.0  0.46684  0.84820  0.29332  1.0000
  S   S169      1.0  0.47141  0.95864  0.31117  1.0000
  C   C625      1.0  0.46393  0.93404  0.06287  1.0000
  C   C626      1.0  0.22003  0.77573  0.97559  1.0000
  Fe  Fe82      1.0  0.46477  0.85730  0.99716  1.0000
  H   H762      1.0  0.45796  0.90545  0.16976  1.0000
  C   C627      1.0  0.43727  0.72465  0.98197  1.0000
  H   H763      1.0  0.17281  0.77813  0.97504  1.0000
  H   H764      1.0  0.46574  0.89634  0.07356  1.0000
  C   C628      1.0  0.47160  0.89033  0.22673  1.0000
  H   H765      1.0  0.37481  0.72332  0.18148  1.0000
  S   S170      1.0  0.05747  0.86795  0.97363  1.0000
  C   C629      1.0  0.47175  0.86319  0.19623  1.0000
  H   H766      1.0  0.43790  0.72527  0.00149  1.0000
  H   H767      1.0  0.41905  0.76089  0.93478  1.0000
  Fe  Fe83      1.0  0.09759  0.74538  0.73819  1.0000
  S   S171      1.0  0.10968  0.76220  0.70177  1.0000
  H   H768      1.0  0.25406  0.72767  0.78974  1.0000
  Fe  Fe84      1.0  0.13696  0.76461  0.76262  1.0000
  S   S172      1.0  0.15101  0.78372  0.72835  1.0000
  S   S173      1.0  0.15264  0.76168  0.79864  1.0000
  Fe  Fe85      1.0  0.11266  0.79452  0.72122  1.0000
  S   S174      1.0  0.10069  0.83355  0.70956  1.0000
  Fe  Fe86      1.0  0.14666  0.74980  0.71213  1.0000
  S   S175      1.0  0.09886  0.77808  0.75733  1.0000
  C   C630      1.0  0.28444  0.74447  0.72682  1.0000
  Fe  Fe87      1.0  0.01345  0.96150  0.59588  1.0000
  S   S176      1.0  0.00130  0.92615  0.58966  1.0000
  C   C631      1.0  0.99323  0.74162  0.72287  1.0000
  C   C632      1.0  0.25191  0.80030  0.95835  1.0000
  S   S177      1.0  0.02197  0.94980  0.63376  1.0000
  H   H769      1.0  0.97973  0.75028  0.79984  1.0000
  Fe  Fe88      1.0  0.00691  0.91551  0.62851  1.0000
  S   S178      1.0  0.02184  0.87713  0.63939  1.0000
  C   C633      1.0  0.11202  0.84132  0.63830  1.0000
  Fe  Fe89      1.0  0.44312  0.83678  0.95574  1.0000
  H   H770      1.0  0.09792  0.87499  0.73910  1.0000
  S   S179      1.0  0.40549  0.82794  0.94971  1.0000
  H   H771      1.0  0.03421  0.76560  0.94218  1.0000
  S   S180      1.0  0.17852  0.73394  0.68955  1.0000
  Fe  Fe90      1.0  0.27984  0.75575  0.84967  1.0000
  C   C634      1.0  0.03987  0.72895  0.73566  1.0000
  S   S181      1.0  0.25715  0.77657  0.82205  1.0000
  Fe  Fe91      1.0  0.32746  0.75337  0.87294  1.0000
  H   H772      1.0  0.03760  0.91853  0.81606  1.0000
  S   S182      1.0  0.36360  0.76779  0.87529  1.0000
  H   H773      1.0  0.13223  0.86810  0.64838  1.0000
  H   H774      1.0  0.45364  0.76802  0.96773  1.0000
  H   H775      1.0  0.03809  0.95973  0.72286  1.0000
  S   S183      1.0  0.31786  0.74444  0.83702  1.0000
  S   S184      1.0  0.28993  0.76778  0.88421  1.0000
  S   S185      1.0  0.04481  0.86535  0.90588  1.0000
  H   H776      1.0  0.26486  0.81252  0.96066  1.0000
  S   S186      1.0  0.13429  0.73042  0.74674  1.0000
  H   H777      1.0  0.29471  0.75395  0.94239  1.0000
  H   H778      1.0  0.16027  0.81400  0.78509  1.0000
  C   C635      1.0  0.39446  0.81070  0.92904  1.0000
  C   C636      1.0  0.40831  0.80326  0.90880  1.0000
  C   C637      1.0  0.39857  0.79010  0.89271  1.0000
  C   C638      1.0  0.37489  0.78414  0.89656  1.0000
  C   C639      1.0  0.36114  0.79129  0.91700  1.0000
  C   C640      1.0  0.37086  0.80452  0.93304  1.0000
  H   H779      1.0  0.42639  0.80801  0.90528  1.0000
  H   H780      1.0  0.40935  0.78490  0.87690  1.0000
  H   H781      1.0  0.34293  0.78691  0.92029  1.0000
  H   H782      1.0  0.35991  0.81017  0.94858  1.0000
  C   C641      1.0  0.09458  0.83634  0.62429  1.0000
  H   H783      1.0  0.02173  0.94029  0.92761  1.0000
  C   C642      1.0  0.18317  0.76204  0.80293  1.0000
  C   C643      1.0  0.19120  0.75287  0.82506  1.0000
  C   C644      1.0  0.21430  0.75598  0.83065  1.0000
  C   C645      1.0  0.22944  0.76887  0.81437  1.0000
  C   C646      1.0  0.22165  0.77746  0.79196  1.0000
  C   C647      1.0  0.19877  0.77378  0.78611  1.0000
  H   H784      1.0  0.08573  0.83632  0.86660  1.0000
  H   H785      1.0  0.22000  0.74936  0.84798  1.0000
  H   H786      1.0  0.23327  0.78736  0.77919  1.0000
  H   H787      1.0  0.19287  0.78101  0.76903  1.0000
  C   C648      1.0  0.07791  0.84526  0.69082  1.0000
  C   C649      1.0  0.07344  0.87012  0.68641  1.0000
  C   C650      1.0  0.05615  0.88022  0.67110  1.0000
  C   C651      1.0  0.04318  0.86557  0.65978  1.0000
  C   C652      1.0  0.04751  0.84072  0.66433  1.0000
  C   C653      1.0  0.06464  0.83062  0.67982  1.0000
  H   H788      1.0  0.08353  0.88168  0.69477  1.0000
  H   H789      1.0  0.05301  0.89934  0.66796  1.0000
  H   H790      1.0  0.03785  0.82916  0.65550  1.0000
  H   H791      1.0  0.06790  0.81149  0.68289  1.0000
  H   H792      1.0  0.11443  0.89994  0.62163  1.0000
  C   C654      1.0  0.01014  0.75107  0.97042  1.0000
  C   C655      1.0  0.02425  0.73135  0.93466  1.0000
  H   H793      1.0  0.08887  0.81852  0.62578  1.0000
  C   C656      1.0  0.05565  0.94375  0.88207  1.0000
  C   C657      1.0  0.03992  0.93173  0.87110  1.0000
  C   C658      1.0  0.03632  0.90787  0.87889  1.0000
  C   C659      1.0  0.04775  0.89604  0.89825  1.0000
  C   C660      1.0  0.06316  0.90820  0.90947  1.0000
  C   C661      1.0  0.06739  0.93178  0.90114  1.0000
  H   H794      1.0  0.03080  0.94066  0.85639  1.0000
  H   H795      1.0  0.02458  0.89851  0.86992  1.0000
  H   H796      1.0  0.07245  0.89917  0.92408  1.0000
  H   H797      1.0  0.07971  0.94086  0.90967  1.0000
  H   H798      1.0  0.39819  0.73236  0.82225  1.0000
  S   S187      1.0  0.45292  0.87330  0.96203  1.0000
  C   C662      1.0  0.03218  0.75284  0.73002  1.0000
  C   C663      1.0  0.00886  0.75915  0.72383  1.0000
  H   H799      1.0  0.04409  0.76646  0.73086  1.0000
  N   N45       1.0  0.15646  0.83316  0.81667  1.0000
  C   C664      1.0  0.16738  0.81292  0.83180  1.0000
  C   C665      1.0  0.14634  0.82387  0.79655  1.0000
  C   C666      1.0  0.17579  0.84792  0.80625  1.0000
  C   C667      1.0  0.13737  0.84622  0.83128  1.0000
  C   C668      1.0  0.11790  0.83428  0.84268  1.0000
  C   C669      1.0  0.13791  0.87049  0.83549  1.0000
  C   C670      1.0  0.10154  0.86944  0.86163  1.0000
  C   C671      1.0  0.12023  0.88178  0.85057  1.0000
  H   H800      1.0  0.01545  0.95959  0.68749  1.0000
  H   H801      1.0  0.15537  0.79846  0.83649  1.0000
  H   H802      1.0  0.18386  0.80453  0.82266  1.0000
  H   H803      1.0  0.17238  0.81876  0.84873  1.0000
  H   H804      1.0  0.13299  0.81100  0.80270  1.0000
  Fe  Fe92      1.0  0.28506  0.72997  0.89895  1.0000
  H   H805      1.0  0.13757  0.83850  0.78501  1.0000
  H   H806      1.0  0.18507  0.85454  0.82043  1.0000
  H   H807      1.0  0.18970  0.83747  0.79525  1.0000
  H   H808      1.0  0.16896  0.86325  0.79421  1.0000
  H   H809      1.0  0.11646  0.81575  0.84051  1.0000
  H   H810      1.0  0.15204  0.88102  0.82778  1.0000
  H   H811      1.0  0.07779  0.94817  0.82598  1.0000
  H   H812      1.0  0.12122  0.90009  0.85417  1.0000
  C   C672      1.0  0.97716  0.96082  0.93850  1.0000
  N   N46       1.0  0.07100  0.92779  0.79731  1.0000
  C   C673      1.0  0.08185  0.92997  0.81980  1.0000
  H   H813      1.0  0.98268  0.78509  0.67663  1.0000
  C   C674      1.0  0.04483  0.93154  0.80186  1.0000
  C   C675      1.0  0.07742  0.90383  0.78898  1.0000
  C   C676      1.0  0.08661  0.90025  0.76511  1.0000
  C   C677      1.0  0.07324  0.88310  0.80452  1.0000
  C   C678      1.0  0.09138  0.87738  0.75751  1.0000
  C   C679      1.0  0.07818  0.86031  0.79674  1.0000
  C   C680      1.0  0.08714  0.85747  0.77324  1.0000
  H   H814      1.0  0.05626  0.91035  0.62121  1.0000
  C   C681      1.0  0.02005  0.95848  0.93367  1.0000
  H   H815      1.0  0.08980  0.91483  0.75176  1.0000
  H   H816      1.0  0.98018  0.84894  0.65064  1.0000
  C   C682      1.0  0.27297  0.72740  0.96025  1.0000
  H   H817      1.0  0.03593  0.93014  0.78537  1.0000
  H   H818      1.0  0.99435  0.84658  0.67773  1.0000
  C   C683      1.0  0.10849  0.88240  0.62183  1.0000
  C   C684      1.0  0.02391  0.75079  0.94849  1.0000
  H   H819      1.0  0.03917  0.94960  0.80759  1.0000
  H   H820      1.0  0.06550  0.88436  0.82267  1.0000
  H   H821      1.0  0.09838  0.94550  0.77519  1.0000
  H   H822      1.0  0.07453  0.84480  0.80886  1.0000
  H   H823      1.0  0.09042  0.83985  0.76695  1.0000
  H   H824      1.0  0.06654  0.87656  0.56686  1.0000
  C   C685      1.0  0.25076  0.79231  0.93601  1.0000
  C   C686      1.0  0.06892  0.91720  0.60644  1.0000
  H   H825      1.0  0.98913  0.80386  0.64964  1.0000
  C   C687      1.0  0.28077  0.74616  0.76949  1.0000
  H   H826      1.0  0.07505  0.91772  0.83489  1.0000
  H   H827      1.0  0.23390  0.76978  0.91572  1.0000
  C   C688      1.0  0.29205  0.75245  0.74708  1.0000
  H   H828      1.0  0.08248  0.92574  0.61466  1.0000
  H   H829      1.0  0.11176  0.91465  0.58201  1.0000
  S   S188      1.0  0.01000  0.84233  0.96431  1.0000
  C   C689      1.0  0.26547  0.73022  0.72890  1.0000
  H   H830      1.0  0.21912  0.72593  0.72110  1.0000
  H   H831      1.0  0.26272  0.79837  0.92102  1.0000
  H   H832      1.0  0.10148  0.92639  0.81739  1.0000
  C   C690      1.0  0.26187  0.73179  0.77180  1.0000
  C   C691      1.0  0.08374  0.85437  0.60922  1.0000
  H   H833      1.0  0.29333  0.74925  0.70939  1.0000
  H   H834      1.0  0.04526  0.88387  0.59168  1.0000
  Fe  Fe93      1.0  0.04536  0.84931  0.94452  1.0000
  H   H835      1.0  0.38250  0.74806  0.94665  1.0000
  C   C692      1.0  0.28687  0.74655  0.95938  1.0000
  H   H836      1.0  0.08818  0.87807  0.87368  1.0000
  S   S189      1.0  0.06347  0.81354  0.95723  1.0000
  C   C693      1.0  0.21908  0.76830  0.95242  1.0000
  N   N47       1.0  0.07929  0.89771  0.59192  1.0000
  C   C694      1.0  0.09750  0.90712  0.57379  1.0000
  C   C695      1.0  0.05993  0.89053  0.57899  1.0000
  H   H837      1.0  0.05912  0.93173  0.59554  1.0000
  H   H838      1.0  0.20651  0.75628  0.94894  1.0000
  H   H839      1.0  0.30675  0.76349  0.74547  1.0000
  H   H840      1.0  0.06965  0.94850  0.76314  1.0000
  H   H841      1.0  0.10609  0.89286  0.56279  1.0000
  H   H842      1.0  0.28670  0.75244  0.78524  1.0000
  H   H843      1.0  0.08961  0.92173  0.56149  1.0000
  Fe  Fe94      1.0  0.98403  0.96317  0.64383  1.0000
  H   H844      1.0  0.00399  0.80595  0.67596  1.0000
  H   H845      1.0  0.34190  0.75027  0.96421  1.0000
  C   C696      1.0  0.98321  0.73286  0.79207  1.0000
  H   H846      1.0  0.05174  0.90580  0.56769  1.0000
  C   C697      1.0  0.09039  0.87806  0.60755  1.0000
  C   C698      1.0  0.11896  0.86429  0.63707  1.0000
  H   H847      1.0  0.11972  0.82746  0.65062  1.0000
  C   C699      1.0  0.10027  0.84581  0.85761  1.0000
  H   H848      1.0  0.44667  0.74364  0.93774  1.0000
  H   H849      1.0  0.06978  0.84938  0.59957  1.0000
  H   H850      1.0  0.00288  0.77770  0.72007  1.0000
  H   H851      1.0  0.98639  0.73697  0.77241  1.0000
  H   H852      1.0  0.03493  0.73129  0.91773  1.0000
  C   C700      1.0  0.07885  0.94741  0.77981  1.0000
  C   C701      1.0  0.23445  0.77628  0.93307  1.0000
  H   H853      1.0  0.98570  0.92781  0.92123  1.0000
  H   H854      1.0  0.17924  0.74389  0.83825  1.0000
  H   H855      1.0  0.26013  0.72460  0.71264  1.0000
  H   H856      1.0  0.00017  0.72369  0.79785  1.0000
  H   H857      1.0  0.98756  0.72873  0.83666  1.0000
  C   C702      1.0  0.97703  0.84539  0.67039  1.0000
  H   H858      1.0  0.42490  0.78403  0.96912  1.0000
  H   H859      1.0  0.97972  0.82086  0.71231  1.0000
  H   H860      1.0  0.42022  0.72873  0.93920  1.0000
  C   C703      1.0  0.43381  0.72605  0.88128  1.0000
  H   H861      1.0  0.20780  0.73865  0.74815  1.0000
  H   H862      1.0  0.02057  0.95645  0.95342  1.0000
  H   H863      1.0  0.43504  0.74361  0.88688  1.0000
  C   C704      1.0  0.42755  0.74476  0.94446  1.0000
  C   C705      1.0  0.98659  0.80341  0.66946  1.0000
  C   C706      1.0  0.37982  0.74836  0.96582  1.0000
  H   H864      1.0  0.40558  0.73815  0.85984  1.0000
  H   H865      1.0  0.07434  0.96515  0.78687  1.0000
  H   H866      1.0  0.04477  0.72695  0.84167  1.0000
  C   C707      1.0  0.00872  0.97063  0.70163  1.0000
  C   C708      1.0  0.02151  0.97072  0.72173  1.0000
  H   H867      1.0  0.99939  0.95590  0.89363  1.0000
  N   N48       1.0  0.42420  0.74613  0.97072  1.0000
  H   H868      1.0  0.03617  0.96707  0.92568  1.0000
  N   N49       1.0  0.99798  0.97251  0.92677  1.0000
  C   C709      1.0  0.25365  0.72332  0.75147  1.0000
  C   C710      1.0  0.89732  0.20971  0.39057  1.0000
  S   S190      1.0  0.89155  0.04719  0.42372  1.0000
  Fe  Fe95      1.0  0.78386  0.07059  0.21985  1.0000
  S   S191      1.0  0.81668  0.08647  0.20268  1.0000
  S   S192      1.0  0.79070  0.03767  0.24510  1.0000
  Fe  Fe96      1.0  0.75135  0.11130  0.19828  1.0000
  S   S193      1.0  0.78191  0.12981  0.17958  1.0000
  S   S194      1.0  0.71268  0.12535  0.19665  1.0000
  Fe  Fe97      1.0  0.79697  0.09332  0.16969  1.0000
  S   S195      1.0  0.81578  0.08930  0.13234  1.0000
  Fe  Fe98      1.0  0.79857  0.12101  0.21428  1.0000
  S   S196      1.0  0.81931  0.14721  0.22972  1.0000
  S   S197      1.0  0.76509  0.07520  0.18621  1.0000
  S   S198      1.0  0.76705  0.10472  0.23363  1.0000
  H   H869      1.0  0.53109  0.98316  0.00682  1.0000
  Fe  Fe99      1.0  0.84845  0.99363  0.03211  1.0000
  H   H870      1.0  0.80534  0.09824  0.26786  1.0000
  S   S199      1.0  0.82844  0.00080  0.06853  1.0000
  C   C711      1.0  0.79078  0.98922  0.24798  1.0000
  H   H871      1.0  0.83159  0.99972  0.31634  1.0000
  H   H872      1.0  0.52739  0.13492  0.15999  1.0000
  S   S200      1.0  0.88759  0.98250  0.02376  1.0000
  S   S201      1.0  0.84486  0.01522  0.99660  1.0000
  S   S202      1.0  0.50839  0.11596  0.44439  1.0000
  H   H873      1.0  0.73967  0.99335  0.40002  1.0000
  Fe  Fe100     1.0  0.52390  0.00806  0.08994  1.0000
  S   S203      1.0  0.56270  0.00402  0.07598  1.0000
  N   N50       1.0  0.71327  0.20602  0.25479  1.0000
  C   C712      1.0  0.50848  0.21140  0.45136  1.0000
  S   S204      1.0  0.84465  0.00220  0.41485  1.0000
  H   H874      1.0  0.59659  0.02366  0.44182  1.0000
  C   C713      1.0  0.48661  0.15718  0.15671  1.0000
  C   C714      1.0  0.80646  0.17966  0.43315  1.0000
  H   H875      1.0  0.78263  0.99641  0.40149  1.0000
  C   C715      1.0  0.49518  0.99566  0.19300  1.0000
  C   C716      1.0  0.81463  0.15640  0.25903  1.0000
  C   C717      1.0  0.83012  0.17174  0.26601  1.0000
  C   C718      1.0  0.82817  0.17836  0.28952  1.0000
  C   C719      1.0  0.81087  0.16944  0.30644  1.0000
  C   C720      1.0  0.79525  0.15418  0.29949  1.0000
  C   C721      1.0  0.79681  0.14803  0.27575  1.0000
  H   H876      1.0  0.84394  0.17833  0.25321  1.0000
  H   H877      1.0  0.84054  0.18983  0.29474  1.0000
  H   H878      1.0  0.78190  0.14710  0.31251  1.0000
  H   H879      1.0  0.78442  0.13667  0.27050  1.0000
  C   C722      1.0  0.70285  0.15599  0.19304  1.0000
  C   C723      1.0  0.71783  0.17296  0.18240  1.0000
  C   C724      1.0  0.70884  0.19690  0.17823  1.0000
  C   C725      1.0  0.68509  0.20425  0.18545  1.0000
  C   C726      1.0  0.67033  0.18741  0.19673  1.0000
  C   C727      1.0  0.67907  0.16333  0.20010  1.0000
  H   H880      1.0  0.73618  0.16758  0.17687  1.0000
  H   H881      1.0  0.47945  0.21774  0.24044  1.0000
  H   H882      1.0  0.65197  0.19282  0.20224  1.0000
  H   H883      1.0  0.66734  0.15031  0.20825  1.0000
  C   C728      1.0  0.81824  0.06496  0.11427  1.0000
  C   C729      1.0  0.83480  0.06496  0.09401  1.0000
  C   C730      1.0  0.83780  0.04584  0.07942  1.0000
  C   C731      1.0  0.82407  0.02652  0.08480  1.0000
  C   C732      1.0  0.80695  0.02693  0.10460  1.0000
  C   C733      1.0  0.80409  0.04593  0.11933  1.0000
  H   H884      1.0  0.84574  0.07965  0.08980  1.0000
  H   H885      1.0  0.85104  0.04586  0.06429  1.0000
  H   H886      1.0  0.79606  0.01225  0.10873  1.0000
  H   H887      1.0  0.79122  0.04565  0.13475  1.0000
  S   S205      1.0  0.51091  0.02042  0.12612  1.0000
  C   C734      1.0  0.76545  0.01124  0.21990  1.0000
  C   C735      1.0  0.78155  0.01102  0.23712  1.0000
  H   H888      1.0  0.49542  0.00338  0.44696  1.0000
  C   C736      1.0  0.96367  0.16811  0.39751  1.0000
  H   H889      1.0  0.83618  0.10919  0.30425  1.0000
  H   H890      1.0  0.75806  0.02794  0.21161  1.0000
  C   C737      1.0  0.83370  0.09373  0.42786  1.0000
  C   C738      1.0  0.92154  0.05395  0.42167  1.0000
  C   C739      1.0  0.93925  0.04201  0.40715  1.0000
  C   C740      1.0  0.88836  0.17866  0.36752  1.0000
  C   C741      1.0  0.84500  0.10108  0.28812  1.0000
  C   C742      1.0  0.95071  0.07997  0.43092  1.0000
  C   C743      1.0  0.92736  0.07307  0.43337  1.0000
  H   H891      1.0  0.93492  0.02754  0.39769  1.0000
  H   H892      1.0  0.95493  0.09447  0.44032  1.0000
  C   C744      1.0  0.93307  0.00284  0.47119  1.0000
  C   C745      1.0  0.58492  0.01225  0.99525  1.0000
  C   C746      1.0  0.56237  0.02167  0.00420  1.0000
  C   C747      1.0  0.55510  0.01871  0.02880  1.0000
  C   C748      1.0  0.57053  0.00671  0.04474  1.0000
  H   H893      1.0  0.78515  0.13130  0.12245  1.0000
  C   C749      1.0  0.60011  0.99976  0.01111  1.0000
  H   H894      1.0  0.55052  0.03141  0.99208  1.0000
  H   H895      1.0  0.53781  0.02627  0.03548  1.0000
  C   C750      1.0  0.50212  0.98683  0.23498  1.0000
  H   H896      1.0  0.94977  0.13429  0.37331  1.0000
  H   H897      1.0  0.52512  0.13864  0.37722  1.0000
  H   H898      1.0  0.77301  0.15833  0.46099  1.0000
  H   H899      1.0  0.50036  0.02203  0.21660  1.0000
  C   C751      1.0  0.96241  0.04949  0.40402  1.0000
  C   C752      1.0  0.49680  0.00138  0.42744  1.0000
  H   H900      1.0  0.56817  0.04751  0.41670  1.0000
  S   S206      1.0  0.64253  0.97949  0.45103  1.0000
  H   H901      1.0  0.49281  0.00850  0.17778  1.0000
  H   H902      1.0  0.78289  0.11910  0.45423  1.0000
  C   C753      1.0  0.79222  0.98377  0.36689  1.0000
  H   H903      1.0  0.49730  0.15615  0.13921  1.0000
  H   H904      1.0  0.91373  0.08252  0.44449  1.0000
  H   H905      1.0  0.49648  0.01955  0.41810  1.0000
  H   H906      1.0  0.81110  0.98448  0.36802  1.0000
  H   H907      1.0  0.52001  0.00307  0.38400  1.0000
  H   H908      1.0  0.82100  0.02900  0.19925  1.0000
  C   C754      1.0  0.56487  0.02946  0.42343  1.0000
  N   N51       1.0  0.57480  0.97872  0.14797  1.0000
  C   C755      1.0  0.96833  0.06838  0.41601  1.0000
  H   H909      1.0  0.86150  0.04638  0.35800  1.0000
  N   N52       1.0  0.49534  0.17440  0.17128  1.0000
  H   H910      1.0  0.48221  0.05371  0.30981  1.0000
  H   H911      1.0  0.80718  0.08141  0.45463  1.0000
  H   H912      1.0  0.61760  0.99259  0.00453  1.0000
  C   C756      1.0  0.91573  0.19467  0.40010  1.0000
  C   C757      1.0  0.49232  0.19829  0.15804  1.0000
  H   H913      1.0  0.93505  0.16831  0.43829  1.0000
  H   H914      1.0  0.97154  0.97313  0.45681  1.0000
  C   C758      1.0  0.59303  0.99723  0.03576  1.0000
  H   H915      1.0  0.82286  0.18171  0.42099  1.0000
  H   H916      1.0  0.92564  0.20166  0.41283  1.0000
  H   H917      1.0  0.60515  0.98801  0.04792  1.0000
  N   N53       1.0  0.75131  0.12402  0.11174  1.0000
  C   C759      1.0  0.74791  0.10479  0.13125  1.0000
  C   C760      1.0  0.76337  0.11273  0.09060  1.0000
  C   C761      1.0  0.76744  0.14054  0.11893  1.0000
  C   C762      1.0  0.72818  0.13737  0.10735  1.0000
  C   C763      1.0  0.71394  0.14773  0.12637  1.0000
  C   C764      1.0  0.71948  0.14123  0.08439  1.0000
  C   C765      1.0  0.69246  0.16121  0.12273  1.0000
  C   C766      1.0  0.69786  0.15468  0.08093  1.0000
  C   C767      1.0  0.68443  0.16469  0.10004  1.0000
  H   H918      1.0  0.73436  0.09312  0.12739  1.0000
  H   H919      1.0  0.76468  0.09330  0.13383  1.0000
  H   H920      1.0  0.74210  0.11174  0.14881  1.0000
  H   H921      1.0  0.76805  0.12619  0.07563  1.0000
  H   H922      1.0  0.75225  0.09990  0.08432  1.0000
  H   H923      1.0  0.78050  0.10249  0.09481  1.0000
  C   C768      1.0  0.48195  0.03400  0.36364  1.0000
  H   H924      1.0  0.75734  0.14961  0.43713  1.0000
  H   H925      1.0  0.77039  0.15529  0.10476  1.0000
  H   H926      1.0  0.71942  0.14562  0.14427  1.0000
  H   H927      1.0  0.72906  0.13414  0.06882  1.0000
  C   C769      1.0  0.51686  0.15448  0.38611  1.0000
  H   H928      1.0  0.90944  0.14583  0.37083  1.0000
  C   C770      1.0  0.80579  0.13820  0.42666  1.0000
  H   H929      1.0  0.96739  0.17246  0.37794  1.0000
  C   C771      1.0  0.56203  0.97759  0.19197  1.0000
  H   H930      1.0  0.73966  0.00014  0.30925  1.0000
  C   C772      1.0  0.77015  0.97452  0.98579  1.0000
  C   C773      1.0  0.52041  0.16872  0.17653  1.0000
  C   C774      1.0  0.53151  0.18410  0.18946  1.0000
  H   H931      1.0  0.72565  0.97696  0.29807  1.0000
  H   H932      1.0  0.84948  0.99222  0.12445  1.0000
  H   H933      1.0  0.78550  0.98321  0.14032  1.0000
  H   H934      1.0  0.85729  0.11057  0.40089  1.0000
  C   C775      1.0  0.51610  0.17811  0.34812  1.0000
  C   C776      1.0  0.55617  0.98322  0.44165  1.0000
  C   C777      1.0  0.71236  0.18183  0.24715  1.0000
  H   H935      1.0  0.76026  0.14879  0.13550  1.0000
  C   C778      1.0  0.82667  0.98752  0.15814  1.0000
  C   C779      1.0  0.55793  0.14308  0.17512  1.0000
  Fe  Fe101     1.0  0.83583  0.98143  0.98328  1.0000
  C   C780      1.0  0.94597  0.13241  0.39307  1.0000
  H   H936      1.0  0.77807  0.97609  0.29810  1.0000
  H   H937      1.0  0.77403  0.18616  0.40012  1.0000
  N   N54       1.0  0.79188  0.16174  0.42588  1.0000
  H   H938      1.0  0.81192  0.17476  0.45151  1.0000
  H   H939      1.0  0.56827  0.12710  0.16968  1.0000
  H   H940      1.0  0.75425  0.19896  0.22496  1.0000
  H   H941      1.0  0.85062  0.00636  0.35229  1.0000
  H   H942      1.0  0.92029  0.14260  0.43415  1.0000
  N   N55       1.0  0.50163  0.17021  0.37020  1.0000
  H   H943      1.0  0.48210  0.15711  0.20492  1.0000
  H   H944      1.0  0.55594  0.01268  0.15529  1.0000
  S   S207      1.0  0.81088  0.17433  0.33692  1.0000
  H   H945      1.0  0.58865  0.98290  0.45837  1.0000
  H   H946      1.0  0.55915  0.97797  0.97334  1.0000
  H   H947      1.0  0.53703  0.97484  0.38747  1.0000
  H   H948      1.0  0.84248  0.11493  0.27294  1.0000
  H   H949      1.0  0.86446  0.09806  0.28966  1.0000
  H   H950      1.0  0.84441  0.07676  0.42837  1.0000
  Fe  Fe102     1.0  0.88299  0.00144  0.98709  1.0000
  C   C781      1.0  0.93686  0.15159  0.42923  1.0000
  C   C782      1.0  0.75881  0.98974  0.21338  1.0000
  H   H951      1.0  0.50642  0.14787  0.40267  1.0000
  H   H952      1.0  0.96174  0.12179  0.40021  1.0000
  H   H953      1.0  0.72037  0.20984  0.16948  1.0000
  C   C783      1.0  0.77622  0.99037  0.38585  1.0000
  C   C784      1.0  0.58081  0.01612  0.43775  1.0000
  C   C785      1.0  0.48150  0.15678  0.36584  1.0000
  H   H954      1.0  0.79652  0.19762  0.43308  1.0000
  S   S208      1.0  0.51625  0.98373  0.32852  1.0000
  H   H955      1.0  0.83643  0.05680  0.25465  1.0000
  H   H956      1.0  0.80352  0.98898  0.26106  1.0000
  H   H957      1.0  0.52199  0.20007  0.19560  1.0000
  H   H958      1.0  0.48659  0.13906  0.16633  1.0000
  H   H959      1.0  0.48945  0.04634  0.27953  1.0000
  C   C786      1.0  0.79888  0.11829  0.44222  1.0000
  S   S209      1.0  0.50837  0.99681  0.26200  1.0000
  S   S210      1.0  0.51472  0.18325  0.44000  1.0000
  C   C787      1.0  0.49152  0.19114  0.38288  1.0000
  C   C788      1.0  0.84708  0.02106  0.33892  1.0000
  C   C789      1.0  0.76950  0.16229  0.44191  1.0000
  H   H960      1.0  0.53295  0.03066  0.40646  1.0000
  C   C790      1.0  0.82729  0.02055  0.18312  1.0000
  C   C791      1.0  0.57635  0.99317  0.44701  1.0000
  C   C792      1.0  0.80893  0.08440  0.28276  1.0000
  H   H961      1.0  0.84463  0.08605  0.24649  1.0000
  H   H962      1.0  0.80012  0.09109  0.29959  1.0000
  S   S211      1.0  0.49397  0.02843  0.07185  1.0000
  H   H963      1.0  0.85447  0.07957  0.32822  1.0000
  N   N56       1.0  0.83479  0.07873  0.28428  1.0000
  N   N57       1.0  0.94153  0.15595  0.40295  1.0000
  C   C793      1.0  0.97028  0.01872  0.45826  1.0000
  H   H964      1.0  0.48783  0.13987  0.35781  1.0000
  H   H965      1.0  0.86468  0.06466  0.26185  1.0000
  H   H966      1.0  0.93073  0.12138  0.39787  1.0000
  H   H967      1.0  0.71968  0.16793  0.26045  1.0000
  C   C794      1.0  0.84563  0.07116  0.26090  1.0000
  C   C795      1.0  0.78025  0.20917  0.24550  1.0000
  H   H968      1.0  0.68212  0.16910  0.13765  1.0000
  H   H969      1.0  0.78211  0.97403  0.17159  1.0000
  H   H970      1.0  0.49834  0.06713  0.35757  1.0000
  H   H971      1.0  0.79994  0.06869  0.27934  1.0000
  C   C796      1.0  0.88380  0.20179  0.37419  1.0000
  Fe  Fe103     1.0  0.47896  0.03817  0.10859  1.0000
  C   C797      1.0  0.84922  0.06258  0.32463  1.0000
  C   C798      1.0  0.83881  0.05930  0.30339  1.0000
  C   C799      1.0  0.53973  0.99619  0.42672  1.0000
  Fe  Fe104     1.0  0.87958  0.00963  0.42714  1.0000
  H   H972      1.0  0.48367  0.18865  0.20506  1.0000
  H   H973      1.0  0.93205  0.99735  0.45294  1.0000
  H   H974      1.0  0.69388  0.17809  0.24478  1.0000
  C   C800      1.0  0.75702  0.20527  0.24182  1.0000
  H   H975      1.0  0.67767  0.20477  0.27219  1.0000
  C   C801      1.0  0.56827  0.15871  0.18771  1.0000
  C   C802      1.0  0.73217  0.98272  0.31438  1.0000
  H   H976      1.0  0.52252  0.17522  0.28727  1.0000
  Fe  Fe105     1.0  0.49250  0.15244  0.45273  1.0000
  C   C803      1.0  0.53433  0.14786  0.16960  1.0000
  H   H977      1.0  0.55520  0.20010  0.29048  1.0000
  C   C804      1.0  0.85331  0.04364  0.34202  1.0000
  H   H978      1.0  0.49789  0.16140  0.32238  1.0000
  C   C805      1.0  0.73414  0.98569  0.46620  1.0000
  H   H979      1.0  0.58755  0.01302  0.14932  1.0000
  C   C806      1.0  0.84295  0.03164  0.16606  1.0000
  H   H980      1.0  0.54957  0.97354  0.12315  1.0000
  H   H981      1.0  0.69153  0.15749  0.06329  1.0000
  H   H982      1.0  0.54558  0.98794  0.18835  1.0000
  H   H983      1.0  0.82352  0.03246  0.28581  1.0000
  C   C807      1.0  0.83209  0.03618  0.30116  1.0000
  H   H984      1.0  0.50541  0.20069  0.38950  1.0000
  C   C808      1.0  0.92135  0.17118  0.39322  1.0000
  H   H985      1.0  0.49199  0.02635  0.34861  1.0000
  C   C809      1.0  0.78417  0.97555  0.34682  1.0000
  H   H986      1.0  0.77537  0.15536  0.39460  1.0000
  H   H987      1.0  0.55236  0.97601  0.22996  1.0000
  C   C810      1.0  0.81271  0.09643  0.44268  1.0000
  S   S212      1.0  0.89820  0.97541  0.41542  1.0000
  C   C811      1.0  0.83638  0.01736  0.31861  1.0000
  C   C812      1.0  0.48558  0.05713  0.36882  1.0000
  H   H988      1.0  0.84854  0.04888  0.16865  1.0000
  H   H989      1.0  0.53129  0.16377  0.39209  1.0000
  H   H990      1.0  0.66779  0.17524  0.09728  1.0000
  H   H991      1.0  0.48038  0.99392  0.42332  1.0000
  C   C813      1.0  0.52027  0.98512  0.39383  1.0000
  C   C814      1.0  0.82726  0.13476  0.41173  1.0000
  C   C815      1.0  0.51190  0.17212  0.32511  1.0000
  H   H992      1.0  0.80105  0.17157  0.38826  1.0000
  H   H993      1.0  0.72254  0.17931  0.22970  1.0000
  C   C816      1.0  0.49931  0.00331  0.21503  1.0000
  H   H994      1.0  0.56372  0.21065  0.33000  1.0000
  C   C817      1.0  0.52597  0.17996  0.30466  1.0000
  S   S213      1.0  0.47724  0.09706  0.39354  1.0000
  Fe  Fe106     1.0  0.83750  0.98417  0.45157  1.0000
  H   H995      1.0  0.86282  0.02974  0.13188  1.0000
  C   C818      1.0  0.77729  0.98409  0.46336  1.0000
  C   C819      1.0  0.85103  0.02079  0.14536  1.0000
  C   C820      1.0  0.90682  0.16345  0.37685  1.0000
  H   H996      1.0  0.47978  0.18589  0.39913  1.0000
  C   C821      1.0  0.84094  0.11284  0.41240  1.0000
  C   C822      1.0  0.55506  0.17916  0.19490  1.0000
  H   H997      1.0  0.80294  0.22140  0.26920  1.0000
  H   H998      1.0  0.59244  0.08064  0.46884  1.0000
  Fe  Fe107     1.0  0.80561  0.21228  0.34750  1.0000
  C   C823      1.0  0.47896  0.04129  0.29668  1.0000
  Fe  Fe108     1.0  0.49065  0.98788  0.13068  1.0000
  N   N58       1.0  0.51848  0.98610  0.42009  1.0000
  H   H999      1.0  0.71626  0.98586  0.32710  1.0000
  H   H1000     1.0  0.83361  0.14905  0.39939  1.0000
  H   H1001     1.0  0.74645  0.99002  0.19992  1.0000
  H   H1002     1.0  0.58654  0.15495  0.19200  1.0000
  H   H1003     1.0  0.79471  0.20518  0.23206  1.0000
  C   C824      1.0  0.54467  0.01968  0.41785  1.0000
  H   H1004     1.0  0.68698  0.22211  0.23159  1.0000
  H   H1005     1.0  0.71690  0.22239  0.21855  1.0000
  C   C825      1.0  0.81937  0.99877  0.17934  1.0000
  C   C826      1.0  0.84308  0.99907  0.14131  1.0000
  C   C827      1.0  0.78534  0.16895  0.40122  1.0000
  H   H1006     1.0  0.75949  0.18026  0.44062  1.0000
  C   C828      1.0  0.47995  0.17451  0.19401  1.0000
  H   H1007     1.0  0.96102  0.03689  0.45700  1.0000
  H   H1008     1.0  0.97062  0.01230  0.44021  1.0000
  H   H1009     1.0  0.95170  0.14023  0.43722  1.0000
  C   C829      1.0  0.73781  0.20975  0.25936  1.0000
  C   C830      1.0  0.54920  0.19989  0.32871  1.0000
  H   H1010     1.0  0.96291  0.18489  0.40628  1.0000
  H   H1011     1.0  0.80720  0.99092  0.19304  1.0000
  H   H1012     1.0  0.50525  0.97649  0.38813  1.0000
  C   C831      1.0  0.54447  0.19392  0.30643  1.0000
  H   H1013     1.0  0.59037  0.97654  0.11166  1.0000
  S   S214      1.0  0.50626  0.97410  0.09606  1.0000
  C   C832      1.0  0.53535  0.19205  0.34930  1.0000
  C   C833      1.0  0.69581  0.20836  0.27598  1.0000
  H   H1014     1.0  0.53984  0.19695  0.36622  1.0000
  H   H1015     1.0  0.51838  0.20999  0.25767  1.0000
  H   H1016     1.0  0.50423  0.19928  0.14119  1.0000
  H   H1017     1.0  0.56912  0.01146  0.12547  1.0000
  C   C834      1.0  0.75957  0.97383  0.34519  1.0000
  H   H1018     1.0  0.78097  0.97649  0.00008  1.0000
  S   S215      1.0  0.87065  0.99455  0.46478  1.0000
  C   C835      1.0  0.51680  0.22181  0.24160  1.0000
  H   H1019     1.0  0.86981  0.21371  0.36658  1.0000
  H   H1020     1.0  0.87759  0.17264  0.35483  1.0000
  H   H1021     1.0  0.56305  0.19127  0.20487  1.0000
  H   H1022     1.0  0.53677  0.97659  0.15285  1.0000
  H   H1023     1.0  0.48094  0.20409  0.37112  1.0000
  H   H1024     1.0  0.48656  0.02331  0.30336  1.0000
  C   C836      1.0  0.57173  0.00508  0.14443  1.0000
  H   H1025     1.0  0.61130  0.97779  0.13293  1.0000
  C   C837      1.0  0.74330  0.21887  0.28054  1.0000
  H   H1026     1.0  0.72492  0.97904  0.36542  1.0000
  C   C838      1.0  0.75203  0.98868  0.38494  1.0000
  H   H1027     1.0  0.49618  0.21274  0.16862  1.0000
  H   H1028     1.0  0.70104  0.19582  0.29138  1.0000
  S   S216      1.0  0.81651  0.22119  0.38256  1.0000
  C   C839      1.0  0.74377  0.98046  0.36500  1.0000
  C   C840      1.0  0.48947  0.21583  0.46847  1.0000
  C   C841      1.0  0.78498  0.21811  0.26645  1.0000
  Fe  Fe109     1.0  0.47544  0.99490  0.07997  1.0000
  C   C842      1.0  0.76658  0.22291  0.28390  1.0000
  H   H1029     1.0  0.83753  0.08141  0.73621  1.0000
  C   C843      1.0  0.94978  0.99552  0.52147  1.0000
  Fe  Fe110     1.0  0.79699  0.11256  0.75493  1.0000
  S   S217      1.0  0.76086  0.12559  0.77096  1.0000
  S   S218      1.0  0.83262  0.12907  0.74977  1.0000
  Fe  Fe111     1.0  0.77760  0.06869  0.73763  1.0000
  S   S219      1.0  0.73979  0.07922  0.75128  1.0000
  S   S220      1.0  0.79388  0.03580  0.71992  1.0000
  Fe  Fe112     1.0  0.74792  0.11657  0.73673  1.0000
  S   S221      1.0  0.72358  0.14526  0.71810  1.0000
  Fe  Fe113     1.0  0.75559  0.08727  0.78433  1.0000
  S   S222      1.0  0.74274  0.07519  0.82315  1.0000
  S   S223      1.0  0.78416  0.10514  0.72028  1.0000
  S   S224      1.0  0.79317  0.07500  0.77123  1.0000
  Fe  Fe114     1.0  0.62481  0.99288  0.94918  1.0000
  C   C844      1.0  0.78001  0.97634  0.96213  1.0000
  C   C845      1.0  0.75992  0.98833  0.86401  1.0000
  C   C846      1.0  0.74024  0.98254  0.82180  1.0000
  S   S225      1.0  0.66932  0.99944  0.86588  1.0000
  C   C847      1.0  0.90577  0.00740  0.68786  1.0000
  H   H1030     1.0  0.81533  0.17592  0.65634  1.0000
  H   H1031     1.0  0.95879  0.02813  0.56663  1.0000
  H   H1032     1.0  0.50442  0.20027  0.52434  1.0000
  S   S226      1.0  0.66171  0.00352  0.93770  1.0000
  C   C848      1.0  0.87383  0.09199  0.70602  1.0000
  H   H1033     1.0  0.63635  0.02737  0.55009  1.0000
  C   C849      1.0  0.95015  0.00181  0.54472  1.0000
  S   S227      1.0  0.51005  0.07310  0.50273  1.0000
  H   H1034     1.0  0.63016  0.08426  0.93098  1.0000
  C   C850      1.0  0.55034  0.06666  0.55488  1.0000
  C   C851      1.0  0.58811  0.04541  0.48575  1.0000
  S   S228      1.0  0.74248  0.18601  0.60974  1.0000
  N   N59       1.0  0.60555  0.00944  0.56477  1.0000
  C   C852      1.0  0.66518  0.18828  0.64175  1.0000
  S   S229      1.0  0.97080  0.98528  0.67476  1.0000
  H   H1035     1.0  0.88282  0.09680  0.68804  1.0000
  C   C853      1.0  0.79922  0.22215  0.72789  1.0000
  H   H1036     1.0  0.77308  0.97598  0.92532  1.0000
  C   C854      1.0  0.54653  0.04734  0.57155  1.0000
  H   H1037     1.0  0.47791  0.20201  0.47470  1.0000
  C   C855      1.0  0.78983  0.20402  0.64473  1.0000
  H   H1038     1.0  0.88713  0.08979  0.71948  1.0000
  C   C856      1.0  0.72222  0.05402  0.83463  1.0000
  C   C857      1.0  0.70848  0.04372  0.81986  1.0000
  C   C858      1.0  0.69231  0.02725  0.82977  1.0000
  C   C859      1.0  0.68951  0.02090  0.85455  1.0000
  C   C860      1.0  0.70307  0.03135  0.86936  1.0000
  C   C861      1.0  0.71930  0.04777  0.85944  1.0000
  H   H1039     1.0  0.71010  0.04861  0.80082  1.0000
  H   H1040     1.0  0.68187  0.01935  0.81813  1.0000
  H   H1041     1.0  0.70114  0.02672  0.88844  1.0000
  H   H1042     1.0  0.72943  0.05588  0.87117  1.0000
  C   C862      1.0  0.73186  0.15763  0.68877  1.0000
  C   C863      1.0  0.72321  0.18103  0.68142  1.0000
  C   C864      1.0  0.72745  0.19047  0.65752  1.0000
  C   C865      1.0  0.73971  0.17628  0.64060  1.0000
  C   C866      1.0  0.74879  0.15310  0.64806  1.0000
  C   C867      1.0  0.74515  0.14390  0.67207  1.0000
  H   H1043     1.0  0.71282  0.19172  0.69420  1.0000
  C   C868      1.0  0.57249  0.06821  0.54221  1.0000
  H   H1044     1.0  0.75829  0.14200  0.63509  1.0000
  H   H1045     1.0  0.75170  0.12580  0.67743  1.0000
  H   H1046     1.0  0.88745  0.03768  0.90654  1.0000
  C   C869      1.0  0.79100  0.98988  0.70963  1.0000
  C   C870      1.0  0.77853  0.01035  0.71839  1.0000
  C   C871      1.0  0.75459  0.00969  0.72678  1.0000
  H   H1047     1.0  0.80042  0.98829  0.53197  1.0000
  H   H1048     1.0  0.74460  0.02545  0.73302  1.0000
  H   H1049     1.0  0.73154  0.98055  0.80602  1.0000
  C   C872      1.0  0.81126  0.20427  0.67963  1.0000
  H   H1050     1.0  0.76740  0.02738  0.76751  1.0000
  C   C873      1.0  0.53969  0.06217  0.49427  1.0000
  C   C874      1.0  0.54776  0.03865  0.50185  1.0000
  C   C875      1.0  0.57180  0.03018  0.49732  1.0000
  H   H1051     1.0  0.93506  0.02888  0.68526  1.0000
  H   H1052     1.0  0.65918  0.08255  0.82289  1.0000
  H   H1053     1.0  0.53542  0.02709  0.51162  1.0000
  H   H1054     1.0  0.57780  0.01216  0.50346  1.0000
  C   C876      1.0  0.94189  0.01599  0.88942  1.0000
  C   C877      1.0  0.94778  0.03448  0.90178  1.0000
  C   C878      1.0  0.93821  0.03671  0.92554  1.0000
  C   C879      1.0  0.92299  0.02031  0.93727  1.0000
  C   C880      1.0  0.91791  0.00132  0.92517  1.0000
  C   C881      1.0  0.92698  0.99940  0.90127  1.0000
  H   H1055     1.0  0.91095  0.06477  0.69568  1.0000
  H   H1056     1.0  0.94234  0.05144  0.93475  1.0000
  H   H1057     1.0  0.90685  0.98818  0.93413  1.0000
  C   C882      1.0  0.96594  0.03243  0.50587  1.0000
  C   C883      1.0  0.84968  0.20560  0.75873  1.0000
  C   C884      1.0  0.86332  0.19185  0.74223  1.0000
  C   C885      1.0  0.85771  0.16860  0.73959  1.0000
  C   C886      1.0  0.83807  0.15896  0.75291  1.0000
  C   C887      1.0  0.82429  0.17280  0.76921  1.0000
  C   C888      1.0  0.83031  0.19580  0.77236  1.0000
  H   H1058     1.0  0.87839  0.19899  0.73175  1.0000
  H   H1059     1.0  0.86869  0.15799  0.72714  1.0000
  H   H1060     1.0  0.80934  0.16556  0.77985  1.0000
  C   C889      1.0  0.57996  0.06875  0.47781  1.0000
  C   C890      1.0  0.94482  0.15677  0.78239  1.0000
  H   H1061     1.0  0.97231  0.04516  0.49181  1.0000
  H   H1062     1.0  0.80608  0.01450  0.77937  1.0000
  C   C891      1.0  0.97000  0.97854  0.47537  1.0000
  N   N60       1.0  0.62567  0.06497  0.90078  1.0000
  C   C892      1.0  0.60226  0.07823  0.89740  1.0000
  C   C893      1.0  0.62419  0.03971  0.89685  1.0000
  C   C894      1.0  0.63037  0.06570  0.92613  1.0000
  C   C895      1.0  0.64405  0.07527  0.88343  1.0000
  N   N61       1.0  0.66059  0.20957  0.62486  1.0000
  C   C896      1.0  0.64291  0.07443  0.85853  1.0000
  C   C897      1.0  0.66328  0.08649  0.89048  1.0000
  H   H1063     1.0  0.53595  0.08022  0.55133  1.0000
  S   S230      1.0  0.47823  0.14035  0.49011  1.0000
  H   H1064     1.0  0.59660  0.07697  0.87931  1.0000
  C   C898      1.0  0.65306  0.18676  0.66500  1.0000
  H   H1065     1.0  0.60272  0.09744  0.89973  1.0000
  H   H1066     1.0  0.61761  0.03741  0.87943  1.0000
  H   H1067     1.0  0.64197  0.02967  0.89711  1.0000
  H   H1068     1.0  0.64773  0.05585  0.92993  1.0000
  C   C899      1.0  0.59072  0.05007  0.54548  1.0000
  H   H1069     1.0  0.62894  0.06607  0.85179  1.0000
  C   C900      1.0  0.53401  0.18890  0.50031  1.0000
  C   C901      1.0  0.52171  0.20431  0.51589  1.0000
  H   H1070     1.0  0.97182  0.05572  0.53222  1.0000
  N   N62       1.0  0.86107  0.07028  0.70630  1.0000
  C   C902      1.0  0.84930  0.06567  0.73070  1.0000
  C   C903      1.0  0.76554  0.97459  0.94368  1.0000
  C   C904      1.0  0.84255  0.07565  0.68925  1.0000
  C   C905      1.0  0.87672  0.04896  0.69989  1.0000
  C   C906      1.0  0.86694  0.02705  0.69859  1.0000
  C   C907      1.0  0.90178  0.04909  0.69501  1.0000
  C   C908      1.0  0.88131  0.00664  0.69264  1.0000
  C   C909      1.0  0.91595  0.02855  0.68903  1.0000
  H   H1071     1.0  0.63998  0.20070  0.67059  1.0000
  H   H1072     1.0  0.86260  0.06135  0.74405  1.0000
  H   H1073     1.0  0.85065  0.07766  0.67050  1.0000
  H   H1074     1.0  0.83789  0.05068  0.73209  1.0000
  H   H1075     1.0  0.58807  0.07117  0.91048  1.0000
  H   H1076     1.0  0.75532  0.03533  0.79631  1.0000
  H   H1077     1.0  0.81002  0.99530  0.80611  1.0000
  H   H1078     1.0  0.83007  0.06155  0.69049  1.0000
  H   H1079     1.0  0.92244  0.98495  0.89191  1.0000
  H   H1080     1.0  0.54991  0.09520  0.47604  1.0000
  H   H1081     1.0  0.84804  0.02554  0.70223  1.0000
  H   H1082     1.0  0.56476  0.18277  0.47582  1.0000
  H   H1083     1.0  0.64022  0.99587  0.54986  1.0000
  H   H1084     1.0  0.62735  0.99265  0.59192  1.0000
  H   H1085     1.0  0.59853  0.00451  0.60315  1.0000
  C   C910      1.0  0.96955  0.15463  0.78276  1.0000
  H   H1086     1.0  0.80489  0.01927  0.91884  1.0000
  H   H1087     1.0  0.57522  0.08305  0.52890  1.0000
  H   H1088     1.0  0.87803  0.03783  0.87753  1.0000
  H   H1089     1.0  0.84117  0.99483  0.91361  1.0000
  C   C911      1.0  0.82990  0.05357  0.87161  1.0000
  C   C912      1.0  0.78634  0.03786  0.89081  1.0000
  C   C913      1.0  0.80932  0.06033  0.85996  1.0000
  C   C914      1.0  0.78762  0.05256  0.86958  1.0000
  H   H1090     1.0  0.84611  0.06023  0.86313  1.0000
  H   H1091     1.0  0.76937  0.03190  0.89830  1.0000
  H   H1092     1.0  0.81010  0.07187  0.84344  1.0000
  H   H1093     1.0  0.77176  0.05805  0.86056  1.0000
  S   S231      1.0  0.95087  0.01422  0.85868  1.0000
  H   H1094     1.0  0.61195  0.03081  0.91081  1.0000
  H   H1095     1.0  0.58192  0.98172  0.57574  1.0000
  H   H1096     1.0  0.62083  0.02432  0.59264  1.0000
  C   C915      1.0  0.59556  0.98692  0.56124  1.0000
  H   H1097     1.0  0.66584  0.08787  0.90895  1.0000
  H   H1098     1.0  0.52919  0.04621  0.58127  1.0000
  C   C916      1.0  0.93368  0.17485  0.76777  1.0000
  C   C917      1.0  0.62697  0.01158  0.54764  1.0000
  H   H1099     1.0  0.96184  0.98927  0.96076  1.0000
  H   H1100     1.0  0.62229  0.01283  0.52887  1.0000
  C   C918      1.0  0.55571  0.19448  0.48854  1.0000
  S   S232      1.0  0.59365  0.01664  0.96426  1.0000
  H   H1101     1.0  0.77352  0.99286  0.51803  1.0000
  H   H1102     1.0  0.69564  0.20864  0.60646  1.0000
  H   H1103     1.0  0.96214  0.00994  0.71738  1.0000
  C   C919      1.0  0.68163  0.16869  0.63591  1.0000
  C   C920      1.0  0.68023  0.09606  0.87353  1.0000
  C   C921      1.0  0.80639  0.19315  0.65986  1.0000
  H   H1104     1.0  0.78758  0.98530  0.76363  1.0000
  H   H1105     1.0  0.91698  0.99159  0.68323  1.0000
  C   C922      1.0  0.77730  0.98053  0.78098  1.0000
  H   H1106     1.0  0.87176  0.99824  0.91494  1.0000
  H   H1107     1.0  0.94411  0.98987  0.55983  1.0000
  C   C923      1.0  0.56471  0.02922  0.57519  1.0000
  C   C924      1.0  0.79763  0.00927  0.79756  1.0000
  H   H1108     1.0  0.92304  0.99027  0.48376  1.0000
  C   C925      1.0  0.68626  0.14939  0.65270  1.0000
  H   H1109     1.0  0.77291  0.99572  0.54941  1.0000
  H   H1110     1.0  0.67937  0.13449  0.68891  1.0000
  H   H1111     1.0  0.64934  0.16709  0.69969  1.0000
  C   C926      1.0  0.65806  0.16748  0.68172  1.0000
  C   C927      1.0  0.94725  0.19077  0.75339  1.0000
  C   C928      1.0  0.76223  0.99280  0.82011  1.0000
  H   H1112     1.0  0.82419  0.19509  0.69093  1.0000
  H   H1113     1.0  0.81973  0.20616  0.78531  1.0000
  C   C929      1.0  0.96579  0.03878  0.52918  1.0000
  H   H1114     1.0  0.74131  0.01473  0.78138  1.0000
  H   H1115     1.0  0.72512  0.98800  0.73419  1.0000
  H   H1116     1.0  0.86883  0.06254  0.89553  1.0000
  C   C930      1.0  0.95829  0.02336  0.54858  1.0000
  C   C931      1.0  0.75879  0.02027  0.78491  1.0000
  S   S233      1.0  0.67009  0.98677  0.49795  1.0000
  H   H1117     1.0  0.87346  0.99012  0.69170  1.0000
  H   H1118     1.0  0.60705  0.05208  0.53426  1.0000
  C   C932      1.0  0.66001  0.08397  0.84178  1.0000
  H   H1119     1.0  0.81005  0.20475  0.72800  1.0000
  S   S234      1.0  0.81048  0.97989  0.95492  1.0000
  H   H1120     1.0  0.85980  0.00034  0.88645  1.0000
  Fe  Fe115     1.0  0.63419  0.99796  0.48457  1.0000
  H   H1121     1.0  0.83128  0.09238  0.69273  1.0000
  C   C933      1.0  0.67860  0.09482  0.84927  1.0000
  H   H1122     1.0  0.80950  0.99024  0.70302  1.0000
  H   H1123     1.0  0.86280  0.03182  0.94126  1.0000
  H   H1124     1.0  0.56084  0.01454  0.58822  1.0000
  H   H1125     1.0  0.58711  0.98851  0.54411  1.0000
  C   C934      1.0  0.58719  0.02969  0.56178  1.0000
  C   C935      1.0  0.78126  0.98519  0.53468  1.0000
  H   H1126     1.0  0.91449  0.17659  0.76759  1.0000
  H   H1127     1.0  0.93859  0.20487  0.74198  1.0000
  C   C936      1.0  0.85606  0.00501  0.90521  1.0000
  H   H1128     1.0  0.61665  0.05716  0.93871  1.0000
  Fe  Fe116     1.0  0.49138  0.10331  0.48005  1.0000
  C   C937      1.0  0.67480  0.14895  0.67565  1.0000
  N   N63       1.0  0.77396  0.00057  0.79643  1.0000
  C   C938      1.0  0.82919  0.03881  0.89352  1.0000
  C   C939      1.0  0.80679  0.03093  0.90257  1.0000
  H   H1129     1.0  0.63292  0.19462  0.60952  1.0000
  C   C940      1.0  0.61336  0.00768  0.58921  1.0000
  N   N64       1.0  0.85063  0.03100  0.90622  1.0000
  C   C941      1.0  0.87202  0.04284  0.89586  1.0000
  H   H1130     1.0  0.86145  0.10770  0.71068  1.0000
  H   H1131     1.0  0.69967  0.13517  0.64823  1.0000
  Fe  Fe117     1.0  0.65913  0.98514  0.90460  1.0000
  H   H1132     1.0  0.78024  0.21830  0.72961  1.0000
  H   H1133     1.0  0.58207  0.21903  0.48267  1.0000
  C   C942      1.0  0.84643  0.03612  0.93166  1.0000
  H   H1134     1.0  0.83283  0.02540  0.94187  1.0000
  H   H1135     1.0  0.84054  0.05524  0.93328  1.0000
  H   H1136     1.0  0.95905  0.04752  0.89278  1.0000
  H   H1137     1.0  0.78607  0.19536  0.62942  1.0000
  N   N65       1.0  0.95799  0.00287  0.47693  1.0000
  H   H1138     1.0  0.78803  0.00373  0.84260  1.0000
  C   C943      1.0  0.97197  0.18878  0.75361  1.0000
  C   C944      1.0  0.72868  0.97525  0.84391  1.0000
  C   C945      1.0  0.74354  0.98848  0.72729  1.0000
  C   C946      1.0  0.77170  0.99567  0.84198  1.0000
  H   H1139     1.0  0.52629  0.17302  0.49666  1.0000
  C   C947      1.0  0.95818  0.01031  0.50132  1.0000
  H   H1140     1.0  0.67445  0.19460  0.59197  1.0000
  C   C948      1.0  0.67675  0.20964  0.60253  1.0000
  H   H1141     1.0  0.72047  0.20836  0.65205  1.0000
  H   H1142     1.0  0.76022  0.97512  0.77614  1.0000
  H   H1143     1.0  0.69213  0.10175  0.83624  1.0000
  H   H1144     1.0  0.69505  0.10412  0.87919  1.0000
  H   H1145     1.0  0.69194  0.16818  0.61883  1.0000
  H   H1146     1.0  0.94285  0.97892  0.51937  1.0000
  H   H1147     1.0  0.93421  0.14440  0.79358  1.0000
  H   H1148     1.0  0.76731  0.99075  0.88049  1.0000
  S   S235      1.0  0.91018  0.02458  0.96664  1.0000
  H   H1149     1.0  0.79621  0.02551  0.80742  1.0000
  C   C949      1.0  0.63592  0.21080  0.61809  1.0000
  C   C950      1.0  0.55583  0.07703  0.48178  1.0000
  H   H1150     1.0  0.62262  0.21225  0.63380  1.0000
  C   C951      1.0  0.73846  0.97818  0.86497  1.0000
  S   S236      1.0  0.62091  0.97751  0.91470  1.0000
  H   H1151     1.0  0.75379  0.00730  0.48492  1.0000
  H   H1152     1.0  0.92335  0.02083  0.47200  1.0000
  C   C952      1.0  0.56533  0.21538  0.49247  1.0000
  S   S237      1.0  0.61898  0.03656  0.48222  1.0000
  S   S238      1.0  0.80305  0.99286  0.47363  1.0000
  H   H1153     1.0  0.71707  0.99331  0.47334  1.0000
  C   C953      1.0  0.75501  0.99357  0.47277  1.0000
  S   S239      1.0  0.53730  0.37553  0.40648  1.0000
  Fe  Fe118     1.0  0.77971  0.23909  0.38806  1.0000
  S   S240      1.0  0.78918  0.27499  0.37118  1.0000
  C   C954      1.0  0.50095  0.25600  0.47054  1.0000
  H   H1154     1.0  0.53800  0.22626  0.43012  1.0000
  S   S241      1.0  0.81768  0.24584  0.32782  1.0000
  S   S242      1.0  0.63260  0.23302  0.23855  1.0000
  Fe  Fe119     1.0  0.82588  0.25632  0.36374  1.0000
  S   S243      1.0  0.86300  0.26781  0.36816  1.0000
  Fe  Fe120     1.0  0.78011  0.26151  0.33697  1.0000
  S   S244      1.0  0.75969  0.28139  0.30704  1.0000
  H   H1155     1.0  0.57800  0.46757  0.09922  1.0000
  H   H1156     1.0  0.77036  0.23015  0.30003  1.0000
  H   H1157     1.0  0.55784  0.41184  0.32287  1.0000
  S   S245      1.0  0.94956  0.37009  0.46125  1.0000
  Fe  Fe121     1.0  0.94236  0.33333  0.45304  1.0000
  S   S246      1.0  0.90538  0.32769  0.44237  1.0000
  C   C955      1.0  0.49801  0.39402  0.19753  1.0000
  C   C956      1.0  0.54214  0.45541  0.38482  1.0000
  S   S247      1.0  0.50964  0.43703  0.07681  1.0000
  C   C957      1.0  0.61170  0.40386  0.41561  1.0000
  S   S248      1.0  0.52771  0.45313  0.12634  1.0000
  Fe  Fe122     1.0  0.51465  0.42047  0.11435  1.0000
  S   S249      1.0  0.53351  0.38295  0.11993  1.0000
  H   H1158     1.0  0.64312  0.41921  0.07158  1.0000
  Fe  Fe123     1.0  0.61070  0.29667  0.21168  1.0000
  S   S250      1.0  0.59836  0.28109  0.24850  1.0000
  S   S251      1.0  0.59582  0.33544  0.20364  1.0000
  Fe  Fe124     1.0  0.64362  0.25140  0.20288  1.0000
  H   H1159     1.0  0.94471  0.38618  0.35093  1.0000
  Fe  Fe125     1.0  0.59553  0.24784  0.23101  1.0000
  N   N66       1.0  0.61248  0.33462  0.29379  1.0000
  Fe  Fe126     1.0  0.63659  0.26789  0.25268  1.0000
  S   S252      1.0  0.65277  0.26767  0.28819  1.0000
  S   S253      1.0  0.60609  0.26371  0.19382  1.0000
  S   S254      1.0  0.64933  0.28593  0.21739  1.0000
  C   C958      1.0  0.50229  0.36929  0.19791  1.0000
  C   C959      1.0  0.74728  0.23552  0.46917  1.0000
  H   H1160     1.0  0.65241  0.36071  0.12426  1.0000
  C   C960      1.0  0.76251  0.23999  0.44848  1.0000
  C   C961      1.0  0.60652  0.44807  0.06565  1.0000
  H   H1161     1.0  0.60423  0.45934  0.36877  1.0000
  H   H1162     1.0  0.89353  0.22775  0.39572  1.0000
  C   C962      1.0  0.91602  0.38813  0.40631  1.0000
  C   C963      1.0  0.63493  0.33192  0.30563  1.0000
  H   H1163     1.0  0.87821  0.36931  0.40130  1.0000
  H   H1164     1.0  0.56293  0.41862  0.09725  1.0000
  C   C964      1.0  0.55075  0.37016  0.14343  1.0000
  C   C965      1.0  0.56162  0.34684  0.14235  1.0000
  C   C966      1.0  0.57525  0.33583  0.16068  1.0000
  C   C967      1.0  0.57840  0.34816  0.18025  1.0000
  C   C968      1.0  0.56777  0.37159  0.18117  1.0000
  C   C969      1.0  0.55395  0.38250  0.16296  1.0000
  H   H1165     1.0  0.55944  0.33716  0.12724  1.0000
  H   H1166     1.0  0.58348  0.31790  0.15955  1.0000
  H   H1167     1.0  0.57020  0.38139  0.19612  1.0000
  H   H1168     1.0  0.54579  0.40046  0.16405  1.0000
  C   C970      1.0  0.87449  0.28296  0.39026  1.0000
  C   C971      1.0  0.89918  0.28473  0.38918  1.0000
  C   C972      1.0  0.90907  0.29766  0.40536  1.0000
  C   C973      1.0  0.89434  0.30925  0.42278  1.0000
  C   C974      1.0  0.86970  0.30719  0.42409  1.0000
  C   C975      1.0  0.85984  0.29403  0.40809  1.0000
  H   H1169     1.0  0.91071  0.27635  0.37544  1.0000
  H   H1170     1.0  0.92800  0.29908  0.40396  1.0000
  H   H1171     1.0  0.85804  0.31613  0.43736  1.0000
  H   H1172     1.0  0.84085  0.29295  0.40918  1.0000
  C   C976      1.0  0.68276  0.27124  0.29272  1.0000
  C   C977      1.0  0.69084  0.26426  0.31534  1.0000
  C   C978      1.0  0.71447  0.26666  0.31979  1.0000
  C   C979      1.0  0.73021  0.27656  0.30178  1.0000
  C   C980      1.0  0.72212  0.28351  0.27914  1.0000
  C   C981      1.0  0.69861  0.28065  0.27453  1.0000
  H   H1173     1.0  0.67879  0.25688  0.32954  1.0000
  H   H1174     1.0  0.72037  0.26134  0.33732  1.0000
  H   H1175     1.0  0.73415  0.29119  0.26509  1.0000
  H   H1176     1.0  0.69272  0.28610  0.25703  1.0000
  C   C982      1.0  0.53741  0.40668  0.39922  1.0000
  C   C983      1.0  0.54266  0.42188  0.41568  1.0000
  C   C984      1.0  0.54527  0.44607  0.40842  1.0000
  C   C985      1.0  0.51361  0.32392  0.17463  1.0000
  C   C986      1.0  0.53610  0.44035  0.36861  1.0000
  C   C987      1.0  0.53390  0.41610  0.37575  1.0000
  H   H1177     1.0  0.54550  0.41488  0.43376  1.0000
  C   C988      1.0  0.64979  0.38978  0.09679  1.0000
  H   H1178     1.0  0.53381  0.44725  0.35037  1.0000
  H   H1179     1.0  0.52964  0.40453  0.36297  1.0000
  C   C989      1.0  0.61827  0.38067  0.12708  1.0000
  H   H1180     1.0  0.63280  0.42663  0.43241  1.0000
  S   S255      1.0  0.75593  0.23015  0.42148  1.0000
  H   H1181     1.0  0.58224  0.31479  0.29275  1.0000
  H   H1182     1.0  0.54988  0.25635  0.20132  1.0000
  H   H1183     1.0  0.61093  0.43638  0.05084  1.0000
  C   C990      1.0  0.61899  0.33532  0.26760  1.0000
  C   C991      1.0  0.47842  0.45252  0.38404  1.0000
  H   H1184     1.0  0.61163  0.36963  0.14262  1.0000
  H   H1185     1.0  0.58652  0.42252  0.36328  1.0000
  H   H1186     1.0  0.58999  0.38815  0.39208  1.0000
  C   C992      1.0  0.90887  0.36221  0.37521  1.0000
  H   H1187     1.0  0.94742  0.40501  0.37376  1.0000
  H   H1188     1.0  0.50962  0.32471  0.22195  1.0000
  C   C993      1.0  0.58986  0.45197  0.10584  1.0000
  C   C994      1.0  0.86942  0.34768  0.37571  1.0000
  C   C995      1.0  0.63538  0.40903  0.08703  1.0000
  C   C996      1.0  0.49416  0.31851  0.21446  1.0000
  S   S256      1.0  0.47629  0.42988  0.12681  1.0000
  H   H1189     1.0  0.79464  0.25526  0.43384  1.0000
  H   H1190     1.0  0.86499  0.32426  0.34906  1.0000
  C   C997      1.0  0.93488  0.39408  0.36665  1.0000
  H   H1191     1.0  0.95697  0.22867  0.45208  1.0000
  H   H1192     1.0  0.57065  0.40986  0.28000  1.0000
  S   S257      1.0  0.56440  0.22583  0.24289  1.0000
  C   C998      1.0  0.59023  0.37538  0.28492  1.0000
  H   H1193     1.0  0.58682  0.40226  0.45745  1.0000
  H   H1194     1.0  0.62948  0.35058  0.26098  1.0000
  H   H1195     1.0  0.90999  0.37527  0.42134  1.0000
  C   C999      1.0  0.59764  0.35603  0.30132  1.0000
  C   C1000     1.0  0.78280  0.25176  0.44973  1.0000
  H   H1196     1.0  0.60988  0.29680  0.29511  1.0000
  C   C1001     1.0  0.64124  0.37564  0.11675  1.0000
  C   C1002     1.0  0.88506  0.36091  0.38540  1.0000
  C   C1003     1.0  0.51953  0.25181  0.45289  1.0000
  H   H1197     1.0  0.90079  0.40122  0.40203  1.0000
  S   S258      1.0  0.55106  0.32185  0.45509  1.0000
  H   H1198     1.0  0.60610  0.45882  0.11113  1.0000
  H   H1199     1.0  0.53104  0.26564  0.44660  1.0000
  C   C1004     1.0  0.49261  0.24123  0.21092  1.0000
  H   H1200     1.0  0.70608  0.24235  0.24064  1.0000
  H   H1201     1.0  0.63025  0.31898  0.26266  1.0000
  H   H1202     1.0  0.51763  0.30456  0.17286  1.0000
  Fe  Fe127     1.0  0.48913  0.46350  0.13685  1.0000
  C   C1005     1.0  0.51259  0.25211  0.20003  1.0000
  C   C1006     1.0  0.62259  0.42500  0.41758  1.0000
  C   C1007     1.0  0.94658  0.35932  0.39240  1.0000
  C   C1008     1.0  0.60475  0.39245  0.45808  1.0000
  H   H1203     1.0  0.59393  0.46305  0.05892  1.0000
  H   H1204     1.0  0.52183  0.46619  0.17986  1.0000
  H   H1205     1.0  0.65012  0.38733  0.43954  1.0000
  H   H1206     1.0  0.51096  0.40439  0.20359  1.0000
  N   N67       1.0  0.59594  0.43483  0.08749  1.0000
  H   H1207     1.0  0.60302  0.33632  0.25740  1.0000
  H   H1208     1.0  0.64573  0.36750  0.41782  1.0000
  H   H1209     1.0  0.61667  0.40458  0.46416  1.0000
  C   C1009     1.0  0.60696  0.44377  0.38133  1.0000
  C   C1010     1.0  0.59947  0.31323  0.30089  1.0000
  C   C1011     1.0  0.91589  0.34941  0.35491  1.0000
  C   C1012     1.0  0.57375  0.42602  0.08132  1.0000
  H   H1210     1.0  0.69385  0.22672  0.28154  1.0000
  C   C1013     1.0  0.56889  0.39644  0.31695  1.0000
  H   H1211     1.0  0.96930  0.26677  0.46279  1.0000
  C   C1014     1.0  0.90014  0.33608  0.34552  1.0000
  C   C1015     1.0  0.97391  0.22899  0.45924  1.0000
  H   H1212     1.0  0.57762  0.41171  0.06898  1.0000
  H   H1213     1.0  0.64472  0.34812  0.30163  1.0000
  H   H1214     1.0  0.59571  0.31000  0.32054  1.0000
  H   H1215     1.0  0.64706  0.31658  0.29954  1.0000
  H   H1216     1.0  0.58037  0.44389  0.12232  1.0000
  C   C1016     1.0  0.59691  0.42298  0.37830  1.0000
  C   C1017     1.0  0.57613  0.39526  0.29277  1.0000
  H   H1217     1.0  0.51879  0.36125  0.20435  1.0000
  H   H1218     1.0  0.63192  0.32850  0.32533  1.0000
  H   H1219     1.0  0.56972  0.37857  0.35224  1.0000
  H   H1220     1.0  0.48121  0.44970  0.36524  1.0000
  H   H1221     1.0  0.91987  0.40632  0.36010  1.0000
  C   C1018     1.0  0.53677  0.23274  0.23075  1.0000
  C   C1019     1.0  0.58996  0.35788  0.32584  1.0000
  C   C1020     1.0  0.52333  0.22954  0.44344  1.0000
  H   H1222     1.0  0.85154  0.34633  0.38413  1.0000
  H   H1223     1.0  0.58602  0.40296  0.12612  1.0000
  H   H1224     1.0  0.51119  0.26338  0.18358  1.0000
  S   S259      1.0  0.67439  0.23445  0.17964  1.0000
  C   C1021     1.0  0.57571  0.37775  0.33345  1.0000
  N   N68       1.0  0.92610  0.37575  0.38509  1.0000
  C   C1022     1.0  0.60373  0.39983  0.11749  1.0000
  H   H1225     1.0  0.93376  0.34928  0.34636  1.0000
  Fe  Fe128     1.0  0.51997  0.47053  0.08984  1.0000
  H   H1226     1.0  0.60033  0.34953  0.44559  1.0000
  C   C1023     1.0  0.87696  0.33520  0.35591  1.0000
  H   H1227     1.0  0.92941  0.39813  0.41330  1.0000
  C   C1024     1.0  0.59909  0.40327  0.39514  1.0000
  C   C1025     1.0  0.63847  0.37396  0.43529  1.0000
  H   H1228     1.0  0.94041  0.34452  0.40520  1.0000
  C   C1026     1.0  0.62001  0.44470  0.40079  1.0000
  C   C1027     1.0  0.61178  0.41460  0.09714  1.0000
  H   H1229     1.0  0.59476  0.34385  0.33933  1.0000
  C   C1028     1.0  0.59919  0.36406  0.43086  1.0000
  Fe  Fe129     1.0  0.53427  0.35869  0.44485  1.0000
  H   H1230     1.0  0.59499  0.37559  0.26592  1.0000
  H   H1231     1.0  0.62270  0.45626  0.06918  1.0000
  H   H1232     1.0  0.66771  0.38576  0.08883  1.0000
  C   C1029     1.0  0.53455  0.24806  0.20998  1.0000
  N   N69       1.0  0.61339  0.38385  0.43450  1.0000
  H   H1233     1.0  0.56206  0.44048  0.07252  1.0000
  H   H1234     1.0  0.49719  0.29873  0.21534  1.0000
  H   H1235     1.0  0.95940  0.36855  0.40117  1.0000
  H   H1236     1.0  0.58005  0.37030  0.43032  1.0000
  H   H1237     1.0  0.62779  0.46096  0.40304  1.0000
  H   H1238     1.0  0.60549  0.35571  0.41411  1.0000
  H   H1239     1.0  0.90599  0.32595  0.33038  1.0000
  H   H1240     1.0  0.52921  0.32978  0.18213  1.0000
  H   H1241     1.0  0.55012  0.45754  0.42101  1.0000
  H   H1242     1.0  0.95687  0.35114  0.37708  1.0000
  S   S260      1.0  0.49879  0.35123  0.46383  1.0000
  H   H1243     1.0  0.64027  0.35869  0.44926  1.0000
  H   H1244     1.0  0.73155  0.22644  0.46826  1.0000
  H   H1245     1.0  0.50289  0.44800  0.46564  1.0000
  S   S261      1.0  0.76798  0.22728  0.35468  1.0000
  C   C1030     1.0  0.49474  0.22612  0.23183  1.0000
  H   H1246     1.0  0.51275  0.33314  0.15632  1.0000
  C   C1031     1.0  0.70549  0.22394  0.23557  1.0000
  C   C1032     1.0  0.48589  0.35526  0.18967  1.0000
  H   H1247     1.0  0.47685  0.29739  0.18097  1.0000
  N   N70       1.0  0.49120  0.32914  0.18974  1.0000
  C   C1033     1.0  0.47732  0.40554  0.18903  1.0000
  H   H1248     1.0  0.72996  0.22341  0.29470  1.0000
  H   H1249     1.0  0.47805  0.32299  0.22662  1.0000
  H   H1250     1.0  0.54396  0.47148  0.21449  1.0000
  C   C1034     1.0  0.78771  0.25915  0.47163  1.0000
  H   H1251     1.0  0.79582  0.26929  0.72509  1.0000
  H   H1252     1.0  0.95761  0.44934  0.71208  1.0000
  C   C1035     1.0  0.91015  0.35236  0.62200  1.0000
  C   C1036     1.0  0.54937  0.26823  0.52948  1.0000
  S   S262      1.0  0.85570  0.23518  0.76254  1.0000
  H   H1253     1.0  0.52006  0.23688  0.53138  1.0000
  H   H1254     1.0  0.53156  0.27439  0.52323  1.0000
  H   H1255     1.0  0.92008  0.39823  0.67312  1.0000
  Fe  Fe130     1.0  0.90647  0.30449  0.73041  1.0000
  S   S263      1.0  0.92309  0.29437  0.69457  1.0000
  S   S264      1.0  0.91271  0.34265  0.73777  1.0000
  Fe  Fe131     1.0  0.88230  0.25716  0.73915  1.0000
  S   S265      1.0  0.89817  0.24445  0.70434  1.0000
  Fe  Fe132     1.0  0.93152  0.25849  0.71341  1.0000
  H   H1256     1.0  0.95106  0.45122  0.50484  1.0000
  Fe  Fe133     1.0  0.88803  0.28155  0.68879  1.0000
  S   S266      1.0  0.87445  0.28675  0.65179  1.0000
  S   S267      1.0  0.91670  0.26868  0.74972  1.0000
  S   S268      1.0  0.87039  0.29410  0.72312  1.0000
  Fe  Fe134     1.0  0.74969  0.27449  0.60241  1.0000
  C   C1037     1.0  0.93185  0.35251  0.66902  1.0000
  S   S269      1.0  0.76613  0.29501  0.62842  1.0000
  Fe  Fe135     1.0  0.70411  0.26751  0.57796  1.0000
  H   H1257     1.0  0.83650  0.29747  0.50616  1.0000
  S   S270      1.0  0.66366  0.27675  0.57706  1.0000
  H   H1258     1.0  0.88744  0.35109  0.53771  1.0000
  Fe  Fe136     1.0  0.75350  0.25875  0.55233  1.0000
  S   S271      1.0  0.77897  0.26450  0.51942  1.0000
  S   S272      1.0  0.71762  0.25435  0.61386  1.0000
  S   S273      1.0  0.73436  0.29080  0.56855  1.0000
  C   C1038     1.0  0.66359  0.23144  0.63633  1.0000
  C   C1039     1.0  0.92556  0.28452  0.60305  1.0000
  C   C1040     1.0  0.53102  0.22541  0.51977  1.0000
  S   S274      1.0  0.52827  0.32936  0.51015  1.0000
  H   H1259     1.0  0.97342  0.26929  0.51807  1.0000
  Fe  Fe137     1.0  0.51243  0.36513  0.49510  1.0000
  H   H1260     1.0  0.66279  0.24762  0.62338  1.0000
  Fe  Fe138     1.0  0.56195  0.33705  0.48746  1.0000
  S   S275      1.0  0.60140  0.32775  0.49390  1.0000
  H   H1261     1.0  0.95127  0.40836  0.49912  1.0000
  S   S276      1.0  0.95389  0.36610  0.53286  1.0000
  H   H1262     1.0  0.90704  0.29146  0.60522  1.0000
  C   C1041     1.0  0.77234  0.25487  0.49231  1.0000
  H   H1263     1.0  0.55786  0.28461  0.53195  1.0000
  H   H1264     1.0  0.90892  0.40989  0.63622  1.0000
  S   S277      1.0  0.95146  0.31689  0.48928  1.0000
  H   H1265     1.0  0.79713  0.31385  0.58410  1.0000
  C   C1042     1.0  0.64668  0.29096  0.55365  1.0000
  C   C1043     1.0  0.62184  0.29543  0.55815  1.0000
  C   C1044     1.0  0.60768  0.30664  0.54025  1.0000
  C   C1045     1.0  0.61815  0.31343  0.51742  1.0000
  C   C1046     1.0  0.64295  0.30883  0.51290  1.0000
  C   C1047     1.0  0.65710  0.29771  0.53081  1.0000
  H   H1266     1.0  0.61352  0.29052  0.57576  1.0000
  H   H1267     1.0  0.58875  0.31034  0.54425  1.0000
  H   H1268     1.0  0.65136  0.31396  0.49539  1.0000
  H   H1269     1.0  0.67611  0.29442  0.52693  1.0000
  H   H1270     1.0  0.91260  0.34269  0.58577  1.0000
  C   C1048     1.0  0.87613  0.33925  0.53118  1.0000
  H   H1271     1.0  0.87187  0.35844  0.66729  1.0000
  S   S278      1.0  0.49026  0.39324  0.51576  1.0000
  S   S279      1.0  0.96647  0.45835  0.80752  1.0000
  C   C1049     1.0  0.84395  0.28713  0.64711  1.0000
  C   C1050     1.0  0.82664  0.30181  0.65933  1.0000
  C   C1051     1.0  0.80298  0.30401  0.65331  1.0000
  C   C1052     1.0  0.79613  0.29103  0.63556  1.0000
  C   C1053     1.0  0.81331  0.27583  0.62378  1.0000
  C   C1054     1.0  0.83717  0.27425  0.62923  1.0000
  H   H1272     1.0  0.83164  0.31215  0.67285  1.0000
  H   H1273     1.0  0.78986  0.31593  0.66243  1.0000
  H   H1274     1.0  0.80829  0.26552  0.61028  1.0000
  H   H1275     1.0  0.85043  0.26291  0.61960  1.0000
  H   H1276     1.0  0.97127  0.46144  0.74925  1.0000
  C   C1055     1.0  0.94563  0.38871  0.77241  1.0000
  C   C1056     1.0  0.93138  0.37885  0.75738  1.0000
  C   C1057     1.0  0.93086  0.35403  0.75746  1.0000
  C   C1058     1.0  0.94505  0.33918  0.77271  1.0000
  N   N71       1.0  0.90875  0.36535  0.66353  1.0000
  H   H1277     1.0  0.94549  0.40781  0.77230  1.0000
  H   H1278     1.0  0.92047  0.39059  0.74578  1.0000
  H   H1279     1.0  0.94489  0.32009  0.77310  1.0000
  H   H1280     1.0  0.88819  0.39742  0.67361  1.0000
  H   H1281     1.0  0.81151  0.33956  0.57217  1.0000
  H   H1282     1.0  0.80418  0.27728  0.56578  1.0000
  H   H1283     1.0  0.92957  0.29621  0.56603  1.0000
  C   C1059     1.0  0.88190  0.33125  0.50861  1.0000
  C   C1060     1.0  0.95677  0.44539  0.54219  1.0000
  H   H1284     1.0  0.59578  0.26377  0.52473  1.0000
  C   C1061     1.0  0.95399  0.41372  0.51643  1.0000
  H   H1285     1.0  0.82210  0.27435  0.53860  1.0000
  C   C1062     1.0  0.91132  0.38046  0.58688  1.0000
  H   H1286     1.0  0.74019  0.23965  0.50685  1.0000
  C   C1063     1.0  0.95962  0.37386  0.78784  1.0000
  C   C1064     1.0  0.77791  0.22593  0.64942  1.0000
  C   C1065     1.0  0.82039  0.28345  0.55532  1.0000
  C   C1066     1.0  0.96032  0.42817  0.56132  1.0000
  N   N72       1.0  0.80491  0.23797  0.70601  1.0000
  C   C1067     1.0  0.79778  0.31744  0.53697  1.0000
  C   C1068     1.0  0.96005  0.40386  0.55812  1.0000
  C   C1069     1.0  0.81384  0.31978  0.57422  1.0000
  H   H1287     1.0  0.85227  0.33928  0.56241  1.0000
  C   C1070     1.0  0.91039  0.39911  0.60134  1.0000
  S   S280      1.0  0.77047  0.24409  0.58555  1.0000
  C   C1071     1.0  0.90515  0.38670  0.67723  1.0000
  Fe  Fe139     1.0  0.51671  0.31590  0.47721  1.0000
  H   H1288     1.0  0.97388  0.38191  0.72230  1.0000
  H   H1289     1.0  0.89748  0.33686  0.49764  1.0000
  H   H1290     1.0  0.80272  0.23020  0.74428  1.0000
  H   H1291     1.0  0.89207  0.33220  0.66544  1.0000
  H   H1292     1.0  0.57829  0.25959  0.47520  1.0000
  C   C1072     1.0  0.91130  0.35713  0.59717  1.0000
  C   C1073     1.0  0.84715  0.30914  0.51376  1.0000
  Fe  Fe140     1.0  0.73784  0.22473  0.59502  1.0000
  H   H1293     1.0  0.48234  0.44921  0.49200  1.0000
  C   C1074     1.0  0.97172  0.46102  0.71099  1.0000
  C   C1075     1.0  0.86751  0.31614  0.49999  1.0000
  H   H1294     1.0  0.88807  0.34650  0.69225  1.0000
  N   N73       1.0  0.56389  0.25358  0.51204  1.0000
  S   S281      1.0  0.96701  0.23846  0.70419  1.0000
  H   H1295     1.0  0.82824  0.31384  0.58608  1.0000
  H   H1296     1.0  0.79517  0.27437  0.69350  1.0000
  C   C1076     1.0  0.90925  0.39458  0.62620  1.0000
  H   H1297     1.0  0.79881  0.30907  0.51986  1.0000
  C   C1077     1.0  0.79124  0.26134  0.70903  1.0000
  C   C1078     1.0  0.85577  0.33235  0.54517  1.0000
  H   H1298     1.0  0.91261  0.38411  0.56760  1.0000
  H   H1299     1.0  0.91059  0.33392  0.62909  1.0000
  C   C1079     1.0  0.95383  0.43802  0.51972  1.0000
  C   C1080     1.0  0.58768  0.24757  0.52095  1.0000
  H   H1300     1.0  0.77177  0.25968  0.71137  1.0000
  H   H1301     1.0  0.90431  0.38172  0.69690  1.0000
  C   C1081     1.0  0.75213  0.24300  0.49103  1.0000
  H   H1302     1.0  0.93257  0.34796  0.68858  1.0000
  C   C1082     1.0  0.95661  0.39655  0.53574  1.0000
  N   N74       1.0  0.81860  0.30973  0.55071  1.0000
  H   H1303     1.0  0.80338  0.26833  0.47251  1.0000
  H   H1304     1.0  0.84210  0.22483  0.70494  1.0000
  C   C1083     1.0  0.96265  0.27753  0.57735  1.0000
  S   S282      1.0  0.49625  0.28299  0.48435  1.0000
  C   C1084     1.0  0.90894  0.37097  0.63734  1.0000
  H   H1305     1.0  0.93529  0.33554  0.66045  1.0000
  H   H1306     1.0  0.83592  0.27683  0.56545  1.0000
  C   C1085     1.0  0.56661  0.26860  0.48914  1.0000
  C   C1086     1.0  0.88940  0.35001  0.67240  1.0000
  C   C1087     1.0  0.84052  0.31715  0.53673  1.0000
  H   H1307     1.0  0.94682  0.36348  0.66261  1.0000
  S   S283      1.0  0.54726  0.37438  0.47547  1.0000
  H   H1308     1.0  0.91101  0.41721  0.59311  1.0000
  H   H1309     1.0  0.54691  0.25826  0.54737  1.0000
  Fe  Fe141     1.0  0.96150  0.35290  0.49600  1.0000
  C   C1088     1.0  0.55331  0.23151  0.50828  1.0000
  C   C1089     1.0  0.93856  0.28697  0.58072  1.0000
  H   H1310     1.0  0.96139  0.24962  0.54207  1.0000
  C   C1090     1.0  0.95920  0.34905  0.78780  1.0000
  H   H1311     1.0  0.92596  0.27079  0.63991  1.0000
  C   C1091     1.0  0.93616  0.27286  0.62268  1.0000
  H   H1312     1.0  0.97240  0.27011  0.74060  1.0000
  H   H1313     1.0  0.94551  0.27763  0.53344  1.0000
  H   H1314     1.0  0.87209  0.30996  0.48238  1.0000
  H   H1315     1.0  0.96794  0.25460  0.63555  1.0000
  H   H1316     1.0  0.95910  0.31490  0.54289  1.0000
  C   C1092     1.0  0.96346  0.26867  0.53610  1.0000
  S   S284      1.0  0.72268  0.23623  0.55981  1.0000
  H   H1317     1.0  0.60053  0.23875  0.50776  1.0000
  H   H1318     1.0  0.79607  0.33706  0.53262  1.0000
  H   H1319     1.0  0.76478  0.23418  0.63782  1.0000
  H   H1320     1.0  0.83585  0.25220  0.68696  1.0000
  C   C1093     1.0  0.97299  0.26588  0.59784  1.0000
  C   C1094     1.0  0.95983  0.26367  0.62012  1.0000
  H   H1321     1.0  0.68101  0.23002  0.64406  1.0000
  H   H1322     1.0  0.78090  0.31232  0.54701  1.0000
  H   H1323     1.0  0.83501  0.25165  0.71889  1.0000
  H   H1324     1.0  0.96960  0.33729  0.79981  1.0000
  H   H1325     1.0  0.96225  0.39071  0.57314  1.0000
  H   H1326     1.0  0.57453  0.28539  0.49131  1.0000
  H   H1327     1.0  0.96262  0.43364  0.57871  1.0000
  C   C1095     1.0  0.83053  0.24180  0.70407  1.0000
  H   H1328     1.0  0.77287  0.25433  0.67135  1.0000
  H   H1329     1.0  0.96515  0.34125  0.71869  1.0000
  H   H1330     1.0  0.64955  0.23514  0.65090  1.0000
  S   S285      1.0  0.97218  0.46087  0.66253  1.0000
  H   H1331     1.0  0.54904  0.27353  0.48200  1.0000
  C   C1096     1.0  0.78265  0.23727  0.66907  1.0000
  H   H1332     1.0  0.60350  0.37753  0.47244  1.0000
  C   C1097     1.0  0.79953  0.22671  0.68484  1.0000
  H   H1333     1.0  0.63197  0.22662  0.60525  1.0000
  H   H1334     1.0  0.67345  0.22617  0.59049  1.0000
  H   H1335     1.0  0.58657  0.23551  0.53771  1.0000
  C   C1098     1.0  0.48404  0.44641  0.47264  1.0000
  C   C1099     1.0  0.48581  0.23802  0.47807  1.0000
  H   H1336     1.0  0.48048  0.42761  0.47189  1.0000
  H   H1337     1.0  0.49237  0.69325  0.25848  1.0000
  C   C1100     1.0  0.69645  0.67693  0.10937  1.0000
  C   C1101     1.0  0.47821  0.67907  0.30360  1.0000
  H   H1338     1.0  0.70513  0.66490  0.12265  1.0000
  Fe  Fe142     1.0  0.62081  0.68919  0.24658  1.0000
  C   C1102     1.0  0.68531  0.72159  0.15416  1.0000
  S   S286      1.0  0.61617  0.65012  0.26036  1.0000
  C   C1103     1.0  0.55037  0.58598  0.22108  1.0000
  C   C1104     1.0  0.52120  0.56127  0.24231  1.0000
  S   S287      1.0  0.65742  0.70095  0.23367  1.0000
  H   H1339     1.0  0.66462  0.72077  0.06341  1.0000
  Fe  Fe143     1.0  0.51716  0.50819  0.29326  1.0000
  S   S288      1.0  0.54654  0.52271  0.30998  1.0000
  H   H1340     1.0  0.66204  0.67642  0.12896  1.0000
  H   H1341     1.0  0.49462  0.50370  0.01760  1.0000
  S   S289      1.0  0.50665  0.53971  0.35207  1.0000
  H   H1342     1.0  0.91475  0.70282  0.03903  1.0000
  Fe  Fe144     1.0  0.52063  0.55475  0.31525  1.0000
  S   S290      1.0  0.52591  0.59396  0.30246  1.0000
  Fe  Fe145     1.0  0.52991  0.50611  0.34485  1.0000
  S   S291      1.0  0.49159  0.54060  0.29750  1.0000
  H   H1343     1.0  0.49723  0.56721  0.99517  1.0000
  S   S292      1.0  0.52132  0.59795  0.02265  1.0000
  H   H1344     1.0  0.48307  0.48982  0.37807  1.0000
  H   H1345     1.0  0.85802  0.67518  0.98896  1.0000
  H   H1346     1.0  0.58705  0.63021  0.22403  1.0000
  S   S293      1.0  0.76241  0.70288  0.12415  1.0000
  C   C1105     1.0  0.56903  0.59809  0.22797  1.0000
  H   H1347     1.0  0.74896  0.71997  0.03689  1.0000
  S   S294      1.0  0.54639  0.49084  0.06483  1.0000
  H   H1348     1.0  0.52844  0.63091  0.18158  1.0000
  H   H1349     1.0  0.72869  0.68140  0.08823  1.0000
  C   C1106     1.0  0.73903  0.71010  0.05210  1.0000
  S   S295      1.0  0.50285  0.48915  0.32765  1.0000
  C   C1107     1.0  0.89489  0.67414  0.99554  1.0000
  C   C1108     1.0  0.87051  0.68133  0.99974  1.0000
  C   C1109     1.0  0.86205  0.69620  0.01796  1.0000
  C   C1110     1.0  0.87792  0.70406  0.03230  1.0000
  C   C1111     1.0  0.90232  0.69705  0.02796  1.0000
  C   C1112     1.0  0.91078  0.68223  0.00971  1.0000
  C   C1113     1.0  0.53596  0.59845  0.20390  1.0000
  C   C1114     1.0  0.73278  0.71052  0.13555  1.0000
  H   H1350     1.0  0.55809  0.53276  0.25601  1.0000
  H   H1351     1.0  0.92955  0.67682  0.00679  1.0000
  H   H1352     1.0  0.49329  0.66519  0.30571  1.0000
  H   H1353     1.0  0.71677  0.71424  0.01310  1.0000
  H   H1354     1.0  0.54625  0.52672  0.21811  1.0000
  N   N75       1.0  0.54581  0.56146  0.23083  1.0000
  H   H1355     1.0  0.74492  0.71562  0.06880  1.0000
  C   C1115     1.0  0.48233  0.55854  0.98921  1.0000
  C   C1116     1.0  0.55808  0.63309  0.20187  1.0000
  C   C1117     1.0  0.59087  0.63528  0.27311  1.0000
  C   C1118     1.0  0.56771  0.64638  0.27372  1.0000
  C   C1119     1.0  0.54821  0.63348  0.28289  1.0000
  C   C1120     1.0  0.55145  0.60934  0.29160  1.0000
  C   C1121     1.0  0.57462  0.59831  0.29124  1.0000
  C   C1122     1.0  0.59412  0.61118  0.28198  1.0000
  H   H1356     1.0  0.56481  0.66483  0.26692  1.0000
  H   H1357     1.0  0.53049  0.64230  0.28319  1.0000
  H   H1358     1.0  0.57758  0.57991  0.29817  1.0000
  H   H1359     1.0  0.61192  0.60238  0.28169  1.0000
  Fe  Fe146     1.0  0.48000  0.52309  0.33386  1.0000
  H   H1360     1.0  0.70988  0.68663  0.02964  1.0000
  H   H1361     1.0  0.56002  0.56181  0.26481  1.0000
  S   S296      1.0  0.53046  0.49137  0.25887  1.0000
  C   C1123     1.0  0.72367  0.69885  0.15712  1.0000
  C   C1124     1.0  0.70018  0.70469  0.16666  1.0000
  H   H1362     1.0  0.73477  0.68518  0.16651  1.0000
  H   H1363     1.0  0.69339  0.69568  0.18334  1.0000
  H   H1364     1.0  0.51824  0.57333  0.25697  1.0000
  H   H1365     1.0  0.58097  0.59022  0.24088  1.0000
  Fe  Fe147     1.0  0.52922  0.61070  0.98347  1.0000
  H   H1366     1.0  0.77171  0.70360  0.17350  1.0000
  H   H1367     1.0  0.84325  0.70144  0.02099  1.0000
  C   C1125     1.0  0.53976  0.62168  0.19456  1.0000
  C   C1126     1.0  0.53942  0.52076  0.05357  1.0000
  C   C1127     1.0  0.55141  0.52962  0.03207  1.0000
  C   C1128     1.0  0.54604  0.55318  0.02237  1.0000
  C   C1129     1.0  0.52899  0.56832  0.03439  1.0000
  C   C1130     1.0  0.51741  0.55962  0.05619  1.0000
  C   C1131     1.0  0.52238  0.53588  0.06561  1.0000
  H   H1368     1.0  0.56475  0.51815  0.02271  1.0000
  H   H1369     1.0  0.55531  0.55972  0.00576  1.0000
  C   C1132     1.0  0.57275  0.62126  0.21840  1.0000
  H   H1370     1.0  0.51316  0.52938  0.08228  1.0000
  S   S297      1.0  0.79698  0.71984  0.05991  1.0000
  C   C1133     1.0  0.67418  0.70885  0.07598  1.0000
  C   C1134     1.0  0.56200  0.55118  0.24905  1.0000
  C   C1135     1.0  0.51276  0.47440  0.19509  1.0000
  S   S298      1.0  0.54801  0.48527  0.37566  1.0000
  C   C1136     1.0  0.75468  0.71290  0.20749  1.0000
  H   H1371     1.0  0.56099  0.65113  0.19474  1.0000
  N   N76       1.0  0.71292  0.71502  0.05140  1.0000
  H   H1372     1.0  0.49677  0.66158  0.26217  1.0000
  H   H1373     1.0  0.48871  0.48530  0.98136  1.0000
  C   C1137     1.0  0.66101  0.69912  0.09618  1.0000
  H   H1374     1.0  0.52161  0.59030  0.19759  1.0000
  H   H1375     1.0  0.53536  0.55049  0.19799  1.0000
  C   C1138     1.0  0.54865  0.54553  0.21122  1.0000
  H   H1376     1.0  0.74494  0.69094  0.05080  1.0000
  C   C1139     1.0  0.69917  0.70355  0.07231  1.0000
  C   C1140     1.0  0.51372  0.48794  0.23478  1.0000
  C   C1141     1.0  0.76978  0.71643  0.18674  1.0000
  H   H1377     1.0  0.56665  0.54588  0.20151  1.0000
  H   H1378     1.0  0.50429  0.57122  0.06568  1.0000
  H   H1379     1.0  0.68728  0.71088  0.02662  1.0000
  S   S299      1.0  0.60400  0.70780  0.21440  1.0000
  S   S300      1.0  0.61218  0.71991  0.26933  1.0000
  H   H1380     1.0  0.50758  0.56685  0.22960  1.0000
  H   H1381     1.0  0.51740  0.54308  0.25011  1.0000
  C   C1142     1.0  0.48954  0.49556  0.23496  1.0000
  H   H1382     1.0  0.58089  0.54993  0.24159  1.0000
  H   H1383     1.0  0.74459  0.69741  0.21014  1.0000
  H   H1384     1.0  0.51805  0.50844  0.97972  1.0000
  C   C1143     1.0  0.70639  0.70633  0.02924  1.0000
  C   C1144     1.0  0.70986  0.68673  0.08937  1.0000
  C   C1145     1.0  0.48904  0.52309  0.01554  1.0000
  H   H1385     1.0  0.47755  0.49690  0.41963  1.0000
  H   H1386     1.0  0.52435  0.53814  0.98143  1.0000
  H   H1387     1.0  0.48605  0.69645  0.30250  1.0000
  C   C1146     1.0  0.67217  0.68336  0.11295  1.0000
  S   S301      1.0  0.90449  0.65512  0.97246  1.0000
  S   S302      1.0  0.48259  0.48373  0.10145  1.0000
  C   C1147     1.0  0.47636  0.47892  0.41546  1.0000
  H   H1388     1.0  0.48047  0.50365  0.25029  1.0000
  C   C1148     1.0  0.47701  0.49246  0.21531  1.0000
  H   H1389     1.0  0.64209  0.70407  0.09913  1.0000
  H   H1390     1.0  0.51239  0.70912  0.21449  1.0000
  H   H1391     1.0  0.49007  0.49222  0.45835  1.0000
  H   H1392     1.0  0.48638  0.63136  0.29136  1.0000
  H   H1393     1.0  0.50221  0.53211  0.02367  1.0000
  H   H1394     1.0  0.57922  0.68485  0.97633  1.0000
  C   C1149     1.0  0.51063  0.52718  0.97653  1.0000
  N   N77       1.0  0.48728  0.53224  0.99026  1.0000
  H   H1395     1.0  0.50976  0.69048  0.98024  1.0000
  C   C1150     1.0  0.48291  0.67678  0.26098  1.0000
  Fe  Fe148     1.0  0.63983  0.72177  0.20330  1.0000
  C   C1151     1.0  0.48855  0.48188  0.19530  1.0000
  C   C1152     1.0  0.52525  0.47742  0.21475  1.0000
  C   C1153     1.0  0.47958  0.47510  0.39127  1.0000
  H   H1396     1.0  0.55495  0.70712  0.97580  1.0000
  H   H1397     1.0  0.58311  0.71380  0.98471  1.0000
  H   H1398     1.0  0.55134  0.72201  0.22173  1.0000
  S   S303      1.0  0.86830  0.72296  0.05548  1.0000
  C   C1154     1.0  0.57453  0.70426  0.97205  1.0000
  C   C1155     1.0  0.77883  0.72051  0.97176  1.0000
  H   H1399     1.0  0.57360  0.67880  0.93564  1.0000
  S   S304      1.0  0.49792  0.61854  0.96149  1.0000
  S   S305      1.0  0.88381  0.69642  0.78907  1.0000
  Fe  Fe149     1.0  0.96812  0.53537  0.60576  1.0000
  H   H1400     1.0  0.92034  0.57454  0.74797  1.0000
  C   C1156     1.0  0.83414  0.70209  0.89511  1.0000
  S   S306      1.0  0.94790  0.50267  0.61091  1.0000
  Fe  Fe150     1.0  0.92232  0.67532  0.70552  1.0000
  S   S307      1.0  0.93615  0.68788  0.73800  1.0000
  S   S308      1.0  0.94117  0.63870  0.69714  1.0000
  C   C1157     1.0  0.94619  0.52711  0.69864  1.0000
  Fe  Fe151     1.0  0.89805  0.69880  0.74996  1.0000
  C   C1158     1.0  0.50083  0.71071  0.94758  1.0000
  S   S309      1.0  0.95605  0.65223  0.92331  1.0000
  S   S310      1.0  0.88392  0.68386  0.71940  1.0000
  H   H1401     1.0  0.94953  0.53311  0.76911  1.0000
  S   S311      1.0  0.95031  0.57314  0.60965  1.0000
  C   C1159     1.0  0.94308  0.53097  0.75151  1.0000
  Fe  Fe152     1.0  0.52038  0.59806  0.93439  1.0000
  H   H1402     1.0  0.96983  0.59577  0.68751  1.0000
  S   S312      1.0  0.50597  0.56749  0.91848  1.0000
  Fe  Fe153     1.0  0.56530  0.62344  0.94086  1.0000
  S   S313      1.0  0.76779  0.71249  0.92727  1.0000
  S   S314      1.0  0.60535  0.62691  0.93275  1.0000
  S   S315      1.0  0.55112  0.58889  0.95707  1.0000
  Fe  Fe154     1.0  0.51637  0.65014  0.94456  1.0000
  S   S316      1.0  0.95467  0.47621  0.54578  1.0000
  H   H1403     1.0  0.91601  0.53931  0.64913  1.0000
  S   S317      1.0  0.53683  0.63026  0.91538  1.0000
  N   N78       1.0  0.83483  0.67721  0.90611  1.0000
  H   H1404     1.0  0.92286  0.61733  0.61818  1.0000
  S   S318      1.0  0.77309  0.68761  0.81462  1.0000
  H   H1405     1.0  0.94442  0.58924  0.73119  1.0000
  C   C1160     1.0  0.94589  0.70282  0.87435  1.0000
  H   H1406     1.0  0.63631  0.59670  0.89042  1.0000
  H   H1407     1.0  0.95784  0.55760  0.91881  1.0000
  H   H1408     1.0  0.97363  0.56941  0.65440  1.0000
  H   H1409     1.0  0.91671  0.62714  0.87669  1.0000
  C   C1161     1.0  0.96482  0.51872  0.87529  1.0000
  S   S319      1.0  0.73538  0.69145  0.87837  1.0000
  Fe  Fe155     1.0  0.74737  0.72259  0.89452  1.0000
  C   C1162     1.0  0.93783  0.52406  0.67679  1.0000
  H   H1410     1.0  0.64104  0.65385  0.83603  1.0000
  H   H1411     1.0  0.95857  0.51329  0.70587  1.0000
  H   H1412     1.0  0.92355  0.52969  0.75423  1.0000
  C   C1163     1.0  0.62128  0.64922  0.91555  1.0000
  C   C1164     1.0  0.61089  0.66522  0.89827  1.0000
  C   C1165     1.0  0.62431  0.68243  0.88489  1.0000
  C   C1166     1.0  0.64826  0.68396  0.88861  1.0000
  C   C1167     1.0  0.65874  0.66781  0.90569  1.0000
  C   C1168     1.0  0.64534  0.65052  0.91898  1.0000
  H   H1413     1.0  0.59264  0.66401  0.89492  1.0000
  H   H1414     1.0  0.61607  0.69467  0.87156  1.0000
  H   H1415     1.0  0.67714  0.66865  0.90872  1.0000
  H   H1416     1.0  0.65366  0.63806  0.93208  1.0000
  N   N79       1.0  0.94900  0.55083  0.73345  1.0000
  Fe  Fe156     1.0  0.75243  0.70774  0.84378  1.0000
  Fe  Fe157     1.0  0.70265  0.71568  0.87068  1.0000
  Fe  Fe158     1.0  0.96840  0.49095  0.57726  1.0000
  H   H1417     1.0  0.71928  0.67378  0.82991  1.0000
  S   S320      1.0  0.95438  0.60188  0.95690  1.0000
  H   H1418     1.0  0.61742  0.62864  0.86403  1.0000
  H   H1419     1.0  0.94398  0.50833  0.66767  1.0000
  H   H1420     1.0  0.95348  0.51541  0.91290  1.0000
  C   C1169     1.0  0.83079  0.67811  0.93242  1.0000
  H   H1421     1.0  0.92569  0.69487  0.82157  1.0000
  C   C1170     1.0  0.85281  0.69495  0.79556  1.0000
  S   S321      1.0  0.66400  0.70650  0.87159  1.0000
  H   H1422     1.0  0.91598  0.58127  0.70755  1.0000
  C   C1171     1.0  0.80364  0.69136  0.80738  1.0000
  C   C1172     1.0  0.81465  0.68469  0.78540  1.0000
  C   C1173     1.0  0.83906  0.68671  0.77940  1.0000
  C   C1174     1.0  0.90051  0.63758  0.88256  1.0000
  C   C1175     1.0  0.85766  0.66400  0.89835  1.0000
  H   H1423     1.0  0.80431  0.67776  0.77300  1.0000
  H   H1424     1.0  0.84732  0.68133  0.76248  1.0000
  H   H1425     1.0  0.68006  0.58878  0.88750  1.0000
  C   C1176     1.0  0.96170  0.58548  0.65365  1.0000
  C   C1177     1.0  0.94842  0.59135  0.63396  1.0000
  H   H1426     1.0  0.83041  0.65998  0.94190  1.0000
  C   C1178     1.0  0.95940  0.60041  0.67252  1.0000
  C   C1179     1.0  0.94382  0.62132  0.67212  1.0000
  C   C1180     1.0  0.93080  0.62737  0.65228  1.0000
  C   C1181     1.0  0.93317  0.61252  0.63333  1.0000
  C   C1182     1.0  0.93903  0.54773  0.71077  1.0000
  C   C1183     1.0  0.84179  0.70178  0.81750  1.0000
  H   H1427     1.0  0.91875  0.64337  0.65161  1.0000
  C   C1184     1.0  0.96213  0.55126  0.90133  1.0000
  C   C1185     1.0  0.96940  0.56702  0.88196  1.0000
  H   H1428     1.0  0.84464  0.68746  0.93946  1.0000
  C   C1186     1.0  0.89521  0.64064  0.90673  1.0000
  C   C1187     1.0  0.91395  0.56151  0.67817  1.0000
  H   H1429     1.0  0.69913  0.67046  0.85644  1.0000
  C   C1188     1.0  0.92231  0.56480  0.70000  1.0000
  H   H1430     1.0  0.83508  0.70315  0.87531  1.0000
  H   H1431     1.0  0.72153  0.64714  0.84910  1.0000
  H   H1432     1.0  0.81532  0.64668  0.90528  1.0000
  H   H1433     1.0  0.70500  0.61284  0.85896  1.0000
  H   H1434     1.0  0.48322  0.52659  0.90946  1.0000
  Fe  Fe159     1.0  0.94261  0.64074  0.96113  1.0000
  H   H1435     1.0  0.84916  0.71123  0.90011  1.0000
  H   H1436     1.0  0.66762  0.68328  0.82795  1.0000
  C   C1189     1.0  0.87422  0.65369  0.91462  1.0000
  H   H1437     1.0  0.85218  0.66826  0.86035  1.0000
  H   H1438     1.0  0.81344  0.68799  0.93762  1.0000
  H   H1439     1.0  0.90732  0.63262  0.91960  1.0000
  N   N80       1.0  0.69117  0.65105  0.82799  1.0000
  C   C1190     1.0  0.70440  0.63642  0.80985  1.0000
  C   C1191     1.0  0.67786  0.67148  0.81516  1.0000
  C   C1192     1.0  0.70850  0.66096  0.84143  1.0000
  C   C1193     1.0  0.67576  0.63603  0.84457  1.0000
  C   C1194     1.0  0.65053  0.63967  0.84639  1.0000
  C   C1195     1.0  0.68598  0.61690  0.85952  1.0000
  C   C1196     1.0  0.63662  0.62527  0.86247  1.0000
  C   C1197     1.0  0.67188  0.60288  0.87579  1.0000
  C   C1198     1.0  0.64725  0.60715  0.87735  1.0000
  H   H1440     1.0  0.69199  0.62832  0.79958  1.0000
  H   H1441     1.0  0.71605  0.64723  0.79693  1.0000
  H   H1442     1.0  0.71619  0.62168  0.81804  1.0000
  H   H1443     1.0  0.66543  0.66549  0.80341  1.0000
  H   H1444     1.0  0.68998  0.68289  0.80349  1.0000
  H   H1445     1.0  0.80894  0.70544  0.84025  1.0000
  C   C1199     1.0  0.88488  0.64781  0.86610  1.0000
  C   C1200     1.0  0.93994  0.57349  0.74369  1.0000
  H   H1446     1.0  0.94784  0.57537  0.76061  1.0000
  S   S322      1.0  0.96020  0.48875  0.87158  1.0000
  N   N81       1.0  0.58219  0.71203  0.94683  1.0000
  C   C1201     1.0  0.60819  0.70562  0.94322  1.0000
  H   H1447     1.0  0.88897  0.64542  0.84726  1.0000
  S   S323      1.0  0.49775  0.68581  0.93225  1.0000
  H   H1448     1.0  0.87142  0.65520  0.93364  1.0000
  H   H1449     1.0  0.81479  0.66680  0.87863  1.0000
  C   C1202     1.0  0.93726  0.70080  0.83350  1.0000
  C   C1203     1.0  0.81725  0.70022  0.82331  1.0000
  C   C1204     1.0  0.86380  0.66087  0.87379  1.0000
  H   H1450     1.0  0.81729  0.71263  0.90099  1.0000
  C   C1205     1.0  0.97476  0.55840  0.85936  1.0000
  C   C1206     1.0  0.92189  0.54133  0.66646  1.0000
  H   H1451     1.0  0.90197  0.57517  0.66976  1.0000
  C   C1207     1.0  0.81478  0.66578  0.89838  1.0000
  H   H1452     1.0  0.79725  0.67454  0.90498  1.0000
  H   H1453     1.0  0.50913  0.53115  0.95700  1.0000
  H   H1454     1.0  0.91608  0.68666  0.86445  1.0000
  C   C1208     1.0  0.93165  0.69586  0.85803  1.0000
  H   H1455     1.0  0.95152  0.51347  0.74630  1.0000
  S   S324      1.0  0.92470  0.71102  0.68399  1.0000
  H   H1456     1.0  0.92699  0.71932  0.78822  1.0000
  Fe  Fe160     1.0  0.97035  0.61404  0.92033  1.0000
  H   H1457     1.0  0.94139  0.69908  0.89337  1.0000
  C   C1209     1.0  0.95963  0.52732  0.89793  1.0000
  H   H1458     1.0  0.85226  0.70840  0.82998  1.0000
  H   H1459     1.0  0.95426  0.68359  0.79010  1.0000
  S   S325      1.0  0.54542  0.64471  0.96931  1.0000
  C   C1210     1.0  0.96935  0.69500  0.78785  1.0000
  C   C1211     1.0  0.95734  0.71312  0.82453  1.0000
  C   C1212     1.0  0.97265  0.53438  0.85605  1.0000
  H   H1460     1.0  0.97137  0.50398  0.50203  1.0000
  S   S326      1.0  0.97110  0.59778  0.88485  1.0000
  C   C1213     1.0  0.96594  0.71459  0.86620  1.0000
  C   C1214     1.0  0.47544  0.56250  0.91924  1.0000
  Fe  Fe161     1.0  0.88753  0.72063  0.70062  1.0000
  H   H1461     1.0  0.61532  0.70876  0.92430  1.0000
  H   H1462     1.0  0.61805  0.71616  0.95390  1.0000
  N   N82       1.0  0.96304  0.71791  0.79844  1.0000
  C   C1215     1.0  0.56995  0.69836  0.93142  1.0000
  H   H1463     1.0  0.61291  0.68639  0.94844  1.0000
  H   H1464     1.0  0.55035  0.70262  0.93370  1.0000
  H   H1465     1.0  0.57562  0.70219  0.91218  1.0000
  C   C1216     1.0  0.97175  0.71963  0.84168  1.0000
  H   H1466     1.0  0.79026  0.70418  0.97092  1.0000
  C   C1217     1.0  0.50665  0.70808  0.97121  1.0000
  H   H1467     1.0  0.47983  0.56624  0.97062  1.0000
  H   H1468     1.0  0.97437  0.69779  0.76832  1.0000
  S   S327      1.0  0.83708  0.96046  0.01888  1.0000
  S   S328      1.0  0.60161  0.92725  0.45606  1.0000
  C   C1218     1.0  0.53517  0.73269  0.22685  1.0000
  H   H1469     1.0  0.87833  0.77294  0.05086  1.0000
  S   S329      1.0  0.85328  0.94786  0.44249  1.0000
  Fe  Fe162     1.0  0.64683  0.73352  0.25355  1.0000
  C   C1219     1.0  0.79906  0.84398  0.04205  1.0000
  C   C1220     1.0  0.83026  0.90115  0.99764  1.0000
  H   H1470     1.0  0.85431  0.80612  0.06806  1.0000
  C   C1221     1.0  0.50082  0.96268  0.23285  1.0000
  H   H1471     1.0  0.75730  0.74231  0.27095  1.0000
  Fe  Fe163     1.0  0.48861  0.81238  0.97503  1.0000
  C   C1222     1.0  0.70759  0.74128  0.05006  1.0000
  Fe  Fe164     1.0  0.77903  0.88416  0.28647  1.0000
  S   S330      1.0  0.74501  0.90319  0.27409  1.0000
  S   S331      1.0  0.78629  0.89224  0.32431  1.0000
  Fe  Fe165     1.0  0.78707  0.85656  0.24102  1.0000
  S   S332      1.0  0.75430  0.87457  0.22624  1.0000
  S   S333      1.0  0.80716  0.82676  0.22058  1.0000
  Fe  Fe166     1.0  0.76575  0.90778  0.23839  1.0000
  S   S334      1.0  0.76137  0.94139  0.21369  1.0000
  Fe  Fe167     1.0  0.73664  0.86796  0.26319  1.0000
  S   S335      1.0  0.69886  0.85684  0.26564  1.0000
  S   S336      1.0  0.80029  0.89053  0.25077  1.0000
  S   S337      1.0  0.76894  0.84823  0.27799  1.0000
  S   S338      1.0  0.89110  0.91248  0.01058  1.0000
  H   H1472     1.0  0.48206  0.83767  0.30011  1.0000
  S   S339      1.0  0.63106  0.75473  0.22265  1.0000
  S   S340      1.0  0.67293  0.74913  0.27475  1.0000
  H   H1473     1.0  0.92871  0.82239  0.01810  1.0000
  S   S341      1.0  0.56374  0.76389  0.24189  1.0000
  Fe  Fe168     1.0  0.53364  0.94702  0.33681  1.0000
  S   S342      1.0  0.57064  0.94604  0.34972  1.0000
  S   S343      1.0  0.52698  0.93530  0.30116  1.0000
  H   H1474     1.0  0.58133  0.80552  0.25572  1.0000
  Fe  Fe169     1.0  0.80116  0.77668  0.09339  1.0000
  S   S344      1.0  0.79817  0.81156  0.11107  1.0000
  C   C1223     1.0  0.57996  0.77915  0.29830  1.0000
  S   S345      1.0  0.76104  0.77048  0.01895  1.0000
  S   S346      1.0  0.76638  0.76402  0.08659  1.0000
  S   S347      1.0  0.81652  0.77355  0.05532  1.0000
  H   H1475     1.0  0.77344  0.91734  0.01893  1.0000
  N   N83       1.0  0.59314  0.80048  0.29131  1.0000
  C   C1224     1.0  0.53627  0.75392  0.23716  1.0000
  C   C1225     1.0  0.51511  0.76764  0.24372  1.0000
  C   C1226     1.0  0.49298  0.76014  0.24001  1.0000
  H   H1476     1.0  0.54742  0.85538  0.01965  1.0000
  S   S348      1.0  0.50059  0.93285  0.35572  1.0000
  H   H1477     1.0  0.51583  0.78404  0.25182  1.0000
  H   H1478     1.0  0.79576  0.95961  0.43957  1.0000
  C   C1227     1.0  0.56564  0.88476  0.00222  1.0000
  H   H1479     1.0  0.61754  0.95934  0.41498  1.0000
  H   H1480     1.0  0.62801  0.81063  0.29601  1.0000
  H   H1481     1.0  0.68273  0.74556  0.12231  1.0000
  C   C1228     1.0  0.95794  0.87919  0.00355  1.0000
  C   C1229     1.0  0.47811  0.81971  0.20364  1.0000
  C   C1230     1.0  0.57917  0.97114  0.17314  1.0000
  H   H1482     1.0  0.73126  0.75827  0.25912  1.0000
  C   C1231     1.0  0.93610  0.92186  0.01989  1.0000
  C   C1232     1.0  0.92222  0.90608  0.01131  1.0000
  C   C1233     1.0  0.93325  0.88478  0.00305  1.0000
  Fe  Fe170     1.0  0.78278  0.72765  0.09736  1.0000
  C   C1234     1.0  0.82638  0.95562  0.13109  1.0000
  H   H1483     1.0  0.92785  0.93836  0.02620  1.0000
  C   C1235     1.0  0.74917  0.78987  0.15089  1.0000
  H   H1484     1.0  0.96622  0.86271  0.99725  1.0000
  C   C1236     1.0  0.69208  0.82678  0.26795  1.0000
  C   C1237     1.0  0.67236  0.82087  0.25725  1.0000
  C   C1238     1.0  0.66663  0.79711  0.25851  1.0000
  C   C1239     1.0  0.67955  0.77928  0.27201  1.0000
  C   C1240     1.0  0.69822  0.78552  0.28406  1.0000
  C   C1241     1.0  0.70503  0.80894  0.28138  1.0000
  H   H1485     1.0  0.66163  0.83472  0.24769  1.0000
  H   H1486     1.0  0.65202  0.79267  0.24941  1.0000
  H   H1487     1.0  0.70761  0.77206  0.29542  1.0000
  H   H1488     1.0  0.71969  0.81338  0.29048  1.0000
  C   C1242     1.0  0.80502  0.82325  0.18988  1.0000
  C   C1243     1.0  0.79181  0.83986  0.17532  1.0000
  C   C1244     1.0  0.79022  0.83614  0.15120  1.0000
  C   C1245     1.0  0.80116  0.81544  0.14150  1.0000
  C   C1246     1.0  0.81418  0.79871  0.15611  1.0000
  C   C1247     1.0  0.81653  0.80290  0.17997  1.0000
  H   H1489     1.0  0.78311  0.85577  0.18250  1.0000
  H   H1490     1.0  0.78029  0.84933  0.14003  1.0000
  H   H1491     1.0  0.82301  0.78287  0.14885  1.0000
  H   H1492     1.0  0.82722  0.79016  0.19088  1.0000
  H   H1493     1.0  0.86670  0.84700  0.06046  1.0000
  H   H1494     1.0  0.79178  0.95089  0.24945  1.0000
  C   C1248     1.0  0.83758  0.93681  0.35698  1.0000
  C   C1249     1.0  0.81931  0.92598  0.37120  1.0000
  C   C1250     1.0  0.80403  0.91234  0.36092  1.0000
  C   C1251     1.0  0.80669  0.90921  0.33631  1.0000
  C   C1252     1.0  0.82484  0.92018  0.32207  1.0000
  C   C1253     1.0  0.84009  0.93384  0.33233  1.0000
  H   H1495     1.0  0.81694  0.92812  0.39012  1.0000
  H   H1496     1.0  0.79007  0.90409  0.37221  1.0000
  H   H1497     1.0  0.82726  0.91802  0.30315  1.0000
  H   H1498     1.0  0.85411  0.94205  0.32109  1.0000
  H   H1499     1.0  0.49124  0.89055  0.22383  1.0000
  H   H1500     1.0  0.76873  0.82876  0.99788  1.0000
  C   C1254     1.0  0.92770  0.75586  0.04225  1.0000
  H   H1501     1.0  0.50601  0.83782  0.15012  1.0000
  S   S349      1.0  0.50218  0.84637  0.98332  1.0000
  H   H1502     1.0  0.90000  0.77497  0.99232  1.0000
  C   C1255     1.0  0.59263  0.93347  0.42667  1.0000
  C   C1256     1.0  0.57423  0.92144  0.41982  1.0000
  C   C1257     1.0  0.56668  0.92576  0.39661  1.0000
  C   C1258     1.0  0.57788  0.94176  0.37980  1.0000
  H   H1503     1.0  0.82179  0.96842  0.11557  1.0000
  H   H1504     1.0  0.57669  0.95647  0.99089  1.0000
  H   H1505     1.0  0.56577  0.90868  0.43256  1.0000
  H   H1506     1.0  0.55265  0.91621  0.39152  1.0000
  C   C1259     1.0  0.96071  0.91610  0.02076  1.0000
  C   C1260     1.0  0.78466  0.86196  0.99736  1.0000
  H   H1507     1.0  0.71955  0.77595  0.12429  1.0000
  C   C1261     1.0  0.58648  0.95734  0.22179  1.0000
  C   C1262     1.0  0.60355  0.94977  0.40996  1.0000
  H   H1508     1.0  0.78827  0.78244  0.26050  1.0000
  C   C1263     1.0  0.56403  0.90913  0.99501  1.0000
  C   C1264     1.0  0.88452  0.79047  0.04702  1.0000
  H   H1509     1.0  0.57960  0.91582  0.98505  1.0000
  C   C1265     1.0  0.75380  0.79030  0.23021  1.0000
  H   H1510     1.0  0.74057  0.72515  0.24051  1.0000
  H   H1511     1.0  0.49670  0.93626  0.20913  1.0000
  C   C1266     1.0  0.78033  0.75282  0.20019  1.0000
  N   N84       1.0  0.76448  0.76688  0.24002  1.0000
  C   C1267     1.0  0.79309  0.91791  0.01628  1.0000
  C   C1268     1.0  0.90637  0.76209  0.00698  1.0000
  C   C1269     1.0  0.57868  0.82195  0.29921  1.0000
  C   C1270     1.0  0.76826  0.96793  0.22400  1.0000
  H   H1512     1.0  0.50319  0.94986  0.24813  1.0000
  H   H1513     1.0  0.48509  0.90900  0.18280  1.0000
  H   H1514     1.0  0.48931  0.87644  0.16170  1.0000
  C   C1271     1.0  0.78869  0.76979  0.24652  1.0000
  Fe  Fe171     1.0  0.59709  0.73895  0.23662  1.0000
  H   H1515     1.0  0.92272  0.87265  0.99604  1.0000
  C   C1272     1.0  0.75259  0.72910  0.22490  1.0000
  C   C1273     1.0  0.72490  0.82645  0.17765  1.0000
  C   C1274     1.0  0.76889  0.95996  0.30470  1.0000
  H   H1516     1.0  0.50333  0.94939  0.98384  1.0000
  H   H1517     1.0  0.95474  0.78811  0.01885  1.0000
  C   C1275     1.0  0.90604  0.79404  0.03260  1.0000
  H   H1518     1.0  0.95311  0.76454  0.00067  1.0000
  H   H1519     1.0  0.58190  0.87382  0.99769  1.0000
  H   H1520     1.0  0.60522  0.96601  0.37369  1.0000
  H   H1521     1.0  0.81881  0.93875  0.12858  1.0000
  H   H1522     1.0  0.74964  0.77293  0.27581  1.0000
  C   C1276     1.0  0.73170  0.96823  0.97263  1.0000
  H   H1523     1.0  0.56343  0.77968  0.28914  1.0000
  S   S350      1.0  0.70940  0.95889  0.44107  1.0000
  C   C1277     1.0  0.49419  0.97145  0.19077  1.0000
  H   H1524     1.0  0.66419  0.94489  0.41942  1.0000
  N   N85       1.0  0.80407  0.90029  0.99983  1.0000
  C   C1278     1.0  0.87751  0.83239  0.05269  1.0000
  H   H1525     1.0  0.91681  0.74681  0.99878  1.0000
  C   C1279     1.0  0.91265  0.81779  0.02868  1.0000
  H   H1526     1.0  0.79394  0.73925  0.16664  1.0000
  H   H1527     1.0  0.83785  0.89887  0.01522  1.0000
  C   C1280     1.0  0.69427  0.73282  0.13231  1.0000
  C   C1281     1.0  0.80509  0.86642  0.03215  1.0000
  C   C1282     1.0  0.54274  0.92386  0.00009  1.0000
  C   C1283     1.0  0.73542  0.96851  0.44993  1.0000
  H   H1528     1.0  0.73345  0.93424  0.31700  1.0000
  H   H1529     1.0  0.80441  0.83695  0.05950  1.0000
  H   H1530     1.0  0.81411  0.95100  0.19133  1.0000
  H   H1531     1.0  0.47674  0.77054  0.24554  1.0000
  H   H1532     1.0  0.51223  0.72619  0.00178  1.0000
  H   H1533     1.0  0.50666  0.92264  0.01725  1.0000
  Fe  Fe172     1.0  0.88746  0.95990  0.45293  1.0000
  C   C1284     1.0  0.49546  0.83901  0.16710  1.0000
  C   C1285     1.0  0.73931  0.94248  0.33228  1.0000
  S   S351      1.0  0.50510  0.77604  0.98803  1.0000
  S   S352      1.0  0.65541  0.72902  0.16474  1.0000
  H   H1534     1.0  0.77836  0.86781  0.98014  1.0000
  S   S353      1.0  0.48472  0.88563  0.31163  1.0000
  H   H1535     1.0  0.49927  0.80115  0.17652  1.0000
  C   C1286     1.0  0.77888  0.83946  0.00737  1.0000
  H   H1536     1.0  0.83565  0.91853  0.98893  1.0000
  C   C1287     1.0  0.78238  0.73649  0.18296  1.0000
  H   H1537     1.0  0.91219  0.74794  0.05250  1.0000
  H   H1538     1.0  0.51005  0.88015  0.02932  1.0000
  H   H1539     1.0  0.79036  0.76809  0.19647  1.0000
  C   C1288     1.0  0.79797  0.87619  0.00954  1.0000
  N   N86       1.0  0.81701  0.96503  0.15415  1.0000
  N   N87       1.0  0.92056  0.77358  0.02255  1.0000
  C   C1289     1.0  0.75769  0.95931  0.44014  1.0000
  C   C1290     1.0  0.52525  0.88831  0.01999  1.0000
  H   H1540     1.0  0.78231  0.94544  0.31030  1.0000
  H   H1541     1.0  0.75221  0.92916  0.34107  1.0000
  Fe  Fe173     1.0  0.78305  0.75759  0.04980  1.0000
  H   H1542     1.0  0.71151  0.74849  0.06672  1.0000
  N   N88       1.0  0.67602  0.91232  0.40362  1.0000
  C   C1291     1.0  0.67083  0.93851  0.40177  1.0000
  C   C1292     1.0  0.65376  0.90122  0.41232  1.0000
  C   C1293     1.0  0.69302  0.90587  0.42212  1.0000
  C   C1294     1.0  0.68515  0.90473  0.37981  1.0000
  C   C1295     1.0  0.70897  0.89502  0.37453  1.0000
  C   C1296     1.0  0.67022  0.90758  0.36077  1.0000
  C   C1297     1.0  0.71692  0.88795  0.35182  1.0000
  C   C1298     1.0  0.67834  0.90035  0.33819  1.0000
  C   C1299     1.0  0.70158  0.89040  0.33377  1.0000
  H   H1543     1.0  0.65700  0.94472  0.38938  1.0000
  C   C1300     1.0  0.79565  0.90786  0.97591  1.0000
  H   H1544     1.0  0.68710  0.94764  0.39553  1.0000
  H   H1545     1.0  0.63879  0.90757  0.40136  1.0000
  S   S354      1.0  0.48988  0.96118  0.16321  1.0000
  H   H1546     1.0  0.55373  0.94948  0.14602  1.0000
  H   H1547     1.0  0.70954  0.91511  0.41789  1.0000
  H   H1548     1.0  0.68549  0.91142  0.43990  1.0000
  H   H1549     1.0  0.69776  0.88633  0.42442  1.0000
  H   H1550     1.0  0.72185  0.89256  0.38761  1.0000
  H   H1551     1.0  0.65209  0.91540  0.36321  1.0000
  H   H1552     1.0  0.73514  0.88044  0.34818  1.0000
  H   H1553     1.0  0.66650  0.90231  0.32402  1.0000
  H   H1554     1.0  0.70770  0.88454  0.31630  1.0000
  C   C1301     1.0  0.55551  0.82788  0.29172  1.0000
  C   C1302     1.0  0.54140  0.84793  0.29901  1.0000
  C   C1303     1.0  0.54992  0.86274  0.31382  1.0000
  H   H1555     1.0  0.54806  0.81702  0.28013  1.0000
  H   H1556     1.0  0.52366  0.85204  0.29327  1.0000
  H   H1557     1.0  0.53876  0.87818  0.31952  1.0000
  H   H1558     1.0  0.77590  0.90896  0.97645  1.0000
  Fe  Fe174     1.0  0.82985  0.73597  0.06741  1.0000
  C   C1304     1.0  0.56181  0.95862  0.97917  1.0000
  C   C1305     1.0  0.59644  0.95361  0.38658  1.0000
  C   C1306     1.0  0.77781  0.73320  0.99205  1.0000
  H   H1559     1.0  0.80030  0.77731  0.23125  1.0000
  H   H1560     1.0  0.89046  0.75470  0.01696  1.0000
  H   H1561     1.0  0.72336  0.85917  0.19441  1.0000
  H   H1562     1.0  0.75982  0.78994  0.16638  1.0000
  H   H1563     1.0  0.81521  0.87619  0.04247  1.0000
  H   H1564     1.0  0.75718  0.77483  0.14060  1.0000
  H   H1565     1.0  0.62666  0.77947  0.29543  1.0000
  H   H1566     1.0  0.79767  0.97015  0.33313  1.0000
  H   H1567     1.0  0.57493  0.77721  0.31788  1.0000
  C   C1307     1.0  0.71087  0.78871  0.13687  1.0000
  C   C1308     1.0  0.58698  0.83759  0.31414  1.0000
  C   C1309     1.0  0.75005  0.75969  0.26242  1.0000
  Fe  Fe175     1.0  0.48287  0.96944  0.34547  1.0000
  H   H1568     1.0  0.71053  0.80676  0.12711  1.0000
  H   H1569     1.0  0.59064  0.76254  0.29340  1.0000
  C   C1310     1.0  0.52347  0.91269  0.01294  1.0000
  C   C1311     1.0  0.76302  0.75429  0.99352  1.0000
  C   C1312     1.0  0.94261  0.78024  0.00805  1.0000
  C   C1313     1.0  0.59792  0.80310  0.26496  1.0000
  C   C1314     1.0  0.77863  0.96701  0.44693  1.0000
  C   C1315     1.0  0.79079  0.96888  0.15417  1.0000
  H   H1570     1.0  0.60440  0.83473  0.32058  1.0000
  H   H1571     1.0  0.57919  0.86939  0.33274  1.0000
  C   C1316     1.0  0.60023  0.95741  0.17979  1.0000
  S   S355      1.0  0.81701  0.74041  0.10619  1.0000
  C   C1317     1.0  0.48569  0.86119  0.17404  1.0000
  C   C1318     1.0  0.53279  0.96375  0.01244  1.0000
  H   H1572     1.0  0.73548  0.78906  0.22525  1.0000
  H   H1573     1.0  0.83933  0.88700  0.98679  1.0000
  C   C1319     1.0  0.72176  0.76412  0.17226  1.0000
  C   C1320     1.0  0.71274  0.80670  0.17347  1.0000
  C   C1321     1.0  0.68890  0.80611  0.18362  1.0000
  C   C1322     1.0  0.67806  0.82401  0.19736  1.0000
  C   C1323     1.0  0.71385  0.84422  0.19144  1.0000
  C   C1324     1.0  0.69057  0.84297  0.20137  1.0000
  H   H1574     1.0  0.73186  0.74959  0.16268  1.0000
  H   H1575     1.0  0.70317  0.75919  0.17544  1.0000
  H   H1576     1.0  0.67840  0.79184  0.18090  1.0000
  H   H1577     1.0  0.65990  0.82306  0.20509  1.0000
  H   H1578     1.0  0.68231  0.85671  0.21234  1.0000
  C   C1325     1.0  0.74921  0.76252  0.97456  1.0000
  C   C1326     1.0  0.49170  0.81833  0.18188  1.0000
  C   C1327     1.0  0.89847  0.83659  0.03861  1.0000
  H   H1579     1.0  0.73770  0.77883  0.97557  1.0000
  H   H1580     1.0  0.84236  0.94392  0.17515  1.0000
  H   H1581     1.0  0.74290  0.82871  0.17039  1.0000
  C   C1328     1.0  0.57268  0.85766  0.32129  1.0000
  H   H1582     1.0  0.75878  0.94612  0.42738  1.0000
  C   C1329     1.0  0.49195  0.73914  0.22927  1.0000
  C   C1330     1.0  0.76576  0.74948  0.22190  1.0000
  H   H1583     1.0  0.65642  0.88151  0.41250  1.0000
  C   C1331     1.0  0.49705  0.95501  0.21075  1.0000
  H   H1584     1.0  0.51529  0.95970  0.02178  1.0000
  H   H1585     1.0  0.61431  0.95164  0.16682  1.0000
  C   C1332     1.0  0.54627  0.87435  0.01455  1.0000
  H   H1586     1.0  0.72465  0.73636  0.10646  1.0000
  N   N89       1.0  0.72365  0.78772  0.15865  1.0000
  H   H1587     1.0  0.93864  0.79303  0.99241  1.0000
  H   H1588     1.0  0.81670  0.92903  0.17075  1.0000
  H   H1589     1.0  0.64726  0.90556  0.43082  1.0000
  H   H1590     1.0  0.76456  0.79774  0.21421  1.0000
  H   H1591     1.0  0.75253  0.80386  0.24342  1.0000
  H   H1592     1.0  0.75175  0.80630  0.13878  1.0000
  C   C1333     1.0  0.71800  0.72764  0.12327  1.0000
  C   C1334     1.0  0.87056  0.80938  0.05692  1.0000
  H   H1593     1.0  0.84603  0.95170  0.13006  1.0000
  H   H1594     1.0  0.79771  0.75248  0.25329  1.0000
  H   H1595     1.0  0.78112  0.81323  0.03737  1.0000
  H   H1596     1.0  0.93736  0.76408  0.05509  1.0000
  H   H1597     1.0  0.80011  0.91505  0.03412  1.0000
  H   H1598     1.0  0.59702  0.95074  0.13136  1.0000
  H   H1599     1.0  0.60817  0.81868  0.25896  1.0000
  Fe  Fe176     1.0  0.49233  0.92331  0.31935  1.0000
  H   H1600     1.0  0.72880  0.76367  0.18996  1.0000
  C   C1335     1.0  0.61645  0.79593  0.30159  1.0000
  C   C1336     1.0  0.78594  0.83057  0.02967  1.0000
  C   C1337     1.0  0.82287  0.94650  0.17364  1.0000
  Fe  Fe177     1.0  0.87576  0.95111  0.00817  1.0000
  H   H1601     1.0  0.60816  0.78697  0.25827  1.0000
  H   H1602     1.0  0.61422  0.79335  0.32143  1.0000
  H   H1603     1.0  0.69215  0.78431  0.14105  1.0000
  H   H1604     1.0  0.90380  0.85460  0.03551  1.0000
  S   S356      1.0  0.85728  0.95476  0.36867  1.0000
  H   H1605     1.0  0.72351  0.94512  0.34527  1.0000
  H   H1606     1.0  0.79657  0.93632  0.00915  1.0000
  N   N90       1.0  0.53986  0.94948  0.99179  1.0000
  Fe  Fe178     1.0  0.67651  0.96501  0.46638  1.0000
  H   H1607     1.0  0.76132  0.95387  0.28912  1.0000
  H   H1608     1.0  0.54619  0.96060  0.02582  1.0000
  H   H1609     1.0  0.78286  0.95245  0.15083  1.0000
  Fe  Fe179     1.0  0.86229  0.96640  0.40587  1.0000
  H   H1610     1.0  0.93949  0.74066  0.03544  1.0000
  C   C1338     1.0  0.51308  0.72541  0.22278  1.0000
  Fe  Fe180     1.0  0.50636  0.97076  0.29493  1.0000
  H   H1611     1.0  0.73870  0.96841  0.00942  1.0000
  H   H1612     1.0  0.71838  0.75035  0.03497  1.0000
  C   C1339     1.0  0.55282  0.96917  0.14229  1.0000
  C   C1340     1.0  0.74617  0.97013  0.99103  1.0000
  H   H1613     1.0  0.78859  0.72670  0.00647  1.0000
  H   H1614     1.0  0.61986  0.94020  0.20854  1.0000
  H   H1615     1.0  0.58919  0.95211  0.24039  1.0000
  C   C1341     1.0  0.60370  0.95066  0.20380  1.0000
  S   S357      1.0  0.70199  0.96169  0.98023  1.0000
  C   C1342     1.0  0.50795  0.72831  0.98339  1.0000
  H   H1616     1.0  0.68885  0.74707  0.04692  1.0000
  N   N91       1.0  0.75033  0.96491  0.32443  1.0000
  C   C1343     1.0  0.78414  0.96767  0.24146  1.0000
  C   C1344     1.0  0.50348  0.75121  0.97202  1.0000
  C   C1345     1.0  0.59432  0.97050  0.13038  1.0000
  H   H1617     1.0  0.92791  0.96921  0.97816  1.0000
  H   H1618     1.0  0.49916  0.95474  0.42601  1.0000
  C   C1346     1.0  0.56571  0.97080  0.21588  1.0000
  H   H1619     1.0  0.97122  0.92826  0.02776  1.0000
  C   C1347     1.0  0.97174  0.89475  0.01263  1.0000
  C   C1348     1.0  0.52102  0.95355  0.97503  1.0000
  H   H1620     1.0  0.53055  0.94893  0.42569  1.0000
  C   C1349     1.0  0.51540  0.96167  0.43132  1.0000
  H   H1621     1.0  0.51358  0.96116  0.45116  1.0000
  H   H1622     1.0  0.47505  0.80360  0.21503  1.0000
  H   H1623     1.0  0.55409  0.96525  0.44927  1.0000
  H   H1624     1.0  0.55718  0.74726  0.97419  1.0000
  C   C1350     1.0  0.93564  0.79678  0.66898  1.0000
  C   C1351     1.0  0.77597  0.75844  0.77136  1.0000
  S   S358      1.0  0.85648  0.74092  0.68268  1.0000
  H   H1625     1.0  0.59253  0.86745  0.95000  1.0000
  Fe  Fe181     1.0  0.73217  0.75773  0.85292  1.0000
  Fe  Fe182     1.0  0.65336  0.95493  0.51687  1.0000
  H   H1626     1.0  0.82411  0.73739  0.77384  1.0000
  S   S359      1.0  0.65752  0.94655  0.55707  1.0000
  H   H1627     1.0  0.73986  0.75653  0.93951  1.0000
  H   H1628     1.0  0.94428  0.78133  0.67841  1.0000
  C   C1352     1.0  0.75179  0.95714  0.53915  1.0000
  H   H1629     1.0  0.78379  0.74233  0.78167  1.0000
  Fe  Fe183     1.0  0.78909  0.86784  0.68603  1.0000
  S   S360      1.0  0.76152  0.84947  0.67110  1.0000
  S   S361      1.0  0.82749  0.85205  0.68697  1.0000
  Fe  Fe184     1.0  0.75275  0.90828  0.70192  1.0000
  S   S362      1.0  0.72247  0.89174  0.68864  1.0000
  S   S363      1.0  0.74173  0.94132  0.72168  1.0000
  Fe  Fe185     1.0  0.73943  0.85716  0.70528  1.0000
  S   S364      1.0  0.72099  0.82700  0.72676  1.0000
  Fe  Fe186     1.0  0.74736  0.88589  0.65576  1.0000
  S   S365      1.0  0.74139  0.89191  0.61570  1.0000
  S   S366      1.0  0.76768  0.87404  0.72075  1.0000
  S   S367      1.0  0.77706  0.90394  0.66838  1.0000
  S   S368      1.0  0.61936  0.90737  0.93438  1.0000
  H   H1630     1.0  0.77360  0.77317  0.78332  1.0000
  S   S369      1.0  0.73402  0.79583  0.83650  1.0000
  Fe  Fe187     1.0  0.49027  0.86100  0.94770  1.0000
  H   H1631     1.0  0.80262  0.72818  0.74445  1.0000
  S   S370      1.0  0.51145  0.88887  0.92544  1.0000
  Fe  Fe188     1.0  0.67386  0.96706  0.95386  1.0000
  H   H1632     1.0  0.56256  0.80582  0.92142  1.0000
  C   C1353     1.0  0.84229  0.88785  0.62908  1.0000
  C   C1354     1.0  0.91040  0.83555  0.64582  1.0000
  H   H1633     1.0  0.78270  0.95080  0.50322  1.0000
  H   H1634     1.0  0.86130  0.87837  0.57107  1.0000
  C   C1355     1.0  0.86004  0.88457  0.58865  1.0000
  H   H1635     1.0  0.94636  0.73550  0.76777  1.0000
  C   C1356     1.0  0.80468  0.93829  0.60824  1.0000
  C   C1357     1.0  0.94061  0.96040  0.96554  1.0000
  C   C1358     1.0  0.58883  0.90327  0.93325  1.0000
  C   C1359     1.0  0.57306  0.92092  0.92292  1.0000
  C   C1360     1.0  0.54937  0.91634  0.92093  1.0000
  C   C1361     1.0  0.54097  0.89435  0.92983  1.0000
  C   C1362     1.0  0.55658  0.87696  0.94080  1.0000
  C   C1363     1.0  0.58045  0.88128  0.94211  1.0000
  H   H1636     1.0  0.57930  0.93779  0.91571  1.0000
  H   H1637     1.0  0.53754  0.92980  0.91217  1.0000
  H   H1638     1.0  0.55045  0.85993  0.94760  1.0000
  S   S371      1.0  0.76680  0.73685  0.86030  1.0000
  C   C1364     1.0  0.94397  0.92984  0.53903  1.0000
  H   H1639     1.0  0.86279  0.74727  0.78295  1.0000
  S   S372      1.0  0.87352  0.96940  0.97140  1.0000
  C   C1365     1.0  0.77703  0.78454  0.73528  1.0000
  C   C1366     1.0  0.72541  0.81835  0.75712  1.0000
  C   C1367     1.0  0.71691  0.79707  0.76792  1.0000
  C   C1368     1.0  0.72001  0.78961  0.79202  1.0000
  C   C1369     1.0  0.73145  0.80353  0.80566  1.0000
  C   C1370     1.0  0.73997  0.82479  0.79487  1.0000
  C   C1371     1.0  0.73711  0.83211  0.77069  1.0000
  H   H1640     1.0  0.70776  0.78634  0.75759  1.0000
  H   H1641     1.0  0.71307  0.77337  0.80016  1.0000
  H   H1642     1.0  0.74878  0.83572  0.80530  1.0000
  H   H1643     1.0  0.74364  0.84858  0.76268  1.0000
  C   C1372     1.0  0.84227  0.87788  0.60699  1.0000
  C   C1373     1.0  0.93199  0.83855  0.65469  1.0000
  C   C1374     1.0  0.95339  0.92645  0.94350  1.0000
  S   S373      1.0  0.71364  0.74613  0.88889  1.0000
  C   C1375     1.0  0.68124  0.93143  0.57292  1.0000
  C   C1376     1.0  0.70132  0.91966  0.56138  1.0000
  C   C1377     1.0  0.71933  0.90758  0.57479  1.0000
  C   C1378     1.0  0.71776  0.90723  0.59989  1.0000
  C   C1379     1.0  0.69782  0.91921  0.61139  1.0000
  C   C1380     1.0  0.67970  0.93111  0.59800  1.0000
  H   H1644     1.0  0.75794  0.75442  0.76771  1.0000
  H   H1645     1.0  0.73452  0.89822  0.56566  1.0000
  H   H1646     1.0  0.69622  0.91914  0.63064  1.0000
  H   H1647     1.0  0.66428  0.94002  0.60722  1.0000
  C   C1381     1.0  0.92643  0.94074  0.55453  1.0000
  S   S374      1.0  0.61679  0.96761  0.50517  1.0000
  H   H1648     1.0  0.89139  0.95924  0.55730  1.0000
  C   C1382     1.0  0.91912  0.93956  0.50560  1.0000
  C   C1383     1.0  0.94014  0.92890  0.51485  1.0000
  H   H1649     1.0  0.78697  0.96460  0.78987  1.0000
  H   H1650     1.0  0.77792  0.73976  0.72833  1.0000
  H   H1651     1.0  0.96030  0.92169  0.54579  1.0000
  H   H1652     1.0  0.84633  0.83960  0.58022  1.0000
  S   S375      1.0  0.92976  0.94084  0.58552  1.0000
  C   C1384     1.0  0.84824  0.77160  0.68536  1.0000
  C   C1385     1.0  0.86319  0.78623  0.69414  1.0000
  C   C1386     1.0  0.85671  0.81085  0.69440  1.0000
  C   C1387     1.0  0.83480  0.82092  0.68687  1.0000
  C   C1388     1.0  0.81955  0.80616  0.67873  1.0000
  C   C1389     1.0  0.82640  0.78172  0.67768  1.0000
  H   H1653     1.0  0.87997  0.77868  0.70029  1.0000
  H   H1654     1.0  0.86869  0.82210  0.70063  1.0000
  H   H1655     1.0  0.80266  0.81358  0.67280  1.0000
  H   H1656     1.0  0.81471  0.77056  0.67082  1.0000
  C   C1390     1.0  0.90163  0.95065  0.52106  1.0000
  H   H1657     1.0  0.49491  0.77141  0.93923  1.0000
  N   N92       1.0  0.77753  0.95963  0.53986  1.0000
  C   C1391     1.0  0.66581  0.93046  0.85612  1.0000
  H   H1658     1.0  0.81143  0.93377  0.62556  1.0000
  H   H1659     1.0  0.77313  0.80057  0.74535  1.0000
  C   C1392     1.0  0.79052  0.94617  0.52060  1.0000
  S   S376      1.0  0.91594  0.93897  0.47461  1.0000
  C   C1393     1.0  0.94535  0.81914  0.66655  1.0000
  H   H1660     1.0  0.80722  0.74827  0.71826  1.0000
  S   S377      1.0  0.67336  0.94895  0.92022  1.0000
  H   H1661     1.0  0.78664  0.78973  0.71771  1.0000
  H   H1662     1.0  0.56759  0.94955  0.96270  1.0000
  H   H1663     1.0  0.60947  0.97161  0.56086  1.0000
  H   H1664     1.0  0.70275  0.91951  0.54216  1.0000
  C   C1394     1.0  0.49798  0.75382  0.94826  1.0000
  C   C1395     1.0  0.57911  0.77232  0.91049  1.0000
  S   S378      1.0  0.89960  0.73561  0.73197  1.0000
  H   H1665     1.0  0.74564  0.96318  0.52120  1.0000
  C   C1396     1.0  0.77980  0.96876  0.70973  1.0000
  S   S379      1.0  0.96920  0.92838  0.64057  1.0000
  C   C1397     1.0  0.78051  0.93818  0.60593  1.0000
  S   S380      1.0  0.47940  0.82581  0.93797  1.0000
  H   H1666     1.0  0.64982  0.91131  0.88736  1.0000
  N   N93       1.0  0.82391  0.86198  0.60349  1.0000
  C   C1398     1.0  0.82866  0.85005  0.58102  1.0000
  C   C1399     1.0  0.82221  0.84303  0.62356  1.0000
  C   C1400     1.0  0.80060  0.87612  0.60279  1.0000
  H   H1667     1.0  0.81514  0.83744  0.57940  1.0000
  H   H1668     1.0  0.82781  0.86304  0.56495  1.0000
  H   H1669     1.0  0.83998  0.83394  0.62700  1.0000
  H   H1670     1.0  0.81052  0.82925  0.62025  1.0000
  H   H1671     1.0  0.81419  0.85003  0.64048  1.0000
  H   H1672     1.0  0.80086  0.89067  0.58808  1.0000
  H   H1673     1.0  0.78614  0.86492  0.60021  1.0000
  H   H1674     1.0  0.79513  0.88452  0.61969  1.0000
  C   C1401     1.0  0.56660  0.78704  0.92662  1.0000
  H   H1675     1.0  0.87632  0.78711  0.77006  1.0000
  H   H1676     1.0  0.82897  0.88419  0.64365  1.0000
  S   S381      1.0  0.63703  0.95805  0.96801  1.0000
  C   C1402     1.0  0.75606  0.96791  0.71885  1.0000
  C   C1403     1.0  0.58413  0.74808  0.91715  1.0000
  C   C1404     1.0  0.90160  0.81327  0.64832  1.0000
  C   C1405     1.0  0.82007  0.94437  0.58831  1.0000
  H   H1677     1.0  0.96000  0.96481  0.48616  1.0000
  H   H1678     1.0  0.95370  0.92011  0.50314  1.0000
  C   C1406     1.0  0.57680  0.73782  0.94035  1.0000
  H   H1679     1.0  0.74779  0.93827  0.54308  1.0000
  H   H1680     1.0  0.94921  0.83232  0.71002  1.0000
  C   C1407     1.0  0.79477  0.74445  0.73443  1.0000
  C   C1408     1.0  0.87681  0.90872  0.61469  1.0000
  C   C1409     1.0  0.77151  0.94432  0.58377  1.0000
  C   C1410     1.0  0.90513  0.95087  0.54545  1.0000
  H   H1681     1.0  0.58486  0.77973  0.89268  1.0000
  H   H1682     1.0  0.90725  0.77660  0.66184  1.0000
  C   C1411     1.0  0.96339  0.81891  0.70352  1.0000
  H   H1683     1.0  0.75258  0.94379  0.58344  1.0000
  H   H1684     1.0  0.66304  0.94746  0.86372  1.0000
  H   H1685     1.0  0.95077  0.90871  0.93928  1.0000
  H   H1686     1.0  0.79007  0.92666  0.52500  1.0000
  H   H1687     1.0  0.49230  0.73574  0.91774  1.0000
  C   C1412     1.0  0.56398  0.75334  0.95634  1.0000
  Fe  Fe189     1.0  0.96490  0.94185  0.60210  1.0000
  C   C1413     1.0  0.55909  0.77757  0.94946  1.0000
  H   H1688     1.0  0.52511  0.94206  0.95996  1.0000
  H   H1689     1.0  0.85925  0.90986  0.65009  1.0000
  H   H1690     1.0  0.90032  0.85064  0.63715  1.0000
  C   C1414     1.0  0.81122  0.95082  0.56610  1.0000
  C   C1415     1.0  0.76529  0.72887  0.95262  1.0000
  H   H1691     1.0  0.88471  0.81101  0.64178  1.0000
  C   C1416     1.0  0.97331  0.93757  0.93329  1.0000
  H   H1692     1.0  0.81209  0.80839  0.73777  1.0000
  H   H1693     1.0  0.82373  0.95616  0.55132  1.0000
  S   S382      1.0  0.71883  0.72929  0.83440  1.0000
  C   C1417     1.0  0.94215  0.73045  0.78721  1.0000
  H   H1694     1.0  0.74058  0.96812  0.55198  1.0000
  H   H1695     1.0  0.76849  0.93339  0.62143  1.0000
  H   H1696     1.0  0.93573  0.74699  0.79582  1.0000
  N   N94       1.0  0.67524  0.86260  0.82596  1.0000
  C   C1418     1.0  0.65146  0.85404  0.82537  1.0000
  C   C1419     1.0  0.68703  0.86322  0.80124  1.0000
  C   C1420     1.0  0.68961  0.84499  0.84106  1.0000
  C   C1421     1.0  0.67260  0.88596  0.83609  1.0000
  C   C1422     1.0  0.66167  0.88817  0.85960  1.0000
  C   C1423     1.0  0.68011  0.90710  0.82306  1.0000
  C   C1424     1.0  0.65837  0.91009  0.86939  1.0000
  C   C1425     1.0  0.67665  0.92897  0.83304  1.0000
  Fe  Fe190     1.0  0.93643  0.72353  0.71719  1.0000
  H   H1697     1.0  0.63974  0.86729  0.81502  1.0000
  H   H1698     1.0  0.65263  0.83695  0.81695  1.0000
  H   H1699     1.0  0.64232  0.85071  0.84354  1.0000
  H   H1700     1.0  0.68890  0.84532  0.79428  1.0000
  H   H1701     1.0  0.70536  0.86884  0.80041  1.0000
  H   H1702     1.0  0.67669  0.87529  0.78849  1.0000
  H   H1703     1.0  0.68155  0.84223  0.85972  1.0000
  H   H1704     1.0  0.69168  0.82716  0.83402  1.0000
  H   H1705     1.0  0.70782  0.85047  0.84179  1.0000
  H   H1706     1.0  0.65538  0.87299  0.87063  1.0000
  H   H1707     1.0  0.68855  0.90731  0.80507  1.0000
  H   H1708     1.0  0.96490  0.86019  0.67745  1.0000
  S   S383      1.0  0.96357  0.75042  0.71699  1.0000
  H   H1709     1.0  0.93770  0.85631  0.65216  1.0000
  N   N95       1.0  0.79079  0.76510  0.74902  1.0000
  H   H1710     1.0  0.59370  0.73737  0.90390  1.0000
  C   C1426     1.0  0.81395  0.77175  0.75494  1.0000
  C   C1427     1.0  0.82221  0.79450  0.74793  1.0000
  C   C1428     1.0  0.82918  0.75502  0.76795  1.0000
  C   C1429     1.0  0.84439  0.79992  0.75358  1.0000
  C   C1430     1.0  0.85137  0.76056  0.77335  1.0000
  C   C1431     1.0  0.85899  0.78296  0.76611  1.0000
  H   H1711     1.0  0.85038  0.81730  0.74776  1.0000
  C   C1432     1.0  0.49656  0.73361  0.93612  1.0000
  H   H1712     1.0  0.71160  0.96800  0.84483  1.0000
  S   S384      1.0  0.66181  0.93238  0.48586  1.0000
  H   H1713     1.0  0.78963  0.95300  0.70328  1.0000
  C   C1433     1.0  0.75038  0.74991  0.95413  1.0000
  C   C1434     1.0  0.85945  0.90282  0.63288  1.0000
  H   H1714     1.0  0.95758  0.80106  0.71001  1.0000
  C   C1435     1.0  0.74139  0.97074  0.94888  1.0000
  C   C1436     1.0  0.91428  0.79390  0.65972  1.0000
  C   C1437     1.0  0.87703  0.89973  0.59260  1.0000
  Fe  Fe191     1.0  0.63516  0.94303  0.93305  1.0000
  H   H1715     1.0  0.54911  0.78905  0.96189  1.0000
  H   H1716     1.0  0.89056  0.90460  0.57848  1.0000
  H   H1717     1.0  0.89012  0.92038  0.61761  1.0000
  C   C1438     1.0  0.93686  0.93804  0.95925  1.0000
  H   H1718     1.0  0.75949  0.77929  0.73142  1.0000
  H   H1719     1.0  0.92119  0.92959  0.96676  1.0000
  H   H1720     1.0  0.80354  0.89567  0.96239  1.0000
  N   N96       1.0  0.96770  0.82183  0.67715  1.0000
  C   C1439     1.0  0.78663  0.95110  0.56316  1.0000
  H   H1721     1.0  0.83889  0.94454  0.59017  1.0000
  Fe  Fe192     1.0  0.62720  0.94835  0.47218  1.0000
  H   H1722     1.0  0.68222  0.94495  0.82276  1.0000
  H   H1723     1.0  0.73039  0.96920  0.93462  1.0000
  H   H1724     1.0  0.88535  0.95888  0.51426  1.0000
  H   H1725     1.0  0.80937  0.95017  0.51694  1.0000
  H   H1726     1.0  0.80072  0.92599  0.96912  1.0000
  H   H1727     1.0  0.72907  0.97300  0.88206  1.0000
  C   C1440     1.0  0.96041  0.97176  0.95537  1.0000
  H   H1728     1.0  0.51902  0.97238  0.96732  1.0000
