data_image0
_chemical_formula_structural       FeHSFeCSNCHSH2CFeHCHFeHSCHC2H2CSH2C5H3C4HNHC8HCH3CSCH6C4H4CHCNCHCH5CHCHC2H4CHCHC2SH2CSH3CHSH4C3HCH2CHCH3C3HC2HC2H2CNHCHC2H2NC5SC2H3C2H2SHCH2CHSH3FeC2SHFeCS3H3FeS2FeSFeCS2FeS3FeSFeS2FeS2FeS2FeSFeS3FeS2FeS2FeSFeS3FeSFeS3C3HNH3C4H3CH4C2HC6H4C6H4C6H2SHC6H4C6H4C6H4CHC4HCHC7H7CH2CH8SCHCHCHC2H4CHC3HC2HC3SCH2C4HNHC2NSCHCNC9H14CSCHCHSHFeHCH2CNHCH4CSCHC3H4C3HC2SH2SC3HSHC2HNH2C3H2NH2CHCHFeNFeH5CH2CHCH6C4H3CH5NH2NH2CH5CHCHCHCHC3SC4H4CH2CHCH4SFeC4HC6H3CH2C2S2H2C4H4FeHNCHC2HCHSH2FeH3CHCH5C3HC2NH4CH2SCHC2SH2SHFeH2CH2SHC2HSC2H2SHFeHNS2Fe2S2HCNHCFeHFe2S2FeSFeHS2FeS2FeS2FeSFeS3HSCHFeHSCS2C2SHC2HC6H4C6H7C6H8C10H4FeCHC2HCH2C6H2FeHNSCNHFeHCH2C2HC2HCNC2HN2C8H10C4H2SHCHC4HCHC2H4SH2CHCHC5H6SCH2C4HC2H3C3SFeCSH6CH4CH2C2HCHCH3C2H4CH2CH3NH3SC2H3NCH2C2SCHCHCHCHCSHCNC3H7CH4CHC5SCH2C2H3CH3CFeS2FeS2FeSFeS3FeS2CSFeSFeS3H3CSHFeS2CSHFeSH2SHSHCFeCSFeS2Fe2S3CH4C6H5CH2CFeC3H2C3HC2H2CSC6H4C6H4C6H4CHC3HCHCFeH2CHC7H3NHC2H5FeC2H2SC3H2C3SFeCHC3HNC9H12NFeH2NC3H2CHCH2CH3NC9H8SH7SCNH3C2HNC9HCH12C3SC9H3C2H5CH11SCSH2CH2C3HFeHCHCH2SH2CH2FeC2H3CN2CH8C3H2FeC3SH3C2H2SH7CHCH3CHC2HSFeSFeS2FeSFeS3FeS2FeS2FeSFeS3FeS2FeS2FeSFeS5FeSFeSCFeSC3HCFeSHSH2C2HSHCFeS2HFeS2FeS2FeSFeS4C6H4C8H5FeH6FeHC3H2C6H4C6H4C2H3C8H4C6H4C3H2C6H4C6H4CH3CNC9H14NC4HFeC2H11CFeH2NC9H15CH7FeHFeNC2NSC2H3C2H2CH2CH4CSHCHCNH3C2FeCHSH3CSH3NC8SH12CH2CNHCH2CFeHSHSH3CH2CH2CHCHC3H7CHNCH6NC2H2FeH3C2HCH2C3H2C2HC4H5C2NCHC2NHCHCH3CSHC2H3SH2SCHCHCSC2HCHCHCFeHC6HSHC4H2CH2SHSHCH3CHCSCHC2H3CNHFeSHSH4C2HC4SC3H2CH6C2H4CH4CH2C2HC2HSFeSCFeSCFeSFeHS2HCFeS2C6H4CHC4H4CHC2H4CSHCH8NH2CHCH3CNCH3C3H7C2HSH2CHCNHCH2C3FeC3HC5H2CHSHC2H2C2HSHNCH2CH5CH3SHCSFeC2SC3H2CH2C2H4C4H2S2C2HCHCNHCHCH5C2HCH2CH2FeH3CH5C2H2CSFeSFeS4FeS2FeSFeCFeS3FeS2FeS2FeSFeS3FeS2FeS2FeSFeS3CHCHSCFeSH3NCHSHCSHSHCSH2FeS2FeSFeHS2CFeS2FeS2Fe2S3HSFeH3C4H4C6H5C7H3CHC4H2FeC2H6CHC7H4C6H4C6HCHC6H5NHC2H5C6H4CH3C6H4SC2FeH5C7H4C3H3C4HCHC4H10FeH2C2NC8H10CFeH2CHC2NC4H5CFeC2H3CH2C2H2SCH4CH2CHCH2C4HCHNC9H16C2HC2H3CH4CH4NHCNC9H14NC9H11C2HC2H3SH4CH2C2FeHC3NCH3SHC2HNCH4C3H4CH2C2HCSHC3H3C2H3CNSC4NCH2CHSH4C2FeCHCHC2HCNHCHSFeC2HC2NSCH6NCHCSH2CHSH5CFeHC2SHCHC2H3FeCH2C2H3CH7SC2HC2HCH2CHC3H2CH3C2HC2FeS2FeS2FeSFeS3FeS2FeS2Fe2S3C2S2H2SHC2H5C2H8C2H2C6H4C2HC3HFeCHCH5NH2C6H4C2HCHC3HNHCHFeC2H2CHFeCHNC5HC2H10C2HCH4CSCSH2CH2C2H3C2FeNCHC3HC3H12NC9H4CH13CH2S2C4H2CH2SCHC2HCHCHC3H3C2H2NHNS2CHC2HC3HCH3C3HNH4CH2SC2HCHC3H4C2H2C3HCNH2C4H3CFeH3S2HC3H2SHCH2FeS2FeS2FeHFeCS2C2HCHS2FeS2FeCSFeSCS2CS2H5CSCHS2HCSC6H4CNH5CH2C7H4C6H7C3H4C6H4SC2H2C6H7CNHCH2CSC2H3C4H2C3FeHCHSHSHC2H7C5NHCHCFeH3CH4C4H5CHC3HFeH3C2HCNC4HCH2CHFeCHFeH3CNC6H10NHCHCSH6CH8C2HNC8H4C2SHS2NSH4CH2FeH2C2H7C4HCHSHSFeCH3SCH2SFeH4FeSCFeS2FeS2FeSFeS3FeS2FeSFeSFeS3FeS2FeS2FeSFeS3FeSCFeSCFeSFeS3FeHSFeCSH3S2FeH2CHNH3NHCFeCFeHSCH2CHC3H3CH2C2SHC2H4C6H3C8H4C2NHC6H4C6H4C6H4C6H4C6H4C7H3NFeCHCNFeHSHCH2C6H6CHCH5CH2CH4CH3CHCH2CH7NH2NC9H16CFeH4SH2CHCH4CHCSCH3C2SHCHSH2C2H3FeHC2HCH2NC7HCH10SH2CHNC7HCH10CSHCH4C3SH2CHCH2FeC7HC2SC6H4CHSC2HCHCNC3H2CHC3NH4CSCHCH2CHC4H2C3H2SCH2CS2H2C2HCH3CH2C2SCH2SHFeC2HCH2CHNS2CH2NH2CH3CHFeHCHC2HC2H3CH2CH3CH2C2H2C2FeC2H2CHSH2NH2CHCH3C3HC3H4FeS2FeS2FeSFeS3FeS2FeS2FeSFeS5Fe2S2FeSCFeS2FeSFeCSCFeSFeS2FeS3HSH2CSFeSFeS2CSH5C2H2C3HC2H4C2HCSH2C6H4C6H4C7H2CHC6H4C6H4C6H4C6H4C6H5CHC4H5CNCH9SH2CH2CHCHCNH2C5H2C2H3C2HNC9H11FeSHCHCH2C2H2C2H3C2H2CH5FeHNCHCH2CHNC5HCH5NH8CH4SNH2FeNFeH4C3H2C2FeHCH2CH2SH3C2H4CH10C2HC2HC2HCH4C2HSHCHSCH6FeCH3C3HC2HC6HC5HC2FeHNHCH3CHCNHCHCSCH4C2SHCSCH3SC2H4SHCH3NHCHCHCH2S3HSC2HCHNH2C2HC2HC4HC3HCHCSHC2HC4HCHSCHCH2C2HC2HSH5CSCHCH2FeH2C3HCHNCHC3H2CHCHFeHSHCH4C2H5SCNC2HCHC2NSH9SC3SCSCHC2HC3NHFeCFeS2CHFeSHSFeS2FeSCFeSFeS2H2CFeS2FeCH2FeS3FeS2FeS2FeSFeS3CH2CH3CHC3HC2H2C2H4C6H7FeHCH3NC3H2C6H9CSH2C6H4C6H4C6HSH2NCNCHCH2SH2CHSC2HCHC2H3CNHNCHC2HCHC2HC4HCHFeCHCH2NC2HC3H2CH10CH3NC9H8CH2CH2S2H7CH5CNC2HC2HC2FeHC4HC2H3C2H2NCHC3H2CH2S2HCH4CH4CHCH2CHCNS2HCSFeS2FeSH3FeSHSFeS2FeS2FeSFeS4HFeS3FeSFeC5H2C6H4C6H6C7H4C4H3C6H4C6H4CH2FeHCH2C2HCHCH2C2SCHCS2H2CHC2HCHNC8H8FeH2NC2H2FeCHCHCHCH2FeH2FeH2SCH2CFeNCH4FeSHCHNC9H14C2H5CH2CHCHCHC3SCNCH2S2CH2SNC3HS2C3H3CHC2HCH2CHC2H3FeH2NCHC3H2S2CFeCSCHCHC2HC2HCSCH3C2HSCHCSCH2CH7C2H2CH2SH3CHCH2C3H3C2HCH3SH2CHCH2CH2SCH2CHCNSC2H3SHCHC2FeH2C2HNH2CH3C2H5CHC2FeHC5SC2H2S2HSCFeS2FeS2FeSFeS5FeSFeSHFeSNFeS2Fe2CS2FeS2FeS2FeSFeS3FeS2FeS2FeSFeS3FeS2FeS2FeSFeCS2HC2HC2HCHC5H3C2SH2C6H2CH2C2H6C6H4C6H4C6H4C6H4FeC2H2C6H5C3H2CHC6H5CHC2H2CNH2C5H5C2H3CH5NC8H14C6H7CH2C2H3C6H4NC8H14CFeH3CHCHFeSCHC2SHC2HNCFeHNCH6SH3CHS2CHC3HSC4HCH2C2HCHCH4NC3SH2CHSNHC2H2CHFeH2CH2C2HSH6CNH2C4HSCHC5H2SCH2NHCFeCNCHFeH5NCHCHCH4CHFeH2CH3NHSH2CHC2H2CH2CHCHSH4CHC2H2CH4CHC3H3CH2C2HCH3CH5C4HCH3SC2HSHCHCSFeS2FeS2Fe2S3FeS2FeS2FeSFeS2CFeS2FeS2FeSFeS3H3FeSCHSFeH3FeS2FeS2FeSFeS3FeS2FeSFeSFeS4FeHFeS3H2SHCHC2H3C2FeC4H2NC3H2CHCH2C6H5C3HC2S2H2C6H4C6H4C6H6C7H4CHFeH3CHSHC6H4C5HCH2C7HCH7CH3NH2C2H3NC9H12CNHCH3CHCHFeHCHCHCHFeC4HNC9H14CH3NC9H2FeH11NCHC7H5SHSCH3CNSH5C4HC4H4CH3CH2CHCNSHCH2CSCHCHCSCHC2HC2HC5H3CH2NC5HCH2CFeHC2HC2SH3SCSH2NCH6CH2C3HC3H3C3HCSC4H2CH3C2H5CHC3NCHCHCHC2HC2H2FeCHCH2SH2CHCHC2H3FeHCH3C2SHCH3NH4CHCHC2H4CH6CHFeH5CHCH4SCHC3HFe2HSC3FeSH3C4HC3S2HCHC2HCH5NHCH3CH2CHCNC2HCHCH4C2HCH4C4H5CH2NH3C4FeS2FeSCFeSFeS3HFeSFeS2FeSFeS3HS2CH2SH4C2HCHSH4CH2C6HCH2C6H6C3H2C6H4C3HC2H4CHCH3C3H6SH3C2H2C2HC2HC5NC2H2C2H2C2HFeH4CH2NHCH2C2H4CFeHNC9H14CSCHCH2NSC2NC2HC3HC3HCHC3HCH3CH3CH2CH3C2H2CH7FeCH2C2H2CSH6NCH2C2HC2HC2H2CH4SHNSHCH2FeSHFeS2FeSFeS2FeSCFeS2FeSFeS3HCSHSFeSH3CSHCHFeC3H2CHCH2C4HCHCH3C4HCHFeC6H4C6H8CH6NHCFeC2HCH2NH2FeH2CFeHCH2SH2CHSC3NHSC6H6NC9H4CH9NC10H11SHNCHC8H3CH4CH4C2H5FeH2S2C2H2C4SC6SHCH2CHCH6C2SHCHCH4CNHNH2CHC2H2CHCH2CHCSH4NH3C7H2CHSHSH3CHCHCFeHCHCHSHFeH2CHFeS2FeS2Fe2HS2HC2FeSCHC2HC2H2CHCHFeHCHFeS2FeS2FeSFeS3FeS2FeS2FeSFeS3FeS2FeS2HFeS3FeS2FeS2FeSFeS3H2CHCS2H2CHSC7H4C6H4C6H4C3H2C6H4C6H4C6H4C6H9C6H4CH9CHCH2C6H5C3S2CH4C3H2CH3C3H4SH4CSH3C4FeSHCNC9H14NC7H11CHCH3C2SHCH3C3H5CHNC9H9C2HNC3HCH3C2H3C4FeHCFeH2CHCH2C2H3NH2SHSCHFeH3C3HCH2NH2CH2CH4CHCSHCHC2H2CH2C5HC2HC2H3CNHC3SNCH3C5HNH6C2HCFeC2HNHCH6C2H2CH2C2H4C4H2C2NHC2S2H2CH2CHNCHS2H4CS2HCHCH2SHCH
_chemical_formula_sum              "Fe384 H3456 S768 C2880 N192"
_cell_length_a       79.5188
_cell_length_b       79.5238
_cell_length_c       79.6703
_cell_angle_alpha    74.5261
_cell_angle_beta     74.499
_cell_angle_gamma    74.5194

_space_group_name_H-M_alt    "P 1"
_space_group_IT_number       1

loop_
  _space_group_symop_operation_xyz
  'x, y, z'

loop_
  _atom_site_type_symbol
  _atom_site_label
  _atom_site_symmetry_multiplicity
  _atom_site_fract_x
  _atom_site_fract_y
  _atom_site_fract_z
  _atom_site_occupancy
  Fe  Fe1       1.0  0.08086  0.01518  0.32230  1.0000
  H   H1        1.0  0.02370  0.28650  0.13271  1.0000
  S   S1        1.0  0.05746  0.03643  0.33127  1.0000
  Fe  Fe2       1.0  0.12132  0.00680  0.31020  1.0000
  C   C1        1.0  0.01051  0.27428  0.10776  1.0000
  S   S2        1.0  0.14588  0.01737  0.30584  1.0000
  N   N1        1.0  0.01824  0.09415  0.36497  1.0000
  C   C2        1.0  0.00797  0.01850  0.30919  1.0000
  H   H2        1.0  0.01117  0.08453  0.39341  1.0000
  S   S3        1.0  0.09920  0.02009  0.29547  1.0000
  H   H3        1.0  0.11843  0.15088  0.48638  1.0000
  H   H4        1.0  0.01335  0.02835  0.26378  1.0000
  C   C3        1.0  0.16430  0.02166  0.25962  1.0000
  Fe  Fe3       1.0  0.20572  0.05743  0.48941  1.0000
  H   H5        1.0  0.14919  0.05562  0.39566  1.0000
  C   C4        1.0  0.10206  0.30662  0.00858  1.0000
  H   H6        1.0  0.00568  0.32236  0.11498  1.0000
  Fe  Fe4       1.0  0.04659  0.31711  0.06604  1.0000
  H   H7        1.0  0.16303  0.01675  0.22869  1.0000
  S   S4        1.0  0.05175  0.28774  0.06776  1.0000
  C   C5        1.0  0.15032  0.00401  0.35759  1.0000
  H   H8        1.0  0.14957  0.02555  0.26439  1.0000
  C   C6        1.0  0.17968  0.00540  0.46340  1.0000
  C   C7        1.0  0.02087  0.11756  0.38018  1.0000
  H   H9        1.0  0.04303  0.02827  0.26052  1.0000
  H   H10       1.0  0.09827  0.05476  0.36158  1.0000
  C   C8        1.0  0.19821  0.00853  0.23268  1.0000
  S   S5        1.0  0.01940  0.12951  0.47737  1.0000
  H   H11       1.0  0.07198  0.16757  0.47090  1.0000
  H   H12       1.0  0.18453  0.05817  0.43254  1.0000
  C   C9        1.0  0.01924  0.25992  0.11911  1.0000
  C   C10       1.0  0.03777  0.25415  0.11447  1.0000
  C   C11       1.0  0.04756  0.26253  0.09852  1.0000
  C   C12       1.0  0.03901  0.27721  0.08743  1.0000
  C   C13       1.0  0.02045  0.28322  0.09212  1.0000
  H   H13       1.0  0.09277  0.17532  0.48651  1.0000
  H   H14       1.0  0.04458  0.24311  0.12321  1.0000
  H   H15       1.0  0.06187  0.25785  0.09495  1.0000
  C   C14       1.0  0.01752  0.01946  0.29127  1.0000
  C   C15       1.0  0.20337  0.02199  0.44996  1.0000
  C   C16       1.0  0.10667  0.11634  0.46758  1.0000
  C   C17       1.0  0.10381  0.30895  0.02469  1.0000
  H   H16       1.0  0.18343  0.02947  0.49148  1.0000
  N   N2        1.0  0.00549  0.30899  0.14255  1.0000
  H   H17       1.0  0.16568  0.00884  0.48985  1.0000
  C   C18       1.0  0.19986  0.02907  0.46524  1.0000
  C   C19       1.0  0.02154  0.08111  0.38161  1.0000
  C   C20       1.0  0.11440  0.14166  0.48124  1.0000
  C   C21       1.0  0.21670  0.00368  0.22674  1.0000
  C   C22       1.0  0.03789  0.02847  0.34216  1.0000
  C   C23       1.0  0.02146  0.04058  0.34410  1.0000
  C   C24       1.0  0.01299  0.29689  0.04351  1.0000
  C   C25       1.0  0.01369  0.31196  0.02967  1.0000
  H   H18       1.0  0.19629  0.00479  0.43726  1.0000
  C   C26       1.0  0.03842  0.01017  0.34815  1.0000
  H   H19       1.0  0.02094  0.05474  0.33951  1.0000
  H   H20       1.0  0.01395  0.12401  0.33814  1.0000
  H   H21       1.0  0.02201  0.10818  0.39264  1.0000
  C   C27       1.0  0.17616  0.01251  0.47863  1.0000
  S   S6        1.0  0.00452  0.13165  0.43130  1.0000
  C   C28       1.0  0.14675  0.00376  0.34130  1.0000
  H   H22       1.0  0.16086  0.02212  0.43590  1.0000
  H   H23       1.0  0.14980  0.07562  0.47822  1.0000
  H   H24       1.0  0.24639  0.00362  0.45999  1.0000
  H   H25       1.0  0.15562  0.02471  0.41471  1.0000
  H   H26       1.0  0.19095  0.01927  0.22410  1.0000
  H   H27       1.0  0.17057  0.02148  0.27064  1.0000
  C   C29       1.0  0.14961  0.01771  0.32650  1.0000
  C   C30       1.0  0.15577  0.03200  0.32811  1.0000
  C   C31       1.0  0.15885  0.03249  0.34448  1.0000
  C   C32       1.0  0.15632  0.01844  0.35919  1.0000
  H   H28       1.0  0.22317  0.01032  0.21381  1.0000
  H   H29       1.0  0.03944  0.00624  0.26196  1.0000
  H   H30       1.0  0.15796  0.04281  0.31674  1.0000
  H   H31       1.0  0.16345  0.04368  0.34564  1.0000
  C   C33       1.0  0.08343  0.03413  0.36754  1.0000
  H   H32       1.0  0.16844  0.03242  0.24827  1.0000
  C   C34       1.0  0.00049  0.09368  0.36265  1.0000
  N   N3        1.0  0.03712  0.01267  0.28727  1.0000
  C   C35       1.0  0.02026  0.14225  0.49228  1.0000
  H   H33       1.0  0.04210  0.02102  0.30888  1.0000
  C   C36       1.0  0.09282  0.12751  0.47701  1.0000
  H   H34       1.0  0.02645  0.32869  0.99556  1.0000
  H   H35       1.0  0.01377  0.29454  0.08354  1.0000
  H   H36       1.0  0.00780  0.16772  0.47836  1.0000
  H   H37       1.0  0.03485  0.08049  0.38405  1.0000
  H   H38       1.0  0.01822  0.16224  0.36465  1.0000
  C   C37       1.0  0.08252  0.01642  0.37584  1.0000
  H   H39       1.0  0.06079  0.01854  0.29085  1.0000
  C   C38       1.0  0.01400  0.16077  0.48956  1.0000
  H   H40       1.0  0.00098  0.29057  0.16792  1.0000
  C   C39       1.0  0.19333  0.01023  0.44902  1.0000
  C   C40       1.0  0.10950  0.01296  0.38621  1.0000
  H   H41       1.0  0.07153  0.01180  0.37430  1.0000
  H   H42       1.0  0.03232  0.30626  0.12628  1.0000
  H   H43       1.0  0.05104  0.00076  0.34733  1.0000
  H   H44       1.0  0.14195  0.13106  0.47039  1.0000
  C   C41       1.0  0.01653  0.14412  0.34965  1.0000
  H   H45       1.0  0.02227  0.13883  0.39153  1.0000
  C   C42       1.0  0.02249  0.00396  0.35519  1.0000
  H   H46       1.0  0.09767  0.29493  0.00827  1.0000
  C   C43       1.0  0.01886  0.14846  0.36458  1.0000
  C   C44       1.0  0.18926  0.99937  0.24910  1.0000
  S   S7        1.0  0.21315  0.04341  0.46611  1.0000
  H   H47       1.0  0.18979  0.00715  0.32988  1.0000
  H   H48       1.0  0.01475  0.01296  0.32015  1.0000
  C   C45       1.0  0.09624  0.14066  0.48398  1.0000
  S   S8        1.0  0.04165  0.32767  0.09069  1.0000
  H   H49       1.0  0.05626  0.17013  0.49142  1.0000
  H   H50       1.0  0.05976  0.00883  0.26541  1.0000
  H   H51       1.0  0.10370  0.10646  0.46234  1.0000
  C   C46       1.0  0.12815  0.13029  0.47197  1.0000
  H   H52       1.0  0.99952  0.08001  0.36252  1.0000
  S   S9        1.0  0.16063  0.01947  0.37938  1.0000
  H   H53       1.0  0.04248  0.03742  0.28853  1.0000
  H   H54       1.0  0.12802  0.05706  0.44472  1.0000
  H   H55       1.0  0.14631  0.00635  0.24410  1.0000
  H   H56       1.0  0.05968  0.15056  0.48338  1.0000
  C   C47       1.0  0.18616  0.02431  0.47956  1.0000
  C   C48       1.0  0.04597  0.02286  0.29416  1.0000
  C   C49       1.0  0.00557  0.03438  0.35146  1.0000
  H   H57       1.0  0.07353  0.04223  0.35993  1.0000
  C   C50       1.0  0.14746  0.06092  0.40780  1.0000
  H   H58       1.0  0.17972  0.07007  0.45871  1.0000
  H   H59       1.0  0.11005  0.32607  0.03791  1.0000
  C   C51       1.0  0.03211  0.08800  0.34996  1.0000
  H   H60       1.0  0.22680  0.00376  0.48968  1.0000
  C   C52       1.0  0.06681  0.16033  0.48456  1.0000
  H   H61       1.0  0.07939  0.12561  0.47903  1.0000
  H   H62       1.0  0.03320  0.07367  0.35025  1.0000
  H   H63       1.0  0.21405  0.02548  0.43891  1.0000
  C   C53       1.0  0.04504  0.01413  0.26792  1.0000
  C   C54       1.0  0.17100  0.06055  0.44019  1.0000
  C   C55       1.0  0.15660  0.05646  0.43570  1.0000
  H   H64       1.0  0.13302  0.06275  0.41410  1.0000
  C   C56       1.0  0.13718  0.06680  0.46230  1.0000
  C   C57       1.0  0.15327  0.03135  0.42601  1.0000
  H   H65       1.0  0.02925  0.09555  0.33677  1.0000
  C   C58       1.0  0.13957  0.05993  0.44719  1.0000
  C   C59       1.0  0.17747  0.04560  0.40957  1.0000
  H   H66       1.0  0.13888  0.03258  0.43237  1.0000
  H   H67       1.0  0.18237  0.05825  0.40409  1.0000
  C   C60       1.0  0.00600  0.01604  0.35654  1.0000
  N   N4        1.0  0.15881  0.04875  0.42004  1.0000
  H   H68       1.0  0.18668  0.03606  0.41780  1.0000
  C   C61       1.0  0.15160  0.07052  0.46637  1.0000
  H   H69       1.0  0.15088  0.07434  0.40337  1.0000
  C   C62       1.0  0.16843  0.06748  0.45530  1.0000
  C   C63       1.0  0.16105  0.00507  0.23975  1.0000
  H   H70       1.0  0.17865  0.03966  0.39799  1.0000
  H   H71       1.0  0.04547  0.08955  0.35045  1.0000
  N   N5        1.0  0.16955  0.00404  0.25463  1.0000
  C   C64       1.0  0.11024  0.03069  0.37791  1.0000
  C   C65       1.0  0.01644  0.12651  0.34985  1.0000
  C   C66       1.0  0.00643  0.32445  0.14907  1.0000
  C   C67       1.0  0.01864  0.11265  0.36510  1.0000
  C   C68       1.0  0.09736  0.04119  0.36842  1.0000
  S   S10       1.0  0.21118  0.08464  0.48710  1.0000
  C   C69       1.0  0.09591  0.00511  0.38499  1.0000
  C   C70       1.0  0.12431  0.11774  0.46508  1.0000
  H   H72       1.0  0.01404  0.15459  0.33813  1.0000
  H   H73       1.0  0.13508  0.10902  0.45791  1.0000
  H   H74       1.0  0.12116  0.03615  0.37848  1.0000
  C   C71       1.0  0.02109  0.13521  0.37976  1.0000
  C   C72       1.0  0.10905  0.32413  0.02525  1.0000
  H   H75       1.0  0.02496  0.28958  0.04844  1.0000
  H   H76       1.0  0.11993  0.00532  0.39325  1.0000
  S   S11       1.0  0.00772  0.24992  0.13991  1.0000
  H   H77       1.0  0.02644  0.31585  0.02439  1.0000
  C   C73       1.0  0.02381  0.29849  0.13735  1.0000
  H   H78       1.0  0.03068  0.29373  0.14876  1.0000
  H   H79       1.0  0.12415  0.06899  0.47109  1.0000
  C   C74       1.0  0.00735  0.02703  0.27779  1.0000
  H   H80       1.0  0.02103  0.06737  0.38118  1.0000
  S   S12       1.0  0.10308  0.00451  0.33697  1.0000
  H   H81       1.0  0.10076  0.29914  0.03685  1.0000
  H   H82       1.0  0.12122  0.04623  0.53303  1.0000
  H   H83       1.0  0.03672  0.01624  0.67787  1.0000
  Fe  Fe5       1.0  0.21715  0.07391  0.51451  1.0000
  C   C75       1.0  0.13828  0.29956  0.84594  1.0000
  C   C76       1.0  0.09591  0.30351  0.74033  1.0000
  S   S13       1.0  0.19373  0.20323  0.58400  1.0000
  H   H84       1.0  0.12504  0.12887  0.68325  1.0000
  Fe  Fe6       1.0  0.18558  0.05510  0.52780  1.0000
  C   C77       1.0  0.02820  0.02619  0.68586  1.0000
  S   S14       1.0  0.17081  0.03793  0.55143  1.0000
  S   S15       1.0  0.21448  0.04597  0.51559  1.0000
  S   S16       1.0  0.18903  0.08173  0.52879  1.0000
  H   H85       1.0  0.16631  0.32249  0.80757  1.0000
  H   H86       1.0  0.13137  0.03675  0.56141  1.0000
  H   H87       1.0  0.13549  0.14447  0.51191  1.0000
  Fe  Fe7       1.0  0.19927  0.10831  0.73023  1.0000
  S   S17       1.0  0.19922  0.11640  0.70112  1.0000
  S   S18       1.0  0.17685  0.11668  0.75238  1.0000
  Fe  Fe8       1.0  0.21422  0.08841  0.70004  1.0000
  S   S19       1.0  0.20743  0.07619  0.68056  1.0000
  Fe  Fe9       1.0  0.22591  0.12230  0.69808  1.0000
  C   C78       1.0  0.05439  0.01332  0.63394  1.0000
  S   S20       1.0  0.21248  0.07968  0.72971  1.0000
  S   S21       1.0  0.22467  0.11689  0.72728  1.0000
  Fe  Fe10      1.0  0.11683  0.06172  0.63946  1.0000
  S   S22       1.0  0.11107  0.07545  0.66211  1.0000
  S   S23       1.0  0.12863  0.07837  0.61363  1.0000
  S   S24       1.0  0.09347  0.04186  0.68665  1.0000
  Fe  Fe11      1.0  0.08460  0.06801  0.66904  1.0000
  S   S25       1.0  0.05923  0.08664  0.67862  1.0000
  Fe  Fe12      1.0  0.12081  0.04833  0.67773  1.0000
  S   S26       1.0  0.13572  0.04752  0.69868  1.0000
  S   S27       1.0  0.08918  0.05664  0.64492  1.0000
  Fe  Fe13      1.0  0.13697  0.18251  0.67394  1.0000
  S   S28       1.0  0.11370  0.16935  0.68198  1.0000
  S   S29       1.0  0.16431  0.16760  0.66328  1.0000
  Fe  Fe14      1.0  0.11638  0.21509  0.68919  1.0000
  S   S30       1.0  0.09086  0.20484  0.69829  1.0000
  S   S31       1.0  0.12178  0.24067  0.69247  1.0000
  Fe  Fe15      1.0  0.10840  0.17852  0.70735  1.0000
  S   S32       1.0  0.10276  0.15983  0.73359  1.0000
  Fe  Fe16      1.0  0.09803  0.19640  0.67184  1.0000
  S   S33       1.0  0.07628  0.19579  0.65855  1.0000
  S   S34       1.0  0.13313  0.18928  0.70031  1.0000
  S   S35       1.0  0.12194  0.20919  0.66175  1.0000
  Fe  Fe17      1.0  0.07409  0.13329  0.56148  1.0000
  S   S36       1.0  0.04524  0.13408  0.56414  1.0000
  S   S37       1.0  0.09286  0.10945  0.55284  1.0000
  Fe  Fe18      1.0  0.06750  0.16721  0.57477  1.0000
  S   S38       1.0  0.03764  0.17172  0.57761  1.0000
  S   S39       1.0  0.08519  0.18207  0.58101  1.0000
  Fe  Fe19      1.0  0.04161  0.14231  0.58982  1.0000
  S   S40       1.0  0.02310  0.13046  0.61416  1.0000
  Fe  Fe20      1.0  0.04370  0.16292  0.55138  1.0000
  S   S41       1.0  0.02912  0.17461  0.52831  1.0000
  S   S42       1.0  0.07083  0.13841  0.58847  1.0000
  S   S43       1.0  0.07313  0.16163  0.54720  1.0000
  Fe  Fe21      1.0  0.15784  0.26888  0.76210  1.0000
  S   S44       1.0  0.15160  0.24393  0.75820  1.0000
  Fe  Fe22      1.0  0.18259  0.28426  0.77490  1.0000
  S   S45       1.0  0.20823  0.28009  0.78432  1.0000
  S   S46       1.0  0.15957  0.27092  0.78941  1.0000
  S   S47       1.0  0.18246  0.27989  0.74804  1.0000
  C   C79       1.0  0.15505  0.15208  0.56624  1.0000
  C   C80       1.0  0.09058  0.13133  0.70773  1.0000
  C   C81       1.0  0.11152  0.32257  0.85003  1.0000
  H   H88       1.0  0.15694  0.11557  0.56830  1.0000
  N   N6        1.0  0.07447  0.13998  0.68196  1.0000
  H   H89       1.0  0.17004  0.13073  0.65562  1.0000
  H   H90       1.0  0.14446  0.11901  0.69269  1.0000
  H   H91       1.0  0.15114  0.09224  0.68418  1.0000
  C   C82       1.0  0.20597  0.29008  0.80231  1.0000
  C   C83       1.0  0.19138  0.28901  0.81666  1.0000
  C   C84       1.0  0.18984  0.29675  0.83107  1.0000
  C   C85       1.0  0.20246  0.30619  0.83095  1.0000
  H   H92       1.0  0.10488  0.12239  0.72909  1.0000
  H   H93       1.0  0.17391  0.11026  0.67170  1.0000
  H   H94       1.0  0.18129  0.28216  0.81670  1.0000
  C   C86       1.0  0.21040  0.27350  0.89024  1.0000
  H   H95       1.0  0.19328  0.17610  0.56101  1.0000
  H   H96       1.0  0.06761  0.04750  0.60080  1.0000
  H   H97       1.0  0.00189  0.14934  0.55527  1.0000
  H   H98       1.0  0.11912  0.11975  0.61979  1.0000
  C   C87       1.0  0.02490  0.16173  0.51528  1.0000
  C   C88       1.0  0.03048  0.14313  0.51839  1.0000
  H   H99       1.0  0.03662  0.13613  0.52957  1.0000
  C   C89       1.0  0.12989  0.24143  0.71093  1.0000
  C   C90       1.0  0.13530  0.25687  0.71098  1.0000
  C   C91       1.0  0.14188  0.25791  0.72538  1.0000
  C   C92       1.0  0.14307  0.24349  0.73992  1.0000
  C   C93       1.0  0.13750  0.22812  0.73994  1.0000
  C   C94       1.0  0.13102  0.22704  0.72551  1.0000
  H   H100      1.0  0.13437  0.26813  0.69983  1.0000
  H   H101      1.0  0.14601  0.26987  0.72523  1.0000
  H   H102      1.0  0.13825  0.21694  0.75118  1.0000
  H   H103      1.0  0.12667  0.21517  0.72579  1.0000
  C   C95       1.0  0.07948  0.19132  0.63713  1.0000
  C   C96       1.0  0.09500  0.19330  0.62409  1.0000
  C   C97       1.0  0.09660  0.19038  0.60697  1.0000
  C   C98       1.0  0.08294  0.18501  0.60287  1.0000
  C   C99       1.0  0.06765  0.18257  0.61608  1.0000
  C   C100      1.0  0.06582  0.18600  0.63300  1.0000
  H   H104      1.0  0.10546  0.19769  0.62701  1.0000
  H   H105      1.0  0.10837  0.19252  0.59678  1.0000
  H   H106      1.0  0.05697  0.17860  0.61306  1.0000
  H   H107      1.0  0.05368  0.18463  0.64292  1.0000
  C   C101      1.0  0.04970  0.09978  0.66071  1.0000
  C   C102      1.0  0.05970  0.10097  0.64325  1.0000
  C   C103      1.0  0.05163  0.11061  0.62891  1.0000
  C   C104      1.0  0.03359  0.11910  0.63199  1.0000
  C   C105      1.0  0.02364  0.11793  0.64949  1.0000
  C   C106      1.0  0.03174  0.10848  0.66385  1.0000
  H   H108      1.0  0.07368  0.09460  0.64077  1.0000
  H   H109      1.0  0.05927  0.11120  0.61547  1.0000
  S   S48       1.0  0.12840  0.03465  0.65453  1.0000
  H   H110      1.0  0.02397  0.10762  0.67735  1.0000
  C   C107      1.0  0.18780  0.06763  0.68600  1.0000
  C   C108      1.0  0.17681  0.06634  0.70304  1.0000
  C   C109      1.0  0.16114  0.05972  0.70684  1.0000
  C   C110      1.0  0.15610  0.05469  0.69356  1.0000
  C   C111      1.0  0.16713  0.05589  0.67653  1.0000
  C   C112      1.0  0.18295  0.06228  0.67280  1.0000
  H   H111      1.0  0.18045  0.07031  0.71335  1.0000
  H   H112      1.0  0.15276  0.05869  0.72008  1.0000
  H   H113      1.0  0.16349  0.05187  0.66627  1.0000
  H   H114      1.0  0.19143  0.06306  0.65964  1.0000
  C   C113      1.0  0.15597  0.12718  0.74692  1.0000
  C   C114      1.0  0.14134  0.13160  0.76049  1.0000
  C   C115      1.0  0.12483  0.14111  0.75641  1.0000
  C   C116      1.0  0.12303  0.14671  0.73867  1.0000
  C   C117      1.0  0.13759  0.14218  0.72506  1.0000
  C   C118      1.0  0.15392  0.13212  0.72922  1.0000
  H   H115      1.0  0.14278  0.12775  0.77421  1.0000
  H   H116      1.0  0.11360  0.14455  0.76696  1.0000
  H   H117      1.0  0.13622  0.14637  0.71133  1.0000
  H   H118      1.0  0.16497  0.12852  0.71872  1.0000
  C   C119      1.0  0.15887  0.04914  0.56871  1.0000
  C   C120      1.0  0.15403  0.03934  0.58606  1.0000
  C   C121      1.0  0.14461  0.04818  0.59998  1.0000
  C   C122      1.0  0.13998  0.06684  0.59652  1.0000
  C   C123      1.0  0.14433  0.07658  0.57911  1.0000
  C   C124      1.0  0.15373  0.06775  0.56524  1.0000
  H   H119      1.0  0.15784  0.02493  0.58877  1.0000
  H   H120      1.0  0.14121  0.04058  0.61339  1.0000
  H   H121      1.0  0.14018  0.09096  0.57628  1.0000
  H   H122      1.0  0.15667  0.07533  0.55182  1.0000
  C   C125      1.0  0.14499  0.11615  0.51370  1.0000
  H   H123      1.0  0.14932  0.29025  0.85107  1.0000
  C   C126      1.0  0.12304  0.14528  0.62053  1.0000
  C   C127      1.0  0.11322  0.11254  0.53870  1.0000
  C   C128      1.0  0.12575  0.09746  0.53457  1.0000
  C   C129      1.0  0.14162  0.09927  0.52224  1.0000
  H   H124      1.0  0.05281  0.05802  0.66950  1.0000
  C   C130      1.0  0.09091  0.06368  0.57522  1.0000
  H   H125      1.0  0.12319  0.08429  0.54090  1.0000
  C   C131      1.0  0.23067  0.13489  0.51316  1.0000
  C   C132      1.0  0.18541  0.19240  0.60560  1.0000
  C   C133      1.0  0.19683  0.17939  0.61542  1.0000
  C   C134      1.0  0.19021  0.17145  0.63308  1.0000
  C   C135      1.0  0.17213  0.17640  0.64080  1.0000
  C   C136      1.0  0.16057  0.18880  0.63070  1.0000
  C   C137      1.0  0.16724  0.19694  0.61316  1.0000
  H   H126      1.0  0.21083  0.17577  0.60949  1.0000
  H   H127      1.0  0.19914  0.16177  0.64087  1.0000
  H   H128      1.0  0.14651  0.19215  0.63634  1.0000
  H   H129      1.0  0.15835  0.20683  0.60546  1.0000
  H   H130      1.0  0.16868  0.31513  0.87798  1.0000
  H   H131      1.0  0.21397  0.10766  0.77237  1.0000
  H   H132      1.0  0.22080  0.19895  0.62347  1.0000
  C   C138      1.0  0.18296  0.13875  0.60902  1.0000
  H   H133      1.0  0.15143  0.32572  0.89340  1.0000
  H   H134      1.0  0.13346  0.10337  0.64423  1.0000
  C   C139      1.0  0.16727  0.11704  0.66023  1.0000
  H   H135      1.0  0.07119  0.26733  0.79760  1.0000
  H   H136      1.0  0.18012  0.25811  0.62412  1.0000
  H   H137      1.0  0.19280  0.14107  0.52466  1.0000
  H   H138      1.0  0.20579  0.14151  0.61627  1.0000
  H   H139      1.0  0.14367  0.14636  0.56788  1.0000
  H   H140      1.0  0.19461  0.10344  0.55014  1.0000
  H   H141      1.0  0.16469  0.10797  0.54783  1.0000
  H   H142      1.0  0.09699  0.15040  0.66486  1.0000
  S   S49       1.0  0.23159  0.32131  0.87427  1.0000
  C   C140      1.0  0.24390  0.10670  0.53888  1.0000
  H   H143      1.0  0.17845  0.29601  0.84207  1.0000
  C   C141      1.0  0.17241  0.14506  0.55694  1.0000
  H   H144      1.0  0.20878  0.11056  0.65339  1.0000
  C   C142      1.0  0.19879  0.13199  0.61530  1.0000
  H   H145      1.0  0.17393  0.10970  0.64937  1.0000
  C   C143      1.0  0.16119  0.12006  0.55363  1.0000
  C   C144      1.0  0.16746  0.31550  0.92075  1.0000
  H   H146      1.0  0.00962  0.32346  0.98793  1.0000
  H   H147      1.0  0.08344  0.25626  0.81495  1.0000
  H   H148      1.0  0.17807  0.15308  0.60555  1.0000
  H   H149      1.0  0.16470  0.20541  0.66003  1.0000
  C   C145      1.0  0.16315  0.31436  0.89249  1.0000
  H   H150      1.0  0.01812  0.02673  0.65797  1.0000
  C   C146      1.0  0.13984  0.12667  0.68023  1.0000
  C   C147      1.0  0.23074  0.12879  0.82353  1.0000
  C   C148      1.0  0.16598  0.21601  0.66605  1.0000
  H   H151      1.0  0.18443  0.12309  0.52277  1.0000
  C   C149      1.0  0.02304  0.07457  0.63244  1.0000
  C   C150      1.0  0.05988  0.13273  0.67993  1.0000
  H   H152      1.0  0.23054  0.29939  0.79160  1.0000
  C   C151      1.0  0.09977  0.28551  0.73973  1.0000
  C   C152      1.0  0.07497  0.05488  0.60545  1.0000
  C   C153      1.0  0.17993  0.10877  0.61142  1.0000
  S   S50       1.0  0.11677  0.32800  0.92056  1.0000
  C   C154      1.0  0.21722  0.30706  0.81673  1.0000
  H   H153      1.0  0.23244  0.10839  0.64893  1.0000
  H   H154      1.0  0.16974  0.14439  0.52400  1.0000
  C   C155      1.0  0.21641  0.11239  0.78335  1.0000
  C   C156      1.0  0.01969  0.04018  0.65148  1.0000
  C   C157      1.0  0.07435  0.14041  0.51147  1.0000
  C   C158      1.0  0.18607  0.15426  0.55516  1.0000
  H   H155      1.0  0.14952  0.12874  0.54817  1.0000
  N   N7        1.0  0.22226  0.10667  0.62695  1.0000
  H   H156      1.0  0.16126  0.13244  0.60229  1.0000
  C   C159      1.0  0.11838  0.04549  0.56076  1.0000
  C   C160      1.0  0.23820  0.13845  0.52557  1.0000
  N   N8        1.0  0.14788  0.11730  0.66523  1.0000
  S   S51       1.0  0.24571  0.19128  0.58498  1.0000
  C   C161      1.0  0.17353  0.12715  0.60712  1.0000
  H   H157      1.0  0.10345  0.31690  0.98103  1.0000
  C   C162      1.0  0.01519  0.04666  0.63476  1.0000
  N   N9        1.0  0.18297  0.17474  0.71584  1.0000
  C   C163      1.0  0.18003  0.16894  0.70078  1.0000
  C   C164      1.0  0.19676  0.16081  0.72393  1.0000
  C   C165      1.0  0.16605  0.17585  0.72955  1.0000
  C   C166      1.0  0.18916  0.19179  0.70927  1.0000
  C   C167      1.0  0.18094  0.20698  0.71699  1.0000
  C   C168      1.0  0.20409  0.19349  0.69489  1.0000
  C   C169      1.0  0.18706  0.22291  0.71040  1.0000
  C   C170      1.0  0.21013  0.20948  0.68839  1.0000
  C   C171      1.0  0.20162  0.22417  0.69613  1.0000
  H   H158      1.0  0.19266  0.16465  0.69139  1.0000
  H   H159      1.0  0.17355  0.15727  0.70538  1.0000
  H   H160      1.0  0.17142  0.17981  0.69295  1.0000
  H   H161      1.0  0.20959  0.15832  0.71414  1.0000
  H   H162      1.0  0.19242  0.14781  0.72920  1.0000
  H   H163      1.0  0.19960  0.16467  0.73515  1.0000
  H   H164      1.0  0.15517  0.18647  0.72456  1.0000
  H   H165      1.0  0.16123  0.16314  0.73361  1.0000
  H   H166      1.0  0.16774  0.17842  0.74200  1.0000
  H   H167      1.0  0.16984  0.20689  0.72826  1.0000
  H   H168      1.0  0.21133  0.18236  0.68868  1.0000
  H   H169      1.0  0.18055  0.23427  0.71662  1.0000
  H   H170      1.0  0.09060  0.32246  0.75690  1.0000
  H   H171      1.0  0.20645  0.23648  0.69125  1.0000
  C   C172      1.0  0.04982  0.04458  0.67527  1.0000
  S   S52       1.0  0.16195  0.32865  0.72137  1.0000
  C   C173      1.0  0.13849  0.14518  0.64297  1.0000
  H   H172      1.0  0.00966  0.12444  0.65191  1.0000
  C   C174      1.0  0.24185  0.08845  0.78635  1.0000
  H   H173      1.0  0.06631  0.05925  0.61770  1.0000
  S   S53       1.0  0.22982  0.16160  0.57449  1.0000
  H   H174      1.0  0.13134  0.09776  0.67563  1.0000
  Fe  Fe23      1.0  0.22232  0.19080  0.57452  1.0000
  H   H175      1.0  0.23913  0.08318  0.77591  1.0000
  C   C175      1.0  0.14563  0.09860  0.67200  1.0000
  H   H176      1.0  0.15282  0.09018  0.66207  1.0000
  H   H177      1.0  0.22748  0.23166  0.84940  1.0000
  C   C176      1.0  0.02779  0.06812  0.64903  1.0000
  N   N10       1.0  0.24811  0.23811  0.82619  1.0000
  H   H178      1.0  0.14361  0.13976  0.67747  1.0000
  C   C177      1.0  0.19177  0.11591  0.55517  1.0000
  H   H179      1.0  0.23522  0.12738  0.60902  1.0000
  H   H180      1.0  0.21632  0.08152  0.64280  1.0000
  H   H181      1.0  0.07375  0.02695  0.63593  1.0000
  H   H182      1.0  0.14397  0.15280  0.64875  1.0000
  C   C178      1.0  0.21550  0.22660  0.61064  1.0000
  S   S54       1.0  0.23687  0.08071  0.52643  1.0000
  C   C179      1.0  0.10097  0.27236  0.75527  1.0000
  H   H183      1.0  0.09649  0.16119  0.50775  1.0000
  C   C180      1.0  0.09121  0.10870  0.69224  1.0000
  C   C181      1.0  0.20558  0.11336  0.62009  1.0000
  C   C182      1.0  0.19576  0.10187  0.61774  1.0000
  H   H184      1.0  0.19948  0.15016  0.54775  1.0000
  H   H185      1.0  0.18928  0.11217  0.56996  1.0000
  H   H186      1.0  0.22814  0.28716  0.85350  1.0000
  H   H187      1.0  0.06357  0.14834  0.52014  1.0000
  C   C183      1.0  0.22708  0.08690  0.63226  1.0000
  C   C184      1.0  0.19671  0.21353  0.63769  1.0000
  C   C185      1.0  0.13961  0.12659  0.64969  1.0000
  H   H188      1.0  0.08500  0.13342  0.51907  1.0000
  C   C186      1.0  0.18105  0.13470  0.52930  1.0000
  C   C187      1.0  0.01965  0.05678  0.68876  1.0000
  S   S55       1.0  0.16460  0.11788  0.49754  1.0000
  H   H189      1.0  0.19994  0.08750  0.62081  1.0000
  H   H190      1.0  0.22581  0.14572  0.50293  1.0000
  S   S56       1.0  0.23056  0.14862  0.68097  1.0000
  C   C188      1.0  0.09826  0.27694  0.77203  1.0000
  C   C189      1.0  0.09323  0.30846  0.75651  1.0000
  C   C190      1.0  0.13271  0.11761  0.64062  1.0000
  H   H191      1.0  0.12765  0.26221  0.78520  1.0000
  S   S57       1.0  0.12908  0.30953  0.87800  1.0000
  H   H192      1.0  0.10435  0.25871  0.75368  1.0000
  C   C191      1.0  0.21912  0.29874  0.80258  1.0000
  C   C192      1.0  0.23677  0.26440  0.84106  1.0000
  H   H193      1.0  0.05379  0.04013  0.68842  1.0000
  N   N11       1.0  0.07995  0.07022  0.59136  1.0000
  H   H194      1.0  0.22992  0.08045  0.62072  1.0000
  H   H195      1.0  0.08242  0.08521  0.60932  1.0000
  C   C193      1.0  0.09443  0.29543  0.77214  1.0000
  C   C194      1.0  0.13027  0.15435  0.62867  1.0000
  C   C195      1.0  0.22048  0.11395  0.64285  1.0000
  H   H196      1.0  0.10202  0.06949  0.60275  1.0000
  H   H197      1.0  0.20441  0.12083  0.55031  1.0000
  N   N12       1.0  0.17639  0.12920  0.54898  1.0000
  H   H198      1.0  0.05023  0.02324  0.62276  1.0000
  H   H199      1.0  0.17731  0.21086  0.67299  1.0000
  C   C196      1.0  0.12446  0.12690  0.62636  1.0000
  H   H200      1.0  0.12943  0.16860  0.62395  1.0000
  C   C197      1.0  0.11506  0.26456  0.79531  1.0000
  H   H201      1.0  0.03251  0.07695  0.65402  1.0000
  Fe  Fe24      1.0  0.16346  0.30654  0.74554  1.0000
  N   N13       1.0  0.09972  0.26341  0.78875  1.0000
  Fe  Fe25      1.0  0.09986  0.03063  0.66202  1.0000
  H   H202      1.0  0.11640  0.15248  0.60963  1.0000
  H   H203      1.0  0.15365  0.21829  0.67654  1.0000
  H   H204      1.0  0.23878  0.21358  0.83850  1.0000
  H   H205      1.0  0.05545  0.08807  0.60079  1.0000
  H   H206      1.0  0.20844  0.10574  0.79590  1.0000
  C   C198      1.0  0.18267  0.16921  0.56260  1.0000
  H   H207      1.0  0.09289  0.29996  0.78423  1.0000
  H   H208      1.0  0.11358  0.27785  0.79826  1.0000
  C   C199      1.0  0.08320  0.26682  0.80255  1.0000
  H   H209      1.0  0.23898  0.10763  0.60065  1.0000
  C   C200      1.0  0.09616  0.06231  0.54372  1.0000
  H   H210      1.0  0.21089  0.12703  0.78106  1.0000
  H   H211      1.0  0.15660  0.24778  0.67312  1.0000
  H   H212      1.0  0.18059  0.24259  0.66761  1.0000
  H   H213      1.0  0.23941  0.16789  0.61660  1.0000
  H   H214      1.0  0.08133  0.27962  0.80668  1.0000
  H   H215      1.0  0.21228  0.12549  0.81045  1.0000
  C   C201      1.0  0.01640  0.17044  0.50095  1.0000
  C   C202      1.0  0.22955  0.11735  0.51371  1.0000
  C   C203      1.0  0.15179  0.16712  0.57354  1.0000
  C   C204      1.0  0.10252  0.24479  0.78660  1.0000
  H   H216      1.0  0.05753  0.15454  0.70181  1.0000
  H   H217      1.0  0.05742  0.16641  0.67919  1.0000
  H   H218      1.0  0.09147  0.24298  0.78158  1.0000
  C   C205      1.0  0.16844  0.24626  0.66192  1.0000
  H   H219      1.0  0.13967  0.24027  0.65444  1.0000
  H   H220      1.0  0.11540  0.24090  0.77728  1.0000
  H   H221      1.0  0.06493  0.12223  0.67196  1.0000
  H   H222      1.0  0.10326  0.23495  0.79942  1.0000
  H   H223      1.0  0.09527  0.31363  0.72819  1.0000
  N   N14       1.0  0.17656  0.31529  0.90191  1.0000
  H   H224      1.0  0.02396  0.08810  0.62525  1.0000
  H   H225      1.0  0.05418  0.07733  0.58426  1.0000
  N   N15       1.0  0.16819  0.23260  0.65245  1.0000
  H   H226      1.0  0.11687  0.25448  0.80777  1.0000
  H   H227      1.0  0.05218  0.12691  0.69311  1.0000
  C   C206      1.0  0.06602  0.15695  0.68817  1.0000
  H   H228      1.0  0.01400  0.02527  0.68821  1.0000
  H   H229      1.0  0.05032  0.14312  0.67264  1.0000
  H   H230      1.0  0.07606  0.16438  0.68812  1.0000
  H   H231      1.0  0.08691  0.14470  0.71018  1.0000
  H   H232      1.0  0.15190  0.22890  0.63663  1.0000
  C   C207      1.0  0.15234  0.23865  0.64422  1.0000
  H   H233      1.0  0.16807  0.25972  0.65310  1.0000
  C   C208      1.0  0.09045  0.07900  0.59795  1.0000
  H   H234      1.0  0.07867  0.15377  0.65446  1.0000
  C   C209      1.0  0.08626  0.14418  0.66422  1.0000
  H   H235      1.0  0.13839  0.17244  0.58031  1.0000
  C   C210      1.0  0.16559  0.17561  0.57180  1.0000
  H   H236      1.0  0.15217  0.25179  0.63482  1.0000
  C   C211      1.0  0.08516  0.12672  0.69419  1.0000
  C   C212      1.0  0.06771  0.01549  0.64134  1.0000
  C   C213      1.0  0.11684  0.12955  0.53090  1.0000
  S   S58       1.0  0.11854  0.31209  0.80118  1.0000
  C   C214      1.0  0.18461  0.23026  0.63839  1.0000
  C   C215      1.0  0.21193  0.21186  0.62400  1.0000
  C   C216      1.0  0.24068  0.22547  0.84210  1.0000
  C   C217      1.0  0.04622  0.99856  0.64105  1.0000
  H   H237      1.0  0.09273  0.13206  0.65859  1.0000
  H   H238      1.0  0.16363  0.30250  0.92768  1.0000
  H   H239      1.0  0.22706  0.31422  0.81661  1.0000
  H   H240      1.0  0.16306  0.18735  0.57734  1.0000
  C   C218      1.0  0.10648  0.10094  0.71666  1.0000
  H   H241      1.0  0.14586  0.29144  0.82072  1.0000
  H   H242      1.0  0.19459  0.20142  0.64731  1.0000
  C   C219      1.0  0.23514  0.24510  0.81428  1.0000
  H   H243      1.0  0.18573  0.28739  0.88324  1.0000
  C   C220      1.0  0.10106  0.11856  0.71875  1.0000
  H   H244      1.0  0.08790  0.10420  0.68210  1.0000
  H   H245      1.0  0.11448  0.09105  0.72532  1.0000
  H   H246      1.0  0.10739  0.14122  0.53446  1.0000
  H   H247      1.0  0.22163  0.21034  0.67744  1.0000
  S   S59       1.0  0.13895  0.29532  0.75758  1.0000
  Fe  Fe26      1.0  0.14256  0.29843  0.78345  1.0000
  C   C221      1.0  0.23586  0.15965  0.64497  1.0000
  C   C222      1.0  0.23935  0.27868  0.84649  1.0000
  C   C223      1.0  0.19509  0.28720  0.89097  1.0000
  C   C224      1.0  0.18877  0.24503  0.62461  1.0000
  H   H248      1.0  0.22033  0.13534  0.83305  1.0000
  C   C225      1.0  0.19238  0.30036  0.90107  1.0000
  C   C226      1.0  0.10151  0.09600  0.70347  1.0000
  C   C227      1.0  0.10771  0.05177  0.57580  1.0000
  C   C228      1.0  0.24097  0.14631  0.65919  1.0000
  C   C229      1.0  0.23725  0.11260  0.61295  1.0000
  C   C230      1.0  0.13272  0.13137  0.51820  1.0000
  H   H249      1.0  0.01301  0.06888  0.61248  1.0000
  H   H250      1.0  0.21226  0.26371  0.88234  1.0000
  H   H251      1.0  0.10569  0.08221  0.70197  1.0000
  C   C231      1.0  0.22120  0.28522  0.90934  1.0000
  H   H252      1.0  0.09191  0.06674  0.53113  1.0000
  H   H253      1.0  0.15792  0.30190  0.89816  1.0000
  C   C232      1.0  0.13626  0.30014  0.82881  1.0000
  C   C233      1.0  0.06316  0.08326  0.58846  1.0000
  S   S60       1.0  0.24139  0.09497  0.69466  1.0000
  S   S61       1.0  0.23514  0.19957  0.54600  1.0000
  H   H254      1.0  0.20675  0.25454  0.60040  1.0000
  H   H255      1.0  0.02255  0.07042  0.68410  1.0000
  C   C234      1.0  0.22347  0.27256  0.89932  1.0000
  C   C235      1.0  0.20594  0.29893  0.91022  1.0000
  C   C236      1.0  0.22631  0.12303  0.81041  1.0000
  C   C237      1.0  0.24853  0.12615  0.82450  1.0000
  H   H256      1.0  0.10211  0.28167  0.72707  1.0000
  H   H257      1.0  0.23549  0.26212  0.89843  1.0000
  H   H258      1.0  0.22555  0.17124  0.64753  1.0000
  H   H259      1.0  0.20512  0.30875  0.91771  1.0000
  Fe  Fe27      1.0  0.18276  0.09082  0.50173  1.0000
  H   H260      1.0  0.23302  0.23438  0.80898  1.0000
  N   N16       1.0  0.03082  0.04454  0.67694  1.0000
  C   C238      1.0  0.24452  0.12432  0.53867  1.0000
  H   H261      1.0  0.21906  0.12868  0.63969  1.0000
  C   C239      1.0  0.07329  0.00278  0.65575  1.0000
  C   C240      1.0  0.20398  0.24316  0.61097  1.0000
  H   H262      1.0  0.00519  0.05807  0.68954  1.0000
  C   C241      1.0  0.08682  0.16648  0.49878  1.0000
  H   H263      1.0  0.02212  0.05204  0.70255  1.0000
  S   S62       1.0  0.16558  0.31188  0.77098  1.0000
  H   H264      1.0  0.17253  0.09977  0.60990  1.0000
  H   H265      1.0  0.22708  0.22515  0.59985  1.0000
  Fe  Fe28      1.0  0.23827  0.08898  0.72451  1.0000
  H   H266      1.0  0.06727  0.31418  0.99395  1.0000
  H   H267      1.0  0.06595  0.09536  0.57827  1.0000
  H   H268      1.0  0.23151  0.28465  0.91617  1.0000
  C   C242      1.0  0.08534  0.06864  0.55871  1.0000
  H   H269      1.0  0.03200  0.02185  0.69909  1.0000
  C   C243      1.0  0.23977  0.11438  0.79783  1.0000
  H   H270      1.0  0.19778  0.31531  0.72758  1.0000
  H   H271      1.0  0.23977  0.25545  0.80265  1.0000
  H   H272      1.0  0.08690  0.04522  0.60950  1.0000
  H   H273      1.0  0.22328  0.26239  0.84402  1.0000
  H   H274      1.0  0.24091  0.13129  0.76344  1.0000
  C   C244      1.0  0.10922  0.32282  0.83305  1.0000
  C   C245      1.0  0.02618  0.05076  0.65915  1.0000
  C   C246      1.0  0.11265  0.05080  0.54474  1.0000
  H   H275      1.0  0.03329  0.11920  0.50908  1.0000
  C   C247      1.0  0.23649  0.10312  0.52636  1.0000
  C   C248      1.0  0.02844  0.13352  0.50680  1.0000
  N   N17       1.0  0.23571  0.10811  0.78372  1.0000
  H   H276      1.0  0.24280  0.11175  0.75511  1.0000
  H   H277      1.0  0.11294  0.04744  0.58780  1.0000
  H   H278      1.0  0.07302  0.07797  0.55683  1.0000
  H   H279      1.0  0.22173  0.25145  0.82110  1.0000
  C   C249      1.0  0.19688  0.32867  0.71944  1.0000
  H   H280      1.0  0.23508  0.08164  0.79956  1.0000
  H   H281      1.0  0.09588  0.08964  0.58727  1.0000
  S   S63       1.0  0.19837  0.31777  0.84817  1.0000
  C   C250      1.0  0.24373  0.15780  0.62744  1.0000
  H   H282      1.0  0.23929  0.08234  0.63799  1.0000
  C   C251      1.0  0.12599  0.31079  0.85658  1.0000
  C   C252      1.0  0.12160  0.31160  0.82241  1.0000
  S   S64       1.0  0.09032  0.00499  0.66515  1.0000
  H   H283      1.0  0.05878  0.03556  0.66661  1.0000
  H   H284      1.0  0.22390  0.11475  0.50394  1.0000
  S   S65       1.0  0.17673  0.06475  0.50178  1.0000
  H   H285      1.0  0.15512  0.32618  0.92173  1.0000
  Fe  Fe29      1.0  0.24431  0.17010  0.54649  1.0000
  H   H286      1.0  0.17589  0.31832  0.92833  1.0000
  H   H287      1.0  0.06871  0.12994  0.50938  1.0000
  C   C253      1.0  0.23576  0.32746  0.66711  1.0000
  H   H288      1.0  0.15111  0.08749  0.51927  1.0000
  H   H289      1.0  0.01047  0.03818  0.62914  1.0000
  S   S66       1.0  0.24026  0.16057  0.52367  1.0000
  H   H290      1.0  0.07520  0.17508  0.50607  1.0000
  C   C254      1.0  0.06288  0.32850  0.99000  1.0000
  C   C255      1.0  0.01678  0.06383  0.62529  1.0000
  H   H291      1.0  0.23398  0.31379  0.67439  1.0000
  S   S67       1.0  0.07443  0.32342  0.95592  1.0000
  C   C256      1.0  0.10549  0.31945  0.99293  1.0000
  C   C257      1.0  0.24520  0.11649  0.76602  1.0000
  H   H292      1.0  0.01190  0.18481  0.49846  1.0000
  H   H293      1.0  0.22423  0.32928  0.71780  1.0000
  S   S68       1.0  0.02877  0.99713  0.63178  1.0000
  H   H294      1.0  0.24935  0.09576  0.54866  1.0000
  Fe  Fe30      1.0  0.11177  0.33010  0.89361  1.0000
  H   H295      1.0  0.10392  0.99722  0.61960  1.0000
  N   N18       1.0  0.08141  0.15188  0.49446  1.0000
  S   S69       1.0  0.03659  0.36750  0.06430  1.0000
  S   S70       1.0  0.99956  0.42724  0.11990  1.0000
  Fe  Fe31      1.0  0.08977  0.65278  0.04408  1.0000
  Fe  Fe32      1.0  0.02418  0.43485  0.12170  1.0000
  S   S71       1.0  0.02323  0.33565  0.05583  1.0000
  S   S72       1.0  0.05297  0.42086  0.11851  1.0000
  H   H296      1.0  0.14720  0.63276  0.00221  1.0000
  C   C258      1.0  0.06677  0.45764  0.12734  1.0000
  N   N19       1.0  0.10308  0.60976  0.00520  1.0000
  H   H297      1.0  0.13106  0.52339  0.21812  1.0000
  C   C259      1.0  0.05685  0.40564  0.04629  1.0000
  Fe  Fe33      1.0  0.22401  0.58019  0.22231  1.0000
  H   H298      1.0  0.17188  0.59870  0.06458  1.0000
  Fe  Fe34      1.0  0.01976  0.34769  0.07924  1.0000
  Fe  Fe35      1.0  0.19492  0.60971  0.20907  1.0000
  S   S73       1.0  0.20102  0.60335  0.18204  1.0000
  S   S74       1.0  0.17216  0.63192  0.21632  1.0000
  Fe  Fe36      1.0  0.20299  0.57491  0.19688  1.0000
  S   S75       1.0  0.19432  0.55635  0.18493  1.0000
  Fe  Fe37      1.0  0.22956  0.59947  0.18354  1.0000
  H   H299      1.0  0.04375  0.37266  0.09617  1.0000
  S   S76       1.0  0.19484  0.58152  0.22413  1.0000
  S   S77       1.0  0.22330  0.60895  0.20905  1.0000
  Fe  Fe38      1.0  0.10695  0.54467  0.16467  1.0000
  S   S78       1.0  0.11340  0.51680  0.15983  1.0000
  S   S79       1.0  0.11466  0.55419  0.18552  1.0000
  Fe  Fe39      1.0  0.08421  0.55898  0.13674  1.0000
  S   S80       1.0  0.08872  0.53260  0.12933  1.0000
  S   S81       1.0  0.06622  0.58336  0.12443  1.0000
  Fe  Fe40      1.0  0.08445  0.52141  0.15866  1.0000
  S   S82       1.0  0.06883  0.49949  0.17140  1.0000
  Fe  Fe41      1.0  0.11702  0.53019  0.13093  1.0000
  S   S83       1.0  0.14047  0.51944  0.11093  1.0000
  S   S84       1.0  0.07754  0.54811  0.16612  1.0000
  S   S85       1.0  0.11298  0.55768  0.13578  1.0000
  H   H300      1.0  0.22365  0.64013  0.05746  1.0000
  S   S86       1.0  0.10626  0.62587  0.05347  1.0000
  C   C260      1.0  0.15244  0.50965  0.20135  1.0000
  H   H301      1.0  0.11589  0.34888  0.01099  1.0000
  Fe  Fe42      1.0  0.16207  0.57448  0.01920  1.0000
  H   H302      1.0  0.16031  0.63924  0.05657  1.0000
  S   S87       1.0  0.13611  0.56717  0.03474  1.0000
  C   C261      1.0  0.22614  0.63871  0.15242  1.0000
  S   S88       1.0  0.16744  0.60096  0.01831  1.0000
  S   S89       1.0  0.18955  0.55915  0.02211  1.0000
  C   C262      1.0  0.18576  0.58612  0.12499  1.0000
  C   C263      1.0  0.00049  0.34121  0.17263  1.0000
  S   S90       1.0  0.01903  0.46178  0.10380  1.0000
  H   H303      1.0  0.14991  0.57268  0.12244  1.0000
  C   C264      1.0  0.24189  0.62553  0.01886  1.0000
  C   C265      1.0  0.19155  0.65543  0.19275  1.0000
  H   H304      1.0  0.04181  0.42874  0.07943  1.0000
  C   C266      1.0  0.07696  0.59377  0.10356  1.0000
  C   C267      1.0  0.09498  0.58735  0.09662  1.0000
  C   C268      1.0  0.10376  0.59692  0.08074  1.0000
  C   C269      1.0  0.09455  0.61285  0.07184  1.0000
  C   C270      1.0  0.07630  0.61863  0.07819  1.0000
  C   C271      1.0  0.06749  0.60911  0.09402  1.0000
  H   H305      1.0  0.10217  0.57511  0.10350  1.0000
  H   H306      1.0  0.11770  0.59215  0.07537  1.0000
  H   H307      1.0  0.06892  0.63030  0.07084  1.0000
  H   H308      1.0  0.05338  0.61374  0.09899  1.0000
  C   C272      1.0  0.13862  0.53080  0.08918  1.0000
  C   C273      1.0  0.12259  0.54227  0.08590  1.0000
  C   C274      1.0  0.12169  0.55273  0.06884  1.0000
  C   C275      1.0  0.13695  0.55208  0.05513  1.0000
  C   C276      1.0  0.15281  0.54011  0.05820  1.0000
  C   C277      1.0  0.15362  0.52940  0.07522  1.0000
  H   H309      1.0  0.11099  0.54355  0.09655  1.0000
  H   H310      1.0  0.10938  0.56196  0.06651  1.0000
  H   H311      1.0  0.16448  0.53921  0.04752  1.0000
  H   H312      1.0  0.16601  0.52044  0.07768  1.0000
  H   H313      1.0  0.14663  0.65936  0.12479  1.0000
  H   H314      1.0  0.01332  0.39093  0.04026  1.0000
  H   H315      1.0  0.24837  0.64532  0.28919  1.0000
  C   C278      1.0  0.13678  0.55594  0.18409  1.0000
  C   C279      1.0  0.13994  0.56489  0.19559  1.0000
  C   C280      1.0  0.15744  0.56567  0.19559  1.0000
  C   C281      1.0  0.17200  0.55714  0.18432  1.0000
  C   C282      1.0  0.16883  0.54830  0.17271  1.0000
  C   C283      1.0  0.15130  0.54791  0.17240  1.0000
  H   H316      1.0  0.12880  0.57113  0.20470  1.0000
  H   H317      1.0  0.15971  0.57243  0.20465  1.0000
  H   H318      1.0  0.18002  0.54160  0.16400  1.0000
  H   H319      1.0  0.14906  0.54084  0.16359  1.0000
  H   H320      1.0  0.12601  0.65909  0.01172  1.0000
  H   H321      1.0  0.06914  0.39823  0.03949  1.0000
  H   H322      1.0  0.12083  0.60332  0.02351  1.0000
  H   H323      1.0  0.24037  0.62218  0.32478  1.0000
  C   C284      1.0  0.19622  0.64498  0.09538  1.0000
  C   C285      1.0  0.01002  0.35366  0.16107  1.0000
  C   C286      1.0  0.01750  0.35194  0.14353  1.0000
  C   C287      1.0  0.00462  0.35155  0.01528  1.0000
  C   C288      1.0  0.02534  0.49733  0.14420  1.0000
  C   C289      1.0  0.03133  0.51320  0.14107  1.0000
  C   C290      1.0  0.04483  0.51390  0.14910  1.0000
  C   C291      1.0  0.05207  0.49887  0.16083  1.0000
  C   C292      1.0  0.04571  0.48313  0.16437  1.0000
  C   C293      1.0  0.03258  0.48226  0.15591  1.0000
  H   H324      1.0  0.02574  0.52496  0.13212  1.0000
  H   H325      1.0  0.04945  0.52618  0.14639  1.0000
  H   H326      1.0  0.05116  0.47148  0.17352  1.0000
  H   H327      1.0  0.02801  0.46999  0.15856  1.0000
  Fe  Fe43      1.0  0.04226  0.35370  0.04175  1.0000
  C   C294      1.0  0.16216  0.57753  0.11740  1.0000
  H   H328      1.0  0.08827  0.62758  0.14433  1.0000
  C   C295      1.0  0.18688  0.58642  0.09424  1.0000
  C   C296      1.0  0.16851  0.64430  0.15889  1.0000
  H   H329      1.0  0.23148  0.63505  0.24208  1.0000
  C   C297      1.0  0.08688  0.61013  0.01971  1.0000
  H   H330      1.0  0.16310  0.57804  0.14408  1.0000
  H   H331      1.0  0.05951  0.62845  0.14478  1.0000
  C   C298      1.0  0.07164  0.37189  0.09346  1.0000
  C   C299      1.0  0.08389  0.37971  0.09677  1.0000
  C   C300      1.0  0.07792  0.39459  0.10467  1.0000
  C   C301      1.0  0.05965  0.40176  0.10932  1.0000
  C   C302      1.0  0.04728  0.39380  0.10634  1.0000
  C   C303      1.0  0.05329  0.37883  0.09841  1.0000
  H   H332      1.0  0.03315  0.39923  0.10999  1.0000
  H   H333      1.0  0.08752  0.40061  0.10706  1.0000
  Fe  Fe44      1.0  0.00485  0.47133  0.12897  1.0000
  H   H334      1.0  0.22356  0.63270  0.31177  1.0000
  N   N20       1.0  0.06730  0.64760  0.12059  1.0000
  S   S91       1.0  0.24580  0.64354  0.42973  1.0000
  C   C304      1.0  0.02521  0.42395  0.06451  1.0000
  N   N21       1.0  0.24735  0.61740  0.29807  1.0000
  H   H335      1.0  0.23424  0.61642  0.45918  1.0000
  Fe  Fe45      1.0  0.19565  0.58623  0.01904  1.0000
  H   H336      1.0  0.15060  0.47904  0.17967  1.0000
  C   C305      1.0  0.23924  0.62781  0.26748  1.0000
  H   H337      1.0  0.01160  0.36470  0.16568  1.0000
  H   H338      1.0  0.13830  0.65757  0.14805  1.0000
  C   C306      1.0  0.21868  0.65405  0.14114  1.0000
  C   C307      1.0  0.07060  0.62268  0.01806  1.0000
  H   H339      1.0  0.14878  0.63764  0.13941  1.0000
  C   C308      1.0  0.10871  0.59199  0.00041  1.0000
  C   C309      1.0  0.23829  0.61615  0.28456  1.0000
  H   H340      1.0  0.02168  0.33692  0.12386  1.0000
  C   C310      1.0  0.05632  0.61030  0.04806  1.0000
  N   N22       1.0  0.00671  0.41667  0.04725  1.0000
  C   C311      1.0  0.00764  0.40516  0.03493  1.0000
  C   C312      1.0  0.17066  0.58033  0.09900  1.0000
  H   H341      1.0  0.24525  0.64677  0.10148  1.0000
  N   N23       1.0  0.19169  0.65624  0.99841  1.0000
  N   N24       1.0  0.07213  0.46899  0.10957  1.0000
  C   C313      1.0  0.07345  0.45918  0.09566  1.0000
  C   C314      1.0  0.05762  0.48514  0.10743  1.0000
  C   C315      1.0  0.08963  0.47313  0.10813  1.0000
  C   C316      1.0  0.10492  0.45914  0.10971  1.0000
  C   C317      1.0  0.09205  0.49085  0.10545  1.0000
  C   C318      1.0  0.12155  0.46266  0.10867  1.0000
  C   C319      1.0  0.10873  0.49418  0.10441  1.0000
  C   C320      1.0  0.12343  0.48015  0.10605  1.0000
  H   H342      1.0  0.11953  0.48450  0.19562  1.0000
  H   H343      1.0  0.07840  0.46682  0.08212  1.0000
  H   H344      1.0  0.05567  0.49292  0.11775  1.0000
  H   H345      1.0  0.06039  0.49398  0.09404  1.0000
  H   H346      1.0  0.04451  0.48170  0.10896  1.0000
  H   H347      1.0  0.10405  0.44535  0.11191  1.0000
  H   H348      1.0  0.08128  0.50243  0.10424  1.0000
  H   H349      1.0  0.13303  0.45177  0.10999  1.0000
  H   H350      1.0  0.11031  0.50776  0.10246  1.0000
  H   H351      1.0  0.13627  0.48294  0.10536  1.0000
  C   C321      1.0  0.01565  0.33764  0.13757  1.0000
  C   C322      1.0  0.22582  0.63261  0.04732  1.0000
  C   C323      1.0  0.24083  0.62655  0.14539  1.0000
  C   C324      1.0  0.19501  0.62968  0.13148  1.0000
  H   H352      1.0  0.19415  0.58873  0.08054  1.0000
  H   H353      1.0  0.02491  0.36165  0.13449  1.0000
  S   S92       1.0  0.23752  0.56759  0.24594  1.0000
  H   H354      1.0  0.08411  0.52370  0.23592  1.0000
  C   C325      1.0  0.19435  0.58909  0.10709  1.0000
  H   H355      1.0  0.11231  0.58109  0.01172  1.0000
  C   C326      1.0  0.04147  0.42270  0.06885  1.0000
  C   C327      1.0  0.09521  0.62869  0.13055  1.0000
  C   C328      1.0  0.05644  0.63431  0.13136  1.0000
  C   C329      1.0  0.08636  0.63856  0.11652  1.0000
  H   H356      1.0  0.00883  0.44005  0.02637  1.0000
  C   C330      1.0  0.09661  0.63911  0.09884  1.0000
  H   H357      1.0  0.13651  0.61350  0.10705  1.0000
  C   C331      1.0  0.11452  0.63025  0.09555  1.0000
  C   C332      1.0  0.12273  0.62057  0.10964  1.0000
  H   H358      1.0  0.16777  0.62997  0.16210  1.0000
  H   H359      1.0  0.18301  0.63456  0.99426  1.0000
  H   H360      1.0  0.01788  0.34645  0.01885  1.0000
  H   H361      1.0  0.19174  0.58785  0.13501  1.0000
  S   S93       1.0  0.06621  0.33404  0.04979  1.0000
  H   H362      1.0  0.06050  0.64712  0.09629  1.0000
  H   H363      1.0  0.19568  0.62334  0.14513  1.0000
  C   C333      1.0  0.17526  0.64669  0.02991  1.0000
  H   H364      1.0  0.05888  0.62296  0.12469  1.0000
  C   C334      1.0  0.18238  0.65204  0.10829  1.0000
  H   H365      1.0  0.09105  0.64598  0.08724  1.0000
  C   C335      1.0  0.11775  0.61306  0.01129  1.0000
  C   C336      1.0  0.23039  0.62624  0.25513  1.0000
  C   C337      1.0  0.08710  0.59764  0.03619  1.0000
  C   C338      1.0  0.05722  0.41329  0.05997  1.0000
  C   C339      1.0  0.20875  0.62271  0.11846  1.0000
  H   H366      1.0  0.21930  0.61162  0.12243  1.0000
  H   H367      1.0  0.06930  0.65544  0.14391  1.0000
  H   H368      1.0  0.22699  0.59332  0.30087  1.0000
  H   H369      1.0  0.14972  0.60400  0.07771  1.0000
  H   H370      1.0  0.20553  0.61756  0.06173  1.0000
  H   H371      1.0  0.14172  0.56780  0.08174  1.0000
  S   S94       1.0  0.23228  0.57053  0.19660  1.0000
  C   C340      1.0  0.21819  0.61011  0.03644  1.0000
  H   H372      1.0  0.05501  0.33246  0.01695  1.0000
  H   H373      1.0  0.14874  0.55703  0.10211  1.0000
  C   C341      1.0  0.21951  0.60131  0.27580  1.0000
  C   C342      1.0  0.16963  0.58052  0.13009  1.0000
  C   C343      1.0  0.17462  0.65189  0.20110  1.0000
  C   C344      1.0  0.24011  0.64478  0.11566  1.0000
  H   H374      1.0  0.18572  0.63498  0.03196  1.0000
  C   C345      1.0  0.05564  0.62279  0.03211  1.0000
  C   C346      1.0  0.14948  0.65176  0.13799  1.0000
  H   H375      1.0  0.04477  0.61055  0.05898  1.0000
  H   H376      1.0  0.21231  0.59068  0.27868  1.0000
  H   H377      1.0  0.17189  0.49507  0.18298  1.0000
  C   C347      1.0  0.18148  0.64478  0.12677  1.0000
  C   C348      1.0  0.24791  0.62963  0.12701  1.0000
  C   C349      1.0  0.14616  0.48839  0.18848  1.0000
  S   S95       1.0  0.07976  0.35366  0.08293  1.0000
  Fe  Fe46      1.0  0.05898  0.34649  0.07361  1.0000
  C   C350      1.0  0.09878  0.49083  0.23029  1.0000
  S   S96       1.0  0.00878  0.49696  0.13327  1.0000
  H   H378      1.0  0.15747  0.65069  0.16861  1.0000
  H   H379      1.0  0.07565  0.44416  0.12911  1.0000
  H   H380      1.0  0.06971  0.41177  0.06384  1.0000
  H   H381      1.0  0.10787  0.48531  0.23983  1.0000
  H   H382      1.0  0.04349  0.63278  0.03063  1.0000
  H   H383      1.0  0.18954  0.56750  0.06935  1.0000
  C   C351      1.0  0.15817  0.49739  0.19031  1.0000
  H   H384      1.0  0.04138  0.40061  0.03106  1.0000
  H   H385      1.0  0.11420  0.62648  0.01462  1.0000
  H   H386      1.0  0.06701  0.46392  0.13817  1.0000
  H   H387      1.0  0.11937  0.61197  0.13808  1.0000
  C   C352      1.0  0.07200  0.59767  0.05005  1.0000
  H   H388      1.0  0.10636  0.51738  0.23970  1.0000
  H   H389      1.0  0.10086  0.53451  0.22067  1.0000
  C   C353      1.0  0.24655  0.61860  0.46075  1.0000
  C   C354      1.0  0.22056  0.61303  0.25928  1.0000
  H   H390      1.0  0.07689  0.51708  0.21162  1.0000
  C   C355      1.0  0.23132  0.61311  0.02096  1.0000
  H   H391      1.0  0.07266  0.58819  0.06262  1.0000
  C   C356      1.0  0.16081  0.64910  0.04419  1.0000
  H   H392      1.0  0.15423  0.59108  0.06110  1.0000
  H   H393      1.0  0.12183  0.63057  0.08189  1.0000
  H   H394      1.0  0.09251  0.50368  0.19732  1.0000
  C   C357      1.0  0.13463  0.51320  0.21040  1.0000
  C   C358      1.0  0.05594  0.33884  0.00303  1.0000
  H   H395      1.0  0.20707  0.59312  0.10315  1.0000
  H   H396      1.0  0.13036  0.61222  0.00097  1.0000
  H   H397      1.0  0.08250  0.44580  0.09757  1.0000
  H   H398      1.0  0.17997  0.55037  0.08593  1.0000
  C   C359      1.0  0.09127  0.51380  0.20513  1.0000
  H   H399      1.0  0.24691  0.63809  0.26322  1.0000
  H   H400      1.0  0.06027  0.45659  0.09592  1.0000
  C   C360      1.0  0.12836  0.49166  0.19765  1.0000
  H   H401      1.0  0.17185  0.56023  0.06574  1.0000
  H   H402      1.0  0.22045  0.62527  0.09049  1.0000
  H   H403      1.0  0.05306  0.45531  0.12949  1.0000
  N   N25       1.0  0.10300  0.50761  0.21823  1.0000
  H   H404      1.0  0.08479  0.49294  0.23813  1.0000
  H   H405      1.0  0.14631  0.66145  0.20327  1.0000
  H   H406      1.0  0.10012  0.48036  0.22286  1.0000
  S   S97       1.0  0.01151  0.44473  0.14691  1.0000
  C   C361      1.0  0.23915  0.63541  0.03196  1.0000
  C   C362      1.0  0.02421  0.41566  0.05116  1.0000
  H   H407      1.0  0.13584  0.57979  0.09908  1.0000
  H   H408      1.0  0.01583  0.40939  0.02147  1.0000
  H   H409      1.0  0.22725  0.60912  0.32102  1.0000
  N   N26       1.0  0.16705  0.65295  0.14018  1.0000
  C   C363      1.0  0.20945  0.63041  0.10047  1.0000
  H   H410      1.0  0.09909  0.58794  0.03864  1.0000
  H   H411      1.0  0.23364  0.60556  0.01079  1.0000
  C   C364      1.0  0.11308  0.61977  0.12711  1.0000
  C   C365      1.0  0.04067  0.40703  0.04167  1.0000
  S   S98       1.0  0.04150  0.37037  0.01420  1.0000
  C   C366      1.0  0.23402  0.62048  0.31458  1.0000
  H   H412      1.0  0.22071  0.63643  0.16662  1.0000
  C   C367      1.0  0.09846  0.52137  0.22913  1.0000
  H   H413      1.0  0.09805  0.37432  0.09309  1.0000
  C   C368      1.0  0.21558  0.61983  0.04966  1.0000
  H   H414      1.0  0.04188  0.64023  0.13350  1.0000
  C   C369      1.0  0.22813  0.60285  0.28831  1.0000
  H   H415      1.0  0.09453  0.52608  0.19552  1.0000
  C   C370      1.0  0.12198  0.50430  0.20880  1.0000
  S   S99       1.0  0.20508  0.59404  0.04010  1.0000
  H   H416      1.0  0.18118  0.64535  0.16166  1.0000
  C   C371      1.0  0.22553  0.65706  0.12276  1.0000
  N   N27       1.0  0.16350  0.57679  0.08522  1.0000
  C   C372      1.0  0.15971  0.59339  0.07163  1.0000
  C   C373      1.0  0.17680  0.56315  0.07624  1.0000
  C   C374      1.0  0.14673  0.57009  0.09249  1.0000
  H   H417      1.0  0.21409  0.61154  0.24953  1.0000
  H   H418      1.0  0.20335  0.64593  0.19605  1.0000
  H   H419      1.0  0.16175  0.51691  0.20247  1.0000
  H   H420      1.0  0.01341  0.43145  0.07177  1.0000
  H   H421      1.0  0.09784  0.58883  0.99622  1.0000
  H   H422      1.0  0.19701  0.65116  0.08140  1.0000
  H   H423      1.0  0.20038  0.62748  0.00657  1.0000
  C   C375      1.0  0.05982  0.65672  0.10447  1.0000
  H   H424      1.0  0.00796  0.66353  0.00691  1.0000
  H   H425      1.0  0.21004  0.65010  0.01582  1.0000
  H   H426      1.0  0.00565  0.36406  0.00499  1.0000
  H   H427      1.0  0.24736  0.59873  0.48515  1.0000
  C   C376      1.0  0.19531  0.63776  0.99556  1.0000
  H   H428      1.0  0.06912  0.63273  0.00615  1.0000
  C   C377      1.0  0.05026  0.35732  0.99800  1.0000
  C   C378      1.0  0.11239  0.33712  0.00973  1.0000
  C   C379      1.0  0.17612  0.65905  0.01327  1.0000
  C   C380      1.0  0.20752  0.65892  0.00298  1.0000
  C   C381      1.0  0.13305  0.66007  0.99798  1.0000
  S   S100      1.0  0.08630  0.66105  0.01591  1.0000
  C   C382      1.0  0.02024  0.66146  0.99704  1.0000
  H   H429      1.0  0.20595  0.49008  0.99688  1.0000
  H   H430      1.0  0.17725  0.53143  0.99562  1.0000
  C   C383      1.0  0.99956  0.43534  0.03894  1.0000
  C   C384      1.0  0.06519  0.66129  0.13094  1.0000
  H   H431      1.0  0.04550  0.66337  0.10792  1.0000
  H   H432      1.0  0.99962  0.51905  0.18464  1.0000
  H   H433      1.0  0.21265  0.52724  0.94505  1.0000
  C   C385      1.0  0.21668  0.40433  0.77528  1.0000
  H   H434      1.0  0.01727  0.55306  0.88276  1.0000
  H   H435      1.0  0.22776  0.46114  0.92232  1.0000
  H   H436      1.0  0.04622  0.58265  0.83107  1.0000
  C   C386      1.0  0.24436  0.44471  0.95005  1.0000
  Fe  Fe47      1.0  0.13831  0.46142  0.81235  1.0000
  S   S101      1.0  0.14184  0.44830  0.78968  1.0000
  S   S102      1.0  0.16347  0.46112  0.82041  1.0000
  Fe  Fe48      1.0  0.09801  0.47095  0.81729  1.0000
  S   S103      1.0  0.09797  0.45896  0.79477  1.0000
  S   S104      1.0  0.07309  0.48285  0.83529  1.0000
  Fe  Fe49      1.0  0.11857  0.43654  0.80583  1.0000
  S   S105      1.0  0.11964  0.40771  0.80732  1.0000
  Fe  Fe50      1.0  0.12125  0.47177  0.78033  1.0000
  S   S106      1.0  0.12365  0.48677  0.75188  1.0000
  S   S107      1.0  0.11686  0.44730  0.82969  1.0000
  S   S108      1.0  0.11945  0.48603  0.80179  1.0000
  Fe  Fe51      1.0  0.21966  0.38978  0.70765  1.0000
  S   S109      1.0  0.19115  0.40145  0.71886  1.0000
  S   S110      1.0  0.22875  0.36426  0.69770  1.0000
  C   C387      1.0  0.21600  0.41145  0.91038  1.0000
  S   S111      1.0  0.20747  0.43201  0.72703  1.0000
  Fe  Fe52      1.0  0.20212  0.40502  0.74042  1.0000
  S   S112      1.0  0.18597  0.40159  0.76817  1.0000
  Fe  Fe53      1.0  0.19828  0.42775  0.70465  1.0000
  S   S113      1.0  0.17880  0.45009  0.69197  1.0000
  S   S114      1.0  0.23008  0.39059  0.73088  1.0000
  S   S115      1.0  0.22574  0.41591  0.69105  1.0000
  H   H437      1.0  0.21077  0.46566  0.77612  1.0000
  H   H438      1.0  0.19012  0.47411  0.78924  1.0000
  H   H439      1.0  0.09550  0.41039  0.91028  1.0000
  C   C388      1.0  0.24361  0.48103  0.95592  1.0000
  S   S116      1.0  0.20862  0.54476  0.97375  1.0000
  H   H440      1.0  0.24409  0.43510  0.94219  1.0000
  Fe  Fe54      1.0  0.08532  0.36505  0.89501  1.0000
  S   S117      1.0  0.11484  0.35844  0.88408  1.0000
  S   S118      1.0  0.06767  0.38731  0.87962  1.0000
  C   C389      1.0  0.05152  0.66230  0.98656  1.0000
  S   S119      1.0  0.16745  0.57827  0.98961  1.0000
  H   H441      1.0  0.23532  0.33397  0.78078  1.0000
  Fe  Fe55      1.0  0.11746  0.35696  0.91165  1.0000
  S   S120      1.0  0.14088  0.36543  0.91510  1.0000
  H   H442      1.0  0.24461  0.43723  0.96399  1.0000
  H   H443      1.0  0.15781  0.39589  0.75329  1.0000
  S   S121      1.0  0.08826  0.36645  0.92188  1.0000
  H   H444      1.0  0.13867  0.34068  0.79740  1.0000
  S   S122      1.0  0.20910  0.35976  0.85642  1.0000
  H   H445      1.0  0.12839  0.55901  0.91373  1.0000
  C   C390      1.0  0.22830  0.40193  0.78658  1.0000
  Fe  Fe56      1.0  0.16876  0.47619  0.94300  1.0000
  C   C391      1.0  0.15757  0.36499  0.81334  1.0000
  S   S123      1.0  0.16629  0.49094  0.96475  1.0000
  Fe  Fe57      1.0  0.15112  0.44978  0.93507  1.0000
  S   S124      1.0  0.16786  0.45084  0.90743  1.0000
  S   S125      1.0  0.12882  0.43469  0.94517  1.0000
  Fe  Fe58      1.0  0.19022  0.44948  0.92023  1.0000
  Fe  Fe59      1.0  0.16273  0.48026  0.90574  1.0000
  S   S126      1.0  0.15283  0.50050  0.88286  1.0000
  S   S127      1.0  0.17391  0.44612  0.94821  1.0000
  S   S128      1.0  0.14426  0.47944  0.93249  1.0000
  C   C392      1.0  0.22761  0.38591  0.89612  1.0000
  H   H446      1.0  0.13117  0.34852  0.81749  1.0000
  H   H447      1.0  0.19178  0.33461  0.90053  1.0000
  H   H448      1.0  0.19217  0.41003  0.93090  1.0000
  H   H449      1.0  0.19054  0.38011  0.92837  1.0000
  C   C393      1.0  0.13713  0.38471  0.92348  1.0000
  C   C394      1.0  0.12013  0.39238  0.93204  1.0000
  C   C395      1.0  0.11775  0.40753  0.93901  1.0000
  C   C396      1.0  0.13226  0.41529  0.93704  1.0000
  C   C397      1.0  0.14922  0.40765  0.92837  1.0000
  C   C398      1.0  0.15165  0.39224  0.92184  1.0000
  H   H450      1.0  0.10886  0.38664  0.93339  1.0000
  H   H451      1.0  0.10460  0.41347  0.94568  1.0000
  H   H452      1.0  0.16051  0.41341  0.92699  1.0000
  H   H453      1.0  0.16483  0.38603  0.91559  1.0000
  H   H454      1.0  0.11204  0.34507  0.76691  1.0000
  C   C399      1.0  0.16979  0.35395  0.78600  1.0000
  H   H455      1.0  0.09908  0.34314  0.96105  1.0000
  H   H456      1.0  0.03286  0.52196  0.89268  1.0000
  C   C400      1.0  0.10019  0.36590  0.97943  1.0000
  Fe  Fe60      1.0  0.23519  0.36450  0.83874  1.0000
  C   C401      1.0  0.19997  0.39983  0.78227  1.0000
  C   C402      1.0  0.20660  0.39018  0.81166  1.0000
  C   C403      1.0  0.19471  0.39329  0.80051  1.0000
  H   H457      1.0  0.20261  0.38471  0.82565  1.0000
  H   H458      1.0  0.18159  0.39037  0.80594  1.0000
  C   C404      1.0  0.21045  0.35405  0.70383  1.0000
  C   C405      1.0  0.19432  0.36354  0.69904  1.0000
  C   C406      1.0  0.17958  0.35546  0.70409  1.0000
  H   H459      1.0  0.16129  0.51026  0.99181  1.0000
  C   C407      1.0  0.05498  0.52931  0.84934  1.0000
  C   C408      1.0  0.22929  0.47200  0.96051  1.0000
  H   H460      1.0  0.19324  0.37708  0.69129  1.0000
  H   H461      1.0  0.16712  0.36277  0.70027  1.0000
  C   C409      1.0  0.00425  0.61354  0.87980  1.0000
  S   S129      1.0  0.03698  0.64559  0.94944  1.0000
  C   C410      1.0  0.07901  0.39180  0.85733  1.0000
  C   C411      1.0  0.09293  0.37876  0.85062  1.0000
  C   C412      1.0  0.10481  0.38346  0.83454  1.0000
  C   C413      1.0  0.10288  0.40123  0.82533  1.0000
  C   C414      1.0  0.08819  0.41401  0.83133  1.0000
  C   C415      1.0  0.07595  0.40915  0.84708  1.0000
  H   H462      1.0  0.09472  0.36511  0.85800  1.0000
  H   H463      1.0  0.11591  0.37350  0.82977  1.0000
  H   H464      1.0  0.08638  0.42771  0.82401  1.0000
  H   H465      1.0  0.06462  0.41908  0.85171  1.0000
  C   C416      1.0  0.13842  0.47592  0.73539  1.0000
  C   C417      1.0  0.14011  0.48479  0.71750  1.0000
  C   C418      1.0  0.15230  0.47671  0.70413  1.0000
  C   C419      1.0  0.16305  0.45984  0.70864  1.0000
  C   C420      1.0  0.16131  0.45092  0.72652  1.0000
  C   C421      1.0  0.14887  0.45886  0.73984  1.0000
  H   H466      1.0  0.13204  0.49798  0.71396  1.0000
  H   H467      1.0  0.15359  0.48364  0.69032  1.0000
  H   H468      1.0  0.16940  0.43779  0.73008  1.0000
  H   H469      1.0  0.14753  0.45181  0.75350  1.0000
  C   C422      1.0  0.16081  0.47342  0.83664  1.0000
  C   C423      1.0  0.14501  0.48576  0.84108  1.0000
  C   C424      1.0  0.14299  0.49479  0.85469  1.0000
  C   C425      1.0  0.15635  0.49079  0.86447  1.0000
  C   C426      1.0  0.17216  0.47853  0.85993  1.0000
  C   C427      1.0  0.17459  0.47029  0.84568  1.0000
  H   H470      1.0  0.13436  0.48833  0.83408  1.0000
  H   H471      1.0  0.13078  0.50435  0.85812  1.0000
  H   H472      1.0  0.18260  0.47554  0.86730  1.0000
  H   H473      1.0  0.18695  0.46100  0.84208  1.0000
  C   C428      1.0  0.19604  0.53085  0.97060  1.0000
  H   H474      1.0  0.17708  0.57366  0.95139  1.0000
  C   C429      1.0  0.17773  0.50675  0.96614  1.0000
  C   C430      1.0  0.19209  0.51182  0.95285  1.0000
  C   C431      1.0  0.20129  0.52370  0.95516  1.0000
  H   H475      1.0  0.19635  0.50636  0.94100  1.0000
  C   C432      1.0  0.06455  0.33663  0.97191  1.0000
  H   H476      1.0  0.14239  0.34086  0.97307  1.0000
  C   C433      1.0  0.03659  0.52893  0.87901  1.0000
  Fe  Fe61      1.0  0.23442  0.41754  0.71508  1.0000
  H   H477      1.0  0.23120  0.33560  0.67750  1.0000
  H   H478      1.0  0.15364  0.37861  0.80520  1.0000
  C   C434      1.0  0.05871  0.35510  0.96688  1.0000
  H   H479      1.0  0.05955  0.36140  0.95297  1.0000
  C   C435      1.0  0.03010  0.51980  0.80621  1.0000
  C   C436      1.0  0.02664  0.51533  0.82484  1.0000
  C   C437      1.0  0.03971  0.50353  0.83367  1.0000
  C   C438      1.0  0.05636  0.49632  0.82395  1.0000
  C   C439      1.0  0.05973  0.50061  0.80532  1.0000
  C   C440      1.0  0.04658  0.51224  0.79648  1.0000
  C   C441      1.0  0.24680  0.37807  0.63839  1.0000
  H   H480      1.0  0.03695  0.50011  0.84807  1.0000
  H   H481      1.0  0.07256  0.49516  0.79770  1.0000
  H   H482      1.0  0.04935  0.51562  0.78207  1.0000
  N   N28       1.0  0.18793  0.46947  0.76441  1.0000
  H   H483      1.0  0.17065  0.36397  0.81647  1.0000
  C   C442      1.0  0.01280  0.33385  0.99286  1.0000
  C   C443      1.0  0.00493  0.61431  0.86179  1.0000
  H   H484      1.0  0.15153  0.36644  0.87556  1.0000
  H   H485      1.0  0.11562  0.35545  0.94848  1.0000
  H   H486      1.0  0.06840  0.56936  0.83075  1.0000
  H   H487      1.0  0.15128  0.41867  0.75564  1.0000
  H   H488      1.0  0.15413  0.55740  0.97109  1.0000
  Fe  Fe62      1.0  0.19539  0.56447  0.99202  1.0000
  C   C444      1.0  0.15477  0.54686  0.93178  1.0000
  C   C445      1.0  0.22927  0.46960  0.93075  1.0000
  H   H489      1.0  0.17877  0.33269  0.81629  1.0000
  H   H490      1.0  0.22067  0.40968  0.76120  1.0000
  S   S130      1.0  0.01440  0.53538  0.79478  1.0000
  C   C446      1.0  0.11269  0.34481  0.96043  1.0000
  C   C447      1.0  0.15768  0.55743  0.95696  1.0000
  C   C448      1.0  0.22891  0.40258  0.89801  1.0000
  H   H491      1.0  0.14257  0.40169  0.77293  1.0000
  H   H492      1.0  0.19966  0.48859  0.76950  1.0000
  C   C449      1.0  0.10057  0.62333  0.98864  1.0000
  C   C450      1.0  0.24416  0.49301  0.96571  1.0000
  C   C451      1.0  0.19759  0.47472  0.77516  1.0000
  S   S131      1.0  0.20442  0.59004  0.98915  1.0000
  Fe  Fe63      1.0  0.01230  0.64475  0.94047  1.0000
  C   C452      1.0  0.18784  0.45020  0.77090  1.0000
  H   H493      1.0  0.16833  0.49421  0.76205  1.0000
  C   C453      1.0  0.04609  0.54708  0.84308  1.0000
  C   C454      1.0  0.15419  0.64617  0.97483  1.0000
  C   C455      1.0  0.20207  0.40337  0.92118  1.0000
  H   H494      1.0  0.06783  0.55377  0.79882  1.0000
  N   N29       1.0  0.18062  0.41400  0.86295  1.0000
  C   C456      1.0  0.19385  0.41975  0.84667  1.0000
  C   C457      1.0  0.16887  0.42995  0.86927  1.0000
  C   C458      1.0  0.19081  0.40368  0.87689  1.0000
  C   C459      1.0  0.16941  0.40390  0.85911  1.0000
  C   C460      1.0  0.16578  0.38747  0.87023  1.0000
  C   C461      1.0  0.16061  0.41112  0.84459  1.0000
  C   C462      1.0  0.15420  0.37888  0.86682  1.0000
  C   C463      1.0  0.14913  0.40237  0.84128  1.0000
  C   C464      1.0  0.14581  0.38635  0.85248  1.0000
  H   H495      1.0  0.18757  0.42948  0.83608  1.0000
  H   H496      1.0  0.20307  0.42651  0.84948  1.0000
  H   H497      1.0  0.20224  0.40811  0.84098  1.0000
  H   H498      1.0  0.16112  0.43871  0.85926  1.0000
  H   H499      1.0  0.17666  0.43816  0.87219  1.0000
  H   H500      1.0  0.15904  0.42607  0.88171  1.0000
  H   H501      1.0  0.19951  0.39109  0.87334  1.0000
  H   H502      1.0  0.19966  0.41139  0.87892  1.0000
  H   H503      1.0  0.18192  0.40039  0.89011  1.0000
  H   H504      1.0  0.17156  0.38104  0.88178  1.0000
  H   H505      1.0  0.16224  0.42380  0.83583  1.0000
  H   H506      1.0  0.20422  0.46946  0.98028  1.0000
  N   N30       1.0  0.05064  0.55691  0.82442  1.0000
  Fe  Fe64      1.0  0.22471  0.34960  0.87798  1.0000
  H   H507      1.0  0.20014  0.46300  0.95520  1.0000
  H   H508      1.0  0.13652  0.37986  0.85016  1.0000
  N   N31       1.0  0.14722  0.53621  0.92411  1.0000
  C   C465      1.0  0.21666  0.48722  0.98563  1.0000
  C   C466      1.0  0.21182  0.33655  0.71387  1.0000
  C   C467      1.0  0.16790  0.55649  0.92085  1.0000
  H   H509      1.0  0.23746  0.37931  0.88638  1.0000
  H   H510      1.0  0.18141  0.44708  0.78531  1.0000
  C   C468      1.0  0.05686  0.57302  0.82411  1.0000
  H   H511      1.0  0.14261  0.40818  0.83010  1.0000
  C   C469      1.0  0.14991  0.54759  0.95014  1.0000
  H   H512      1.0  0.07763  0.54197  0.81753  1.0000
  H   H513      1.0  0.13274  0.54016  0.90349  1.0000
  C   C470      1.0  0.13940  0.35127  0.80377  1.0000
  H   H514      1.0  0.24206  0.47396  0.92432  1.0000
  H   H515      1.0  0.21987  0.65599  0.99269  1.0000
  H   H516      1.0  0.23180  0.36155  0.65891  1.0000
  N   N32       1.0  0.09335  0.42682  0.88411  1.0000
  C   C471      1.0  0.07855  0.43466  0.87442  1.0000
  C   C472      1.0  0.10587  0.41257  0.87547  1.0000
  C   C473      1.0  0.08532  0.41857  0.90258  1.0000
  C   C474      1.0  0.10322  0.44008  0.88440  1.0000
  C   C475      1.0  0.11625  0.43527  0.89496  1.0000
  C   C476      1.0  0.10036  0.45791  0.87432  1.0000
  C   C477      1.0  0.12476  0.44785  0.89655  1.0000
  C   C478      1.0  0.10922  0.47032  0.87575  1.0000
  C   C479      1.0  0.12114  0.46537  0.88710  1.0000
  H   H517      1.0  0.08355  0.43922  0.85986  1.0000
  H   H518      1.0  0.07036  0.42480  0.87587  1.0000
  H   H519      1.0  0.06921  0.44613  0.87973  1.0000
  H   H520      1.0  0.11201  0.41808  0.86148  1.0000
  H   H521      1.0  0.09896  0.40225  0.87512  1.0000
  H   H522      1.0  0.11689  0.40550  0.88258  1.0000
  H   H523      1.0  0.07677  0.42895  0.91000  1.0000
  H   H524      1.0  0.07690  0.40930  0.90272  1.0000
  S   S132      1.0  0.21735  0.43263  0.91215  1.0000
  H   H525      1.0  0.11980  0.42178  0.90227  1.0000
  H   H526      1.0  0.09133  0.46265  0.86524  1.0000
  H   H527      1.0  0.13405  0.44403  0.90534  1.0000
  H   H528      1.0  0.10676  0.48387  0.86806  1.0000
  H   H529      1.0  0.12767  0.47509  0.88856  1.0000
  H   H530      1.0  0.17089  0.34403  0.89422  1.0000
  H   H531      1.0  0.16038  0.47498  0.76207  1.0000
  S   S133      1.0  0.18685  0.47923  0.91589  1.0000
  C   C480      1.0  0.13182  0.35320  0.97396  1.0000
  N   N33       1.0  0.15809  0.35101  0.80396  1.0000
  H   H532      1.0  0.20157  0.44182  0.76932  1.0000
  H   H533      1.0  0.03767  0.56903  0.80212  1.0000
  H   H534      1.0  0.06109  0.58042  0.81025  1.0000
  C   C481      1.0  0.21371  0.37779  0.90698  1.0000
  C   C482      1.0  0.16173  0.52211  0.91718  1.0000
  H   H535      1.0  0.23975  0.40873  0.88966  1.0000
  N   N34       1.0  0.13119  0.40895  0.74959  1.0000
  C   C483      1.0  0.14633  0.40620  0.75820  1.0000
  C   C484      1.0  0.13716  0.41547  0.73008  1.0000
  C   C485      1.0  0.11668  0.42333  0.75631  1.0000
  C   C486      1.0  0.12529  0.39182  0.75385  1.0000
  C   C487      1.0  0.13189  0.37948  0.74234  1.0000
  C   C488      1.0  0.11393  0.38626  0.77044  1.0000
  C   C489      1.0  0.12692  0.36296  0.74696  1.0000
  C   C490      1.0  0.10899  0.36973  0.77488  1.0000
  C   C491      1.0  0.11552  0.35808  0.76320  1.0000
  H   H536      1.0  0.23679  0.36591  0.77479  1.0000
  C   C492      1.0  0.03622  0.65257  0.96906  1.0000
  H   H537      1.0  0.19332  0.35365  0.79540  1.0000
  H   H538      1.0  0.15012  0.40729  0.72445  1.0000
  H   H539      1.0  0.13958  0.42925  0.72681  1.0000
  H   H540      1.0  0.12697  0.41575  0.72273  1.0000
  H   H541      1.0  0.11369  0.42135  0.77107  1.0000
  H   H542      1.0  0.12037  0.43666  0.75149  1.0000
  H   H543      1.0  0.10418  0.42437  0.75199  1.0000
  H   H544      1.0  0.14121  0.38213  0.72982  1.0000
  H   H545      1.0  0.10906  0.39437  0.78038  1.0000
  H   H546      1.0  0.06549  0.52175  0.84080  1.0000
  H   H547      1.0  0.10036  0.36574  0.78767  1.0000
  H   H548      1.0  0.12247  0.33236  0.95787  1.0000
  C   C493      1.0  0.16918  0.47970  0.76774  1.0000
  C   C494      1.0  0.17064  0.56657  0.94590  1.0000
  C   C495      1.0  0.22345  0.39435  0.80468  1.0000
  S   S134      1.0  0.21122  0.35729  0.90442  1.0000
  C   C496      1.0  0.19686  0.47256  0.74531  1.0000
  C   C497      1.0  0.18719  0.47997  0.73143  1.0000
  C   C498      1.0  0.21566  0.46688  0.74002  1.0000
  C   C499      1.0  0.19589  0.48173  0.71349  1.0000
  C   C500      1.0  0.22424  0.46898  0.72204  1.0000
  C   C501      1.0  0.21437  0.47631  0.70881  1.0000
  C   C502      1.0  0.05142  0.36543  0.97994  1.0000
  C   C503      1.0  0.02779  0.54641  0.87338  1.0000
  C   C504      1.0  0.19306  0.35870  0.75198  1.0000
  H   H549      1.0  0.12193  0.53713  0.94292  1.0000
  H   H550      1.0  0.14792  0.36385  0.82636  1.0000
  H   H551      1.0  0.16311  0.47818  0.78224  1.0000
  C   C505      1.0  0.11077  0.33517  0.99305  1.0000
  C   C506      1.0  0.17238  0.51408  0.98144  1.0000
  H   H552      1.0  0.18053  0.44566  0.76337  1.0000
  H   H553      1.0  0.17284  0.48414  0.73402  1.0000
  H   H554      1.0  0.22387  0.46015  0.74967  1.0000
  H   H555      1.0  0.18817  0.48686  0.70316  1.0000
  H   H556      1.0  0.02393  0.57241  0.82312  1.0000
  C   C507      1.0  0.19923  0.35722  0.76719  1.0000
  H   H557      1.0  0.14052  0.54027  0.95967  1.0000
  H   H558      1.0  0.15655  0.51352  0.91166  1.0000
  H   H559      1.0  0.21147  0.44398  0.96934  1.0000
  H   H560      1.0  0.11303  0.62261  0.97808  1.0000
  H   H561      1.0  0.16851  0.51340  0.92795  1.0000
  H   H562      1.0  0.22099  0.47732  0.69490  1.0000
  H   H563      1.0  0.00587  0.63408  0.77364  1.0000
  H   H564      1.0  0.24125  0.40537  0.78119  1.0000
  H   H565      1.0  0.12782  0.51959  0.93091  1.0000
  H   H566      1.0  0.17250  0.55634  0.90684  1.0000
  H   H567      1.0  0.15056  0.35480  0.77037  1.0000
  S   S135      1.0  0.01417  0.64319  0.91201  1.0000
  C   C508      1.0  0.16392  0.35557  0.77017  1.0000
  S   S136      1.0  0.16946  0.62769  0.96774  1.0000
  H   H568      1.0  0.15866  0.66335  0.94882  1.0000
  H   H569      1.0  0.18910  0.33283  0.87949  1.0000
  C   C509      1.0  0.20115  0.38643  0.91973  1.0000
  H   H570      1.0  0.04685  0.37972  0.97602  1.0000
  H   H571      1.0  0.13323  0.35886  0.98472  1.0000
  C   C510      1.0  0.06486  0.54618  0.81281  1.0000
  C   C511      1.0  0.13894  0.54780  0.90920  1.0000
  C   C512      1.0  0.03459  0.56261  0.81650  1.0000
  H   H572      1.0  0.02519  0.56892  0.85198  1.0000
  Fe  Fe65      1.0  0.17577  0.60319  0.98883  1.0000
  H   H573      1.0  0.13897  0.51744  0.94824  1.0000
  C   C513      1.0  0.17570  0.56614  0.92787  1.0000
  H   H574      1.0  0.02880  0.55100  0.81760  1.0000
  C   C514      1.0  0.13337  0.52729  0.93717  1.0000
  H   H575      1.0  0.00085  0.62001  0.79538  1.0000
  H   H576      1.0  0.14881  0.55362  0.89792  1.0000
  S   S137      1.0  0.23877  0.38944  0.81829  1.0000
  H   H577      1.0  0.17206  0.52761  0.90621  1.0000
  H   H578      1.0  0.06078  0.53404  0.81220  1.0000
  C   C515      1.0  0.03242  0.55538  0.85571  1.0000
  H   H579      1.0  0.01388  0.52087  0.83247  1.0000
  H   H580      1.0  0.22654  0.33248  0.65767  1.0000
  Fe  Fe66      1.0  0.21821  0.33207  0.85099  1.0000
  C   C516      1.0  0.21243  0.45226  0.95558  1.0000
  C   C517      1.0  0.17547  0.35780  0.75347  1.0000
  H   H581      1.0  0.12078  0.59125  0.98942  1.0000
  H   H582      1.0  0.13290  0.36454  0.79689  1.0000
  H   H583      1.0  0.05691  0.50672  0.87132  1.0000
  C   C518      1.0  0.18080  0.33811  0.71443  1.0000
  N   N35       1.0  0.11382  0.34942  0.97693  1.0000
  N   N36       1.0  0.22873  0.45985  0.94952  1.0000
  C   C519      1.0  0.05017  0.52042  0.86702  1.0000
  H   H584      1.0  0.13228  0.35369  0.73804  1.0000
  H   H585      1.0  0.18596  0.57311  0.91939  1.0000
  H   H586      1.0  0.17081  0.35867  0.74161  1.0000
  H   H587      1.0  0.09710  0.63713  0.99102  1.0000
  H   H588      1.0  0.23857  0.46420  0.71834  1.0000
  H   H589      1.0  0.21832  0.48169  0.92992  1.0000
  H   H590      1.0  0.23079  0.50591  0.98771  1.0000
  H   H591      1.0  0.08993  0.62148  0.98303  1.0000
  C   C520      1.0  0.18234  0.33242  0.89369  1.0000
  C   C521      1.0  0.14505  0.64509  0.99258  1.0000
  C   C522      1.0  0.18139  0.52612  0.98364  1.0000
  H   H592      1.0  0.20193  0.36060  0.73901  1.0000
  H   H593      1.0  0.01005  0.62488  0.85162  1.0000
  Fe  Fe67      1.0  0.08721  0.33741  0.92884  1.0000
  C   C523      1.0  0.23067  0.49615  0.98049  1.0000
  C   C524      1.0  0.18786  0.35477  0.78399  1.0000
  C   C525      1.0  0.21585  0.47535  0.97583  1.0000
  S   S138      1.0  0.24297  0.33780  0.83128  1.0000
  H   H594      1.0  0.10154  0.37685  0.96740  1.0000
  H   H595      1.0  0.21232  0.44335  0.94694  1.0000
  H   H596      1.0  0.20559  0.63572  0.98327  1.0000
  C   C526      1.0  0.24739  0.35557  0.77975  1.0000
  C   C527      1.0  0.24655  0.33766  0.78312  1.0000
  H   H597      1.0  0.24250  0.64586  0.49690  1.0000
  H   H598      1.0  0.21280  0.35831  0.76590  1.0000
  S   S139      1.0  0.08194  0.33666  0.90268  1.0000
  H   H599      1.0  0.08648  0.36340  0.98229  1.0000
  H   H600      1.0  0.15678  0.33036  0.82797  1.0000
  H   H601      1.0  0.09784  0.33173  0.82817  1.0000
  H   H602      1.0  0.00897  0.62338  0.88342  1.0000
  H   H603      1.0  0.00398  0.54412  0.74370  1.0000
  H   H604      1.0  0.01375  0.34575  0.98175  1.0000
  H   H605      1.0  0.13487  0.36319  0.96136  1.0000
  C   C528      1.0  0.05178  0.65595  0.97155  1.0000
  H   H606      1.0  0.00033  0.65793  0.78974  1.0000
  C   C529      1.0  0.24409  0.36148  0.64898  1.0000
  H   H607      1.0  0.23666  0.39003  0.64026  1.0000
  H   H608      1.0  0.06402  0.65397  0.96162  1.0000
  H   H609      1.0  0.10191  0.33119  0.85821  1.0000
  C   C530      1.0  0.16528  0.33339  0.81439  1.0000
  H   H610      1.0  0.00845  0.65246  0.98034  1.0000
  C   C531      1.0  0.02047  0.65521  0.98197  1.0000
  C   C532      1.0  0.15157  0.66243  0.96257  1.0000
  H   H611      1.0  0.10110  0.37109  0.99073  1.0000
  S   S140      1.0  0.10704  0.95528  0.35553  1.0000
  Fe  Fe68      1.0  0.22345  0.94759  0.21452  1.0000
  S   S141      1.0  0.19904  0.96374  0.22908  1.0000
  Fe  Fe69      1.0  0.20700  0.91560  0.22275  1.0000
  S   S142      1.0  0.18117  0.92827  0.23853  1.0000
  S   S143      1.0  0.21355  0.88743  0.21916  1.0000
  Fe  Fe70      1.0  0.18365  0.95246  0.21674  1.0000
  S   S144      1.0  0.15888  0.96978  0.20830  1.0000
  Fe  Fe71      1.0  0.19812  0.93874  0.24991  1.0000
  S   S145      1.0  0.19009  0.93996  0.27872  1.0000
  S   S146      1.0  0.20811  0.93887  0.19962  1.0000
  S   S147      1.0  0.22390  0.92333  0.23670  1.0000
  Fe  Fe72      1.0  0.08769  0.86812  0.38404  1.0000
  S   S148      1.0  0.11631  0.86202  0.37038  1.0000
  S   S149      1.0  0.07058  0.89047  0.36807  1.0000
  Fe  Fe73      1.0  0.09455  0.84210  0.41812  1.0000
  S   S150      1.0  0.12401  0.83450  0.40712  1.0000
  S   S151      1.0  0.08121  0.83074  0.44602  1.0000
  Fe  Fe74      1.0  0.12188  0.86393  0.39579  1.0000
  S   S152      1.0  0.14271  0.87980  0.39260  1.0000
  Fe  Fe75      1.0  0.11552  0.83355  0.38270  1.0000
  S   S153      1.0  0.13059  0.81330  0.36596  1.0000
  S   S154      1.0  0.09317  0.87144  0.40904  1.0000
  S   S155      1.0  0.08608  0.83929  0.39431  1.0000
  Fe  Fe76      1.0  0.12560  0.81480  0.27410  1.0000
  S   S156      1.0  0.14682  0.78954  0.27408  1.0000
  S   S157      1.0  0.10225  0.81924  0.29701  1.0000
  Fe  Fe77      1.0  0.14525  0.83431  0.23946  1.0000
  S   S158      1.0  0.16806  0.81088  0.23715  1.0000
  S   S159      1.0  0.14525  0.86060  0.22006  1.0000
  Fe  Fe78      1.0  0.14679  0.79483  0.24475  1.0000
  S   S160      1.0  0.15284  0.77409  0.22781  1.0000
  Fe  Fe79      1.0  0.16572  0.80823  0.26635  1.0000
  S   S161      1.0  0.19018  0.80437  0.27750  1.0000
  S   S162      1.0  0.12391  0.81863  0.24545  1.0000
  S   S163      1.0  0.14451  0.83307  0.26791  1.0000
  S   S164      1.0  0.20884  0.83051  0.37428  1.0000
  S   S165      1.0  0.20462  0.87271  0.35460  1.0000
  Fe  Fe80      1.0  0.21369  0.85533  0.37896  1.0000
  S   S166      1.0  0.20187  0.86455  0.40476  1.0000
  Fe  Fe81      1.0  0.20277  0.84747  0.34836  1.0000
  S   S167      1.0  0.17949  0.84697  0.33766  1.0000
  C   C533      1.0  0.20123  0.75337  0.37453  1.0000
  Fe  Fe82      1.0  0.18855  0.95858  0.41135  1.0000
  S   S168      1.0  0.17030  0.95243  0.43798  1.0000
  C   C534      1.0  0.17481  0.68911  0.05270  1.0000
  C   C535      1.0  0.23603  0.91575  0.29525  1.0000
  C   C536      1.0  0.21159  0.91874  0.40444  1.0000
  H   H612      1.0  0.04061  0.85378  0.42036  1.0000
  C   C537      1.0  0.04602  0.89125  0.42970  1.0000
  Fe  Fe83      1.0  0.14886  0.96165  0.42211  1.0000
  S   S169      1.0  0.12632  0.94755  0.42684  1.0000
  H   H613      1.0  0.04668  0.88631  0.45808  1.0000
  S   S170      1.0  0.16734  0.96601  0.39537  1.0000
  H   H614      1.0  0.14940  0.73300  0.23704  1.0000
  H   H615      1.0  0.21064  0.92919  0.32418  1.0000
  C   C538      1.0  0.11467  0.72950  0.06197  1.0000
  C   C539      1.0  0.22199  0.89027  0.39513  1.0000
  H   H616      1.0  0.19868  0.99239  0.35858  1.0000
  S   S171      1.0  0.06757  0.70107  0.02462  1.0000
  H   H617      1.0  0.07340  0.67135  0.12341  1.0000
  C   C540      1.0  0.04739  0.86460  0.41967  1.0000
  Fe  Fe84      1.0  0.07293  0.68946  0.05232  1.0000
  S   S172      1.0  0.06686  0.70582  0.07349  1.0000
  S   S173      1.0  0.21914  0.68346  0.05784  1.0000
  H   H618      1.0  0.10290  0.87861  0.49280  1.0000
  Fe  Fe85      1.0  0.12223  0.71689  0.13716  1.0000
  S   S174      1.0  0.11278  0.74686  0.13250  1.0000
  S   S175      1.0  0.11528  0.69438  0.12933  1.0000
  Fe  Fe86      1.0  0.15465  0.71821  0.15032  1.0000
  S   S176      1.0  0.14852  0.74798  0.14562  1.0000
  S   S177      1.0  0.18009  0.70302  0.15924  1.0000
  Fe  Fe87      1.0  0.12055  0.74496  0.15851  1.0000
  S   S178      1.0  0.10646  0.75981  0.18091  1.0000
  Fe  Fe88      1.0  0.14165  0.74743  0.12039  1.0000
  S   S179      1.0  0.15016  0.76653  0.09489  1.0000
  S   S180      1.0  0.12692  0.71498  0.16437  1.0000
  S   S181      1.0  0.15062  0.71791  0.12378  1.0000
  S   S182      1.0  0.20953  0.73438  0.03460  1.0000
  C   C541      1.0  0.16696  0.75748  0.07836  1.0000
  C   C542      1.0  0.17139  0.76831  0.06153  1.0000
  C   C543      1.0  0.18435  0.76115  0.04799  1.0000
  C   C544      1.0  0.19319  0.74324  0.05140  1.0000
  C   C545      1.0  0.18889  0.73245  0.06825  1.0000
  C   C546      1.0  0.17571  0.73955  0.08163  1.0000
  H   H619      1.0  0.16467  0.78220  0.05887  1.0000
  H   H620      1.0  0.18768  0.76953  0.03495  1.0000
  H   H621      1.0  0.19553  0.71855  0.07090  1.0000
  H   H622      1.0  0.17256  0.73114  0.09448  1.0000
  C   C547      1.0  0.08100  0.70268  0.08836  1.0000
  C   C548      1.0  0.09450  0.68739  0.09083  1.0000
  C   C549      1.0  0.10480  0.68493  0.10354  1.0000
  C   C550      1.0  0.10223  0.69809  0.11331  1.0000
  C   C551      1.0  0.08917  0.71365  0.11039  1.0000
  C   C552      1.0  0.07841  0.71578  0.09819  1.0000
  C   C553      1.0  0.11182  0.98114  0.25432  1.0000
  C   C554      1.0  0.18355  0.78899  0.37832  1.0000
  H   H623      1.0  0.08697  0.72382  0.11791  1.0000
  H   H624      1.0  0.06800  0.72766  0.09636  1.0000
  H   H625      1.0  0.22687  0.93961  0.27673  1.0000
  H   H626      1.0  0.22562  0.91400  0.35661  1.0000
  H   H627      1.0  0.14938  0.68892  0.18051  1.0000
  Fe  Fe89      1.0  0.24721  0.67191  0.04529  1.0000
  H   H628      1.0  0.06307  0.90893  0.45488  1.0000
  H   H629      1.0  0.10368  0.98622  0.41698  1.0000
  H   H630      1.0  0.06553  0.92352  0.39857  1.0000
  H   H631      1.0  0.01136  0.87607  0.42555  1.0000
  H   H632      1.0  0.11846  0.88806  0.27618  1.0000
  H   H633      1.0  0.21716  0.77060  0.40981  1.0000
  Fe  Fe90      1.0  0.22730  0.70977  0.04680  1.0000
  H   H634      1.0  0.11113  0.71695  0.07058  1.0000
  C   C555      1.0  0.20582  0.88536  0.40440  1.0000
  C   C556      1.0  0.19262  0.89713  0.41371  1.0000
  C   C557      1.0  0.19536  0.91388  0.41348  1.0000
  H   H635      1.0  0.18008  0.89345  0.42080  1.0000
  H   H636      1.0  0.18487  0.92298  0.42033  1.0000
  C   C558      1.0  0.13953  0.77147  0.21442  1.0000
  C   C559      1.0  0.14783  0.76154  0.20118  1.0000
  C   C560      1.0  0.13784  0.75803  0.19085  1.0000
  C   C561      1.0  0.11936  0.76442  0.19360  1.0000
  C   C562      1.0  0.11100  0.77448  0.20681  1.0000
  C   C563      1.0  0.12104  0.77806  0.21716  1.0000
  H   H637      1.0  0.16210  0.75636  0.19900  1.0000
  H   H638      1.0  0.14448  0.75005  0.18102  1.0000
  H   H639      1.0  0.09669  0.77940  0.20914  1.0000
  H   H640      1.0  0.11443  0.78550  0.22752  1.0000
  C   C564      1.0  0.18724  0.81614  0.29427  1.0000
  C   C565      1.0  0.20209  0.81685  0.30017  1.0000
  C   C566      1.0  0.19994  0.82639  0.31339  1.0000
  C   C567      1.0  0.18292  0.83509  0.32090  1.0000
  C   C568      1.0  0.16811  0.83420  0.31514  1.0000
  C   C569      1.0  0.17027  0.82479  0.30187  1.0000
  H   H641      1.0  0.21526  0.81002  0.29448  1.0000
  H   H642      1.0  0.21145  0.82677  0.31789  1.0000
  H   H643      1.0  0.15486  0.84036  0.32132  1.0000
  H   H644      1.0  0.15870  0.82380  0.29793  1.0000
  C   C570      1.0  0.07719  0.84373  0.46198  1.0000
  C   C571      1.0  0.08406  0.85912  0.45797  1.0000
  H   H645      1.0  0.11130  0.70993  0.21886  1.0000
  H   H646      1.0  0.23764  0.91043  0.38851  1.0000
  H   H647      1.0  0.09259  0.86283  0.44522  1.0000
  C   C572      1.0  0.05980  0.90716  0.44316  1.0000
  C   C573      1.0  0.13593  0.73175  0.24381  1.0000
  C   C574      1.0  0.13756  0.89895  0.40175  1.0000
  C   C575      1.0  0.12072  0.90458  0.41207  1.0000
  C   C576      1.0  0.11737  0.91960  0.41958  1.0000
  C   C577      1.0  0.13082  0.92902  0.41688  1.0000
  C   C578      1.0  0.14763  0.92339  0.40653  1.0000
  C   C579      1.0  0.15097  0.90842  0.39900  1.0000
  H   H648      1.0  0.11032  0.89734  0.41441  1.0000
  H   H649      1.0  0.10443  0.92373  0.42777  1.0000
  H   H650      1.0  0.15816  0.93037  0.40455  1.0000
  H   H651      1.0  0.16411  0.90392  0.39130  1.0000
  C   C580      1.0  0.12214  0.81435  0.34732  1.0000
  C   C581      1.0  0.10408  0.82127  0.34689  1.0000
  C   C582      1.0  0.09778  0.82206  0.33171  1.0000
  C   C583      1.0  0.10963  0.81643  0.31674  1.0000
  C   C584      1.0  0.12759  0.80940  0.31730  1.0000
  C   C585      1.0  0.13376  0.80817  0.33258  1.0000
  H   H652      1.0  0.09494  0.82576  0.35835  1.0000
  H   H653      1.0  0.08380  0.82727  0.33146  1.0000
  H   H654      1.0  0.13680  0.80484  0.30594  1.0000
  H   H655      1.0  0.14768  0.80271  0.33277  1.0000
  C   C586      1.0  0.20626  0.92461  0.28918  1.0000
  C   C587      1.0  0.21468  0.89684  0.30962  1.0000
  C   C588      1.0  0.20199  0.90904  0.30073  1.0000
  H   H656      1.0  0.21142  0.88466  0.31821  1.0000
  H   H657      1.0  0.18901  0.90622  0.30245  1.0000
  C   C589      1.0  0.19460  0.88036  0.21875  1.0000
  C   C590      1.0  0.17885  0.89266  0.21584  1.0000
  C   C591      1.0  0.16375  0.88661  0.21589  1.0000
  C   C592      1.0  0.16429  0.86828  0.21927  1.0000
  C   C593      1.0  0.18008  0.85608  0.22217  1.0000
  C   C594      1.0  0.19526  0.86210  0.22166  1.0000
  H   H658      1.0  0.17833  0.90682  0.21331  1.0000
  H   H659      1.0  0.15160  0.89613  0.21356  1.0000
  H   H660      1.0  0.18076  0.84198  0.22455  1.0000
  H   H661      1.0  0.20744  0.85253  0.22376  1.0000
  C   C595      1.0  0.09576  0.93826  0.35888  1.0000
  C   C596      1.0  0.10154  0.92222  0.37001  1.0000
  C   C597      1.0  0.09399  0.90769  0.37225  1.0000
  C   C598      1.0  0.07987  0.90920  0.36431  1.0000
  C   C599      1.0  0.07364  0.92548  0.35341  1.0000
  C   C600      1.0  0.08180  0.94001  0.35046  1.0000
  H   H662      1.0  0.11235  0.92077  0.37650  1.0000
  H   H663      1.0  0.09952  0.89529  0.37996  1.0000
  H   H664      1.0  0.06272  0.92679  0.34713  1.0000
  H   H665      1.0  0.07721  0.95249  0.34187  1.0000
  C   C601      1.0  0.14330  0.96894  0.24390  1.0000
  H   H666      1.0  0.15636  0.96252  0.24666  1.0000
  H   H667      1.0  0.12324  0.72706  0.20671  1.0000
  H   H668      1.0  0.23530  0.71646  0.16433  1.0000
  C   C602      1.0  0.24709  0.67150  0.48149  1.0000
  N   N37       1.0  0.14311  0.83063  0.18303  1.0000
  C   C603      1.0  0.14643  0.81752  0.19954  1.0000
  C   C604      1.0  0.15789  0.84047  0.17657  1.0000
  C   C605      1.0  0.12630  0.84376  0.18753  1.0000
  C   C606      1.0  0.14147  0.82122  0.16999  1.0000
  C   C607      1.0  0.12767  0.81160  0.17411  1.0000
  C   C608      1.0  0.15336  0.82112  0.15309  1.0000
  C   C609      1.0  0.12577  0.80265  0.16204  1.0000
  C   C610      1.0  0.15139  0.81198  0.14118  1.0000
  C   C611      1.0  0.13763  0.80277  0.14564  1.0000
  H   H669      1.0  0.15852  0.80687  0.19679  1.0000
  H   H670      1.0  0.14842  0.82409  0.20934  1.0000
  H   H671      1.0  0.13511  0.81078  0.20637  1.0000
  H   H672      1.0  0.17111  0.83127  0.17391  1.0000
  H   H673      1.0  0.15858  0.84750  0.18670  1.0000
  H   H674      1.0  0.15605  0.85092  0.16437  1.0000
  H   H675      1.0  0.11479  0.83729  0.19441  1.0000
  H   H676      1.0  0.12738  0.85159  0.19677  1.0000
  H   H677      1.0  0.12281  0.85339  0.17535  1.0000
  H   H678      1.0  0.11831  0.81078  0.18679  1.0000
  H   H679      1.0  0.16431  0.82794  0.14878  1.0000
  H   H680      1.0  0.11508  0.79543  0.16548  1.0000
  H   H681      1.0  0.16058  0.81204  0.12837  1.0000
  H   H682      1.0  0.13615  0.79565  0.13642  1.0000
  N   N38       1.0  0.21093  0.73768  0.11350  1.0000
  C   C612      1.0  0.19359  0.74691  0.12287  1.0000
  C   C613      1.0  0.21451  0.74811  0.09489  1.0000
  C   C614      1.0  0.20920  0.71976  0.11284  1.0000
  C   C615      1.0  0.22506  0.73564  0.12323  1.0000
  H   H683      1.0  0.14340  0.68019  0.22750  1.0000
  Fe  Fe91      1.0  0.09878  0.99213  0.29496  1.0000
  C   C616      1.0  0.12395  0.98181  0.22282  1.0000
  C   C617      1.0  0.12740  0.74259  0.25617  1.0000
  H   H684      1.0  0.20573  0.67286  0.00445  1.0000
  H   H685      1.0  0.19450  0.76011  0.12446  1.0000
  H   H686      1.0  0.18281  0.74926  0.11546  1.0000
  H   H687      1.0  0.18896  0.73903  0.13637  1.0000
  H   H688      1.0  0.21541  0.76195  0.09447  1.0000
  H   H689      1.0  0.20368  0.74946  0.08791  1.0000
  H   H690      1.0  0.22701  0.74158  0.08676  1.0000
  H   H691      1.0  0.19980  0.72048  0.10446  1.0000
  H   H692      1.0  0.22224  0.71175  0.10732  1.0000
  H   H693      1.0  0.20415  0.71187  0.12617  1.0000
  H   H694      1.0  0.21208  0.72020  0.14806  1.0000
  C   C618      1.0  0.15994  0.68600  0.06609  1.0000
  Fe  Fe92      1.0  0.16724  0.98137  0.43811  1.0000
  H   H695      1.0  0.16441  0.68000  0.12459  1.0000
  H   H696      1.0  0.17295  0.78127  0.38536  1.0000
  N   N39       1.0  0.14880  0.90605  0.33368  1.0000
  C   C619      1.0  0.13431  0.89672  0.34422  1.0000
  C   C620      1.0  0.16504  0.89718  0.34094  1.0000
  C   C621      1.0  0.14345  0.92459  0.33662  1.0000
  C   C622      1.0  0.15212  0.90500  0.31474  1.0000
  C   C623      1.0  0.15102  0.92035  0.30065  1.0000
  C   C624      1.0  0.15654  0.88815  0.30990  1.0000
  C   C625      1.0  0.15401  0.91878  0.28297  1.0000
  C   C626      1.0  0.15931  0.88673  0.29222  1.0000
  C   C627      1.0  0.15807  0.90203  0.27875  1.0000
  H   H697      1.0  0.13788  0.88234  0.34383  1.0000
  H   H698      1.0  0.13159  0.89709  0.35859  1.0000
  H   H699      1.0  0.12169  0.90280  0.33938  1.0000
  H   H700      1.0  0.16914  0.88279  0.34051  1.0000
  H   H701      1.0  0.16287  0.89764  0.35526  1.0000
  H   H702      1.0  0.17647  0.90346  0.33342  1.0000
  H   H703      1.0  0.13098  0.93190  0.33187  1.0000
  H   H704      1.0  0.14062  0.92486  0.35105  1.0000
  H   H705      1.0  0.15412  0.93223  0.32980  1.0000
  H   H706      1.0  0.14810  0.93375  0.30284  1.0000
  H   H707      1.0  0.15788  0.87589  0.31982  1.0000
  H   H708      1.0  0.15324  0.93070  0.27245  1.0000
  H   H709      1.0  0.16258  0.87366  0.28895  1.0000
  H   H710      1.0  0.16029  0.90092  0.26501  1.0000
  H   H711      1.0  0.15923  0.67249  0.07332  1.0000
  C   C628      1.0  0.20108  0.96576  0.35519  1.0000
  H   H712      1.0  0.13134  0.70477  0.20297  1.0000
  H   H713      1.0  0.18565  0.67808  0.04950  1.0000
  H   H714      1.0  0.15444  0.72410  0.21031  1.0000
  H   H715      1.0  0.23366  0.67618  0.47907  1.0000
  H   H716      1.0  0.21637  0.79156  0.35872  1.0000
  H   H717      1.0  0.23231  0.88116  0.38804  1.0000
  H   H718      1.0  0.16109  0.68429  0.99992  1.0000
  Fe  Fe93      1.0  0.23735  0.82709  0.35926  1.0000
  H   H719      1.0  0.18754  0.92937  0.33514  1.0000
  Fe  Fe94      1.0  0.23335  0.86601  0.34102  1.0000
  N   N40       1.0  0.20333  0.93524  0.35021  1.0000
  C   C629      1.0  0.16187  0.72081  0.04743  1.0000
  C   C630      1.0  0.15408  0.71028  0.21808  1.0000
  N   N41       1.0  0.22592  0.95616  0.45262  1.0000
  S   S183      1.0  0.23082  0.84217  0.33293  1.0000
  C   C631      1.0  0.23150  0.90050  0.30739  1.0000
  C   C632      1.0  0.19046  0.98256  0.32303  1.0000
  H   H720      1.0  0.22427  0.93459  0.47579  1.0000
  H   H721      1.0  0.24113  0.98593  0.23229  1.0000
  H   H722      1.0  0.23568  0.94890  0.42684  1.0000
  C   C633      1.0  0.11452  0.91557  0.27631  1.0000
  C   C634      1.0  0.10827  0.92883  0.28626  1.0000
  H   H723      1.0  0.12047  0.91902  0.26223  1.0000
  H   H724      1.0  0.10924  0.94253  0.27991  1.0000
  C   C635      1.0  0.14091  0.97360  0.22628  1.0000
  H   H725      1.0  0.12960  0.86273  0.29727  1.0000
  H   H726      1.0  0.15728  0.67845  0.14799  1.0000
  C   C636      1.0  0.20893  0.88470  0.26903  1.0000
  H   H727      1.0  0.20694  0.86003  0.25341  1.0000
  H   H728      1.0  0.16305  0.70668  0.22767  1.0000
  H   H729      1.0  0.19467  0.97843  0.27259  1.0000
  H   H730      1.0  0.13377  0.91480  0.45579  1.0000
  C   C637      1.0  0.11320  0.89791  0.28441  1.0000
  S   S184      1.0  0.10110  0.67602  0.04293  1.0000
  H   H731      1.0  0.24652  0.93632  0.46382  1.0000
  C   C638      1.0  0.06533  0.91768  0.42655  1.0000
  H   H732      1.0  0.22825  0.79718  0.39045  1.0000
  C   C639      1.0  0.09288  0.98314  0.41261  1.0000
  N   N42       1.0  0.13102  0.73280  0.06502  1.0000
  H   H733      1.0  0.20571  0.89011  0.25560  1.0000
  H   H734      1.0  0.19613  0.88465  0.27898  1.0000
  H   H735      1.0  0.21531  0.89439  0.27146  1.0000
  C   C640      1.0  0.24907  0.75051  0.37919  1.0000
  C   C641      1.0  0.03116  0.86698  0.44921  1.0000
  Fe  Fe95      1.0  0.05899  0.67554  0.02689  1.0000
  C   C642      1.0  0.21071  0.85488  0.26661  1.0000
  H   H736      1.0  0.24540  0.88484  0.27049  1.0000
  S   S185      1.0  0.14361  0.99007  0.42502  1.0000
  H   H737      1.0  0.09241  0.96895  0.41912  1.0000
  H   H738      1.0  0.11485  0.67282  0.10574  1.0000
  H   H739      1.0  0.08004  0.99165  0.41801  1.0000
  C   C643      1.0  0.11376  0.97494  0.38644  1.0000
  S   S186      1.0  0.12260  0.97923  0.30727  1.0000
  H   H740      1.0  0.14354  0.68604  0.24772  1.0000
  H   H741      1.0  0.02228  0.87566  0.45836  1.0000
  H   H742      1.0  0.12478  0.72135  0.09330  1.0000
  N   N43       1.0  0.14720  0.85576  0.44787  1.0000
  C   C644      1.0  0.16278  0.86028  0.43375  1.0000
  C   C645      1.0  0.15404  0.83961  0.46065  1.0000
  C   C646      1.0  0.13494  0.85132  0.43939  1.0000
  C   C647      1.0  0.13735  0.87039  0.45728  1.0000
  C   C648      1.0  0.12329  0.86751  0.47236  1.0000
  C   C649      1.0  0.14083  0.88791  0.45152  1.0000
  C   C650      1.0  0.16217  0.99090  0.27011  1.0000
  C   C651      1.0  0.13105  0.90147  0.46058  1.0000
  S   S187      1.0  0.21577  0.67642  0.10913  1.0000
  H   H743      1.0  0.17255  0.86392  0.43917  1.0000
  H   H744      1.0  0.17020  0.84896  0.42711  1.0000
  H   H745      1.0  0.15875  0.87140  0.42279  1.0000
  H   H746      1.0  0.16231  0.84277  0.46821  1.0000
  H   H747      1.0  0.16249  0.82880  0.45371  1.0000
  H   H748      1.0  0.14317  0.83372  0.47041  1.0000
  H   H749      1.0  0.12905  0.86330  0.43014  1.0000
  H   H750      1.0  0.14203  0.84092  0.43149  1.0000
  H   H751      1.0  0.12370  0.84617  0.44932  1.0000
  H   H752      1.0  0.11924  0.85482  0.47705  1.0000
  H   H753      1.0  0.15080  0.89160  0.43986  1.0000
  H   H754      1.0  0.09595  0.93481  0.31207  1.0000
  C   C652      1.0  0.22358  0.72601  0.14117  1.0000
  H   H755      1.0  0.11637  0.72847  0.04791  1.0000
  H   H756      1.0  0.11379  0.96038  0.39050  1.0000
  C   C653      1.0  0.10077  0.92445  0.30436  1.0000
  N   N44       1.0  0.19106  0.78595  0.35991  1.0000
  H   H757      1.0  0.13067  0.96936  0.27144  1.0000
  C   C654      1.0  0.22343  0.92775  0.28600  1.0000
  H   H758      1.0  0.22425  0.93395  0.36353  1.0000
  H   H759      1.0  0.20492  0.91114  0.34179  1.0000
  C   C655      1.0  0.14591  0.70021  0.07012  1.0000
  Fe  Fe96      1.0  0.23084  0.68241  0.08084  1.0000
  H   H760      1.0  0.08707  0.73107  0.26917  1.0000
  S   S188      1.0  0.03456  0.67364  0.01821  1.0000
  H   H761      1.0  0.20645  0.96068  0.48594  1.0000
  S   S189      1.0  0.21469  0.94016  0.40328  1.0000
  H   H762      1.0  0.04896  0.90102  0.40091  1.0000
  H   H763      1.0  0.21064  0.85891  0.29844  1.0000
  H   H764      1.0  0.13464  0.69715  0.08058  1.0000
  C   C656      1.0  0.22762  0.76922  0.39806  1.0000
  H   H765      1.0  0.14833  0.99313  0.36888  1.0000
  H   H766      1.0  0.09675  0.67731  0.08321  1.0000
  C   C657      1.0  0.17795  0.68353  0.17562  1.0000
  H   H767      1.0  0.12181  0.76138  0.05763  1.0000
  H   H768      1.0  0.09122  0.85477  0.30680  1.0000
  C   C658      1.0  0.09916  0.90687  0.31255  1.0000
  H   H769      1.0  0.06005  0.85801  0.42427  1.0000
  C   C659      1.0  0.12813  0.73368  0.08397  1.0000
  H   H770      1.0  0.14027  0.73573  0.08684  1.0000
  C   C660      1.0  0.22197  0.92886  0.35279  1.0000
  C   C661      1.0  0.20143  0.92590  0.33723  1.0000
  C   C662      1.0  0.10513  0.89306  0.30271  1.0000
  H   H771      1.0  0.16593  0.78495  0.35525  1.0000
  H   H772      1.0  0.17724  0.80331  0.37832  1.0000
  H   H773      1.0  0.22665  0.97076  0.26187  1.0000
  H   H774      1.0  0.09297  0.90451  0.32655  1.0000
  H   H775      1.0  0.11698  0.74489  0.08759  1.0000
  H   H776      1.0  0.21801  0.74050  0.32831  1.0000
  H   H777      1.0  0.19840  0.95379  0.46439  1.0000
  C   C663      1.0  0.13349  0.75062  0.05405  1.0000
  H   H778      1.0  0.08345  0.96471  0.39381  1.0000
  N   N45       1.0  0.10330  0.87438  0.31080  1.0000
  C   C664      1.0  0.12126  0.86270  0.31093  1.0000
  H   H779      1.0  0.09947  0.87510  0.33855  1.0000
  H   H780      1.0  0.10250  0.86664  0.28687  1.0000
  H   H781      1.0  0.05108  0.66866  0.13393  1.0000
  H   H782      1.0  0.10280  0.74032  0.06493  1.0000
  H   H783      1.0  0.22183  0.71742  0.35570  1.0000
  H   H784      1.0  0.19205  0.95694  0.31902  1.0000
  N   N46       1.0  0.22057  0.86663  0.27010  1.0000
  C   C665      1.0  0.09280  0.87202  0.32945  1.0000
  C   C666      1.0  0.09421  0.86819  0.30024  1.0000
  H   H785      1.0  0.08133  0.87753  0.29842  1.0000
  H   H786      1.0  0.19987  0.81081  0.35177  1.0000
  Fe  Fe97      1.0  0.10238  0.97805  0.33293  1.0000
  H   H787      1.0  0.14526  0.75423  0.05612  1.0000
  H   H788      1.0  0.02291  0.98976  0.35935  1.0000
  H   H789      1.0  0.20505  0.95989  0.36782  1.0000
  C   C667      1.0  0.22644  0.96928  0.46256  1.0000
  C   C668      1.0  0.13632  0.68951  0.23665  1.0000
  H   H790      1.0  0.07911  0.88055  0.33039  1.0000
  C   C669      1.0  0.20731  0.95760  0.45129  1.0000
  H   H791      1.0  0.13519  0.75115  0.03959  1.0000
  H   H792      1.0  0.23164  0.93309  0.34034  1.0000
  C   C670      1.0  0.03574  0.66505  0.99942  1.0000
  C   C671      1.0  0.21866  0.98138  0.25379  1.0000
  C   C672      1.0  0.23683  0.95860  0.43415  1.0000
  H   H793      1.0  0.23202  0.84587  0.28995  1.0000
  H   H794      1.0  0.16376  0.73389  0.03989  1.0000
  C   C673      1.0  0.12879  0.97293  0.25791  1.0000
  C   C674      1.0  0.23789  0.86778  0.25745  1.0000
  H   H795      1.0  0.09116  0.85803  0.33504  1.0000
  C   C675      1.0  0.10942  0.98534  0.23681  1.0000
  C   C676      1.0  0.22501  0.90680  0.39547  1.0000
  C   C677      1.0  0.21536  0.73109  0.35660  1.0000
  C   C678      1.0  0.05165  0.90241  0.41302  1.0000
  H   H796      1.0  0.20132  0.97153  0.44541  1.0000
  H   H797      1.0  0.23003  0.86794  0.29280  1.0000
  H   H798      1.0  0.12855  0.86685  0.31873  1.0000
  H   H799      1.0  0.10331  0.75100  0.27462  1.0000
  H   H800      1.0  0.18066  0.67374  0.13806  1.0000
  C   C679      1.0  0.20933  0.73572  0.37318  1.0000
  C   C680      1.0  0.10076  0.73115  0.26212  1.0000
  N   N47       1.0  0.09608  0.98598  0.39296  1.0000
  C   C681      1.0  0.14633  0.71807  0.06079  1.0000
  H   H801      1.0  0.05096  0.87104  0.40535  1.0000
  C   C682      1.0  0.10918  0.72016  0.24988  1.0000
  C   C683      1.0  0.19940  0.95493  0.34439  1.0000
  N   N48       1.0  0.13555  0.70844  0.22730  1.0000
  H   H802      1.0  0.10985  0.90870  0.48233  1.0000
  C   C684      1.0  0.12490  0.71270  0.21342  1.0000
  H   H803      1.0  0.02224  0.89245  0.40977  1.0000
  C   C685      1.0  0.21551  0.96965  0.47983  1.0000
  H   H804      1.0  0.19357  0.91502  0.37211  1.0000
  H   H805      1.0  0.19800  0.85398  0.27663  1.0000
  H   H806      1.0  0.19406  0.78538  0.38624  1.0000
  C   C686      1.0  0.20516  0.79640  0.35161  1.0000
  S   S190      1.0  0.06165  0.66542  0.05560  1.0000
  H   H807      1.0  0.12044  0.84853  0.31707  1.0000
  C   C687      1.0  0.12702  0.72017  0.24025  1.0000
  C   C688      1.0  0.19098  0.92981  0.36730  1.0000
  H   H808      1.0  0.16965  0.80706  0.35122  1.0000
  H   H809      1.0  0.10155  0.71172  0.24791  1.0000
  H   H810      1.0  0.20628  0.67421  0.17391  1.0000
  S   S191      1.0  0.24757  0.95923  0.19973  1.0000
  H   H811      1.0  0.19239  0.93537  0.37811  1.0000
  H   H812      1.0  0.17680  0.93449  0.36600  1.0000
  S   S192      1.0  0.22893  0.73338  0.40921  1.0000
  C   C689      1.0  0.19386  0.96393  0.32811  1.0000
  H   H813      1.0  0.06099  0.82704  0.48198  1.0000
  C   C690      1.0  0.21323  0.74410  0.34123  1.0000
  H   H814      1.0  0.13652  0.68802  0.02492  1.0000
  C   C691      1.0  0.04146  0.99354  0.29608  1.0000
  S   S193      1.0  0.18724  0.98675  0.41265  1.0000
  C   C692      1.0  0.23687  0.72369  0.15058  1.0000
  C   C693      1.0  0.21577  0.98187  0.48950  1.0000
  H   H815      1.0  0.21123  0.72560  0.38513  1.0000
  C   C694      1.0  0.22347  0.85956  0.28856  1.0000
  H   H816      1.0  0.16010  0.70138  0.20838  1.0000
  C   C695      1.0  0.19884  0.76698  0.35911  1.0000
  H   H817      1.0  0.24573  0.89558  0.18917  1.0000
  C   C696      1.0  0.17584  0.70648  0.04353  1.0000
  Fe  Fe98      1.0  0.09516  0.68553  0.01572  1.0000
  H   H818      1.0  0.21867  0.84098  0.26715  1.0000
  C   C697      1.0  0.19761  0.98436  0.34998  1.0000
  C   C698      1.0  0.23265  0.93788  0.46223  1.0000
  C   C699      1.0  0.06632  0.83897  0.47876  1.0000
  C   C700      1.0  0.08227  0.97936  0.38863  1.0000
  C   C701      1.0  0.16112  0.67986  0.18399  1.0000
  C   C702      1.0  0.07985  0.86985  0.47053  1.0000
  H   H819      1.0  0.16640  0.97716  0.26742  1.0000
  S   S194      1.0  0.23621  0.70996  0.07104  1.0000
  H   H820      1.0  0.20414  0.77146  0.33006  1.0000
  C   C703      1.0  0.17639  0.79307  0.35001  1.0000
  C   C704      1.0  0.22687  0.99000  0.23718  1.0000
  C   C705      1.0  0.05029  0.89412  0.44482  1.0000
  C   C706      1.0  0.20516  0.76180  0.34240  1.0000
  H   H821      1.0  0.21093  0.79540  0.33751  1.0000
  H   H822      1.0  0.08496  0.88189  0.46719  1.0000
  C   C707      1.0  0.19319  0.67142  0.18025  1.0000
  H   H823      1.0  0.02394  0.85660  0.44962  1.0000
  H   H824      1.0  0.03795  0.99141  0.31087  1.0000
  S   S195      1.0  0.24282  0.85056  0.36596  1.0000
  H   H825      1.0  0.19728  0.75598  0.38781  1.0000
  S   S196      1.0  0.24633  0.88678  0.32059  1.0000
  H   H826      1.0  0.18597  0.98925  0.31073  1.0000
  C   C708      1.0  0.06118  0.91537  0.41152  1.0000
  H   H827      1.0  0.18105  0.79358  0.33548  1.0000
  H   H828      1.0  0.07289  0.92760  0.42530  1.0000
  H   H829      1.0  0.12284  0.68647  0.24243  1.0000
  C   C709      1.0  0.24780  0.78239  0.37223  1.0000
  H   H830      1.0  0.06685  0.66744  0.09601  1.0000
  C   C710      1.0  0.23380  0.78428  0.38704  1.0000
  S   S197      1.0  0.24770  0.68737  0.39290  1.0000
  C   C711      1.0  0.22702  0.99392  0.48239  1.0000
  H   H831      1.0  0.18767  0.70897  0.03344  1.0000
  C   C712      1.0  0.01953  0.88597  0.42415  1.0000
  C   C713      1.0  0.24075  0.74263  0.11528  1.0000
  H   H832      1.0  0.01116  0.89640  0.43161  1.0000
  H   H833      1.0  0.11765  0.97828  0.37163  1.0000
  H   H834      1.0  0.04318  0.85965  0.45477  1.0000
  C   C714      1.0  0.14750  0.67658  0.02644  1.0000
  N   N49       1.0  0.03618  0.87743  0.43083  1.0000
  H   H835      1.0  0.12458  0.97661  0.39183  1.0000
  Fe  Fe99      1.0  0.16394  0.99361  0.39947  1.0000
  S   S198      1.0  0.16676  0.99051  0.46294  1.0000
  H   H836      1.0  0.20665  0.94878  0.44281  1.0000
  S   S199      1.0  0.07850  0.98826  0.32053  1.0000
  H   H837      1.0  0.24770  0.78158  0.42003  1.0000
  H   H838      1.0  0.13439  0.75149  0.25850  1.0000
  H   H839      1.0  0.08369  0.98161  0.37396  1.0000
  H   H840      1.0  0.06852  0.98586  0.39453  1.0000
  C   C715      1.0  0.06883  0.86521  0.48722  1.0000
  C   C716      1.0  0.23559  0.75226  0.39440  1.0000
  H   H841      1.0  0.23275  0.92760  0.45501  1.0000
  C   C717      1.0  0.19251  0.99272  0.33385  1.0000
  C   C718      1.0  0.11755  0.89808  0.47551  1.0000
  C   C719      1.0  0.20015  0.98597  0.25979  1.0000
  C   C720      1.0  0.10986  0.74237  0.26524  1.0000
  S   S200      1.0  0.09320  0.98601  0.27139  1.0000
  C   C721      1.0  0.16737  0.67205  0.13759  1.0000
  C   C722      1.0  0.24388  0.85953  0.24250  1.0000
  C   C723      1.0  0.16183  0.67423  0.01202  1.0000
  H   H842      1.0  0.16623  0.99081  0.28247  1.0000
  H   H843      1.0  0.14221  0.99256  0.34007  1.0000
  C   C724      1.0  0.23787  0.98171  0.45573  1.0000
  H   H844      1.0  0.23603  0.85199  0.23946  1.0000
  H   H845      1.0  0.24312  0.75015  0.10175  1.0000
  H   H846      1.0  0.16647  0.99290  0.23399  1.0000
  H   H847      1.0  0.12203  0.98536  0.20927  1.0000
  H   H848      1.0  0.23233  0.97216  0.42620  1.0000
  H   H849      1.0  0.05603  0.98771  0.29254  1.0000
  C   C725      1.0  0.06209  0.84972  0.49135  1.0000
  C   C726      1.0  0.23805  0.99382  0.46557  1.0000
  H   H850      1.0  0.24912  0.91848  0.29331  1.0000
  H   H851      1.0  0.14731  0.99418  0.27336  1.0000
  H   H852      1.0  0.03423  0.98552  0.29209  1.0000
  H   H853      1.0  0.24662  0.98258  0.44273  1.0000
  C   C727      1.0  0.11372  0.88112  0.48142  1.0000
  H   H854      1.0  0.24481  0.92499  0.17193  1.0000
  H   H855      1.0  0.09633  0.99157  0.23397  1.0000
  H   H856      1.0  0.24014  0.86625  0.19327  1.0000
  H   H857      1.0  0.24500  0.75195  0.43928  1.0000
  C   C728      1.0  0.24915  0.87788  0.25965  1.0000
  H   H858      1.0  0.13567  0.66576  0.05348  1.0000
  H   H859      1.0  0.20762  0.66362  0.14668  1.0000
  C   C729      1.0  0.15941  0.66426  0.19693  1.0000
  C   C730      1.0  0.14694  0.66401  0.04245  1.0000
  H   H860      1.0  0.17268  0.66360  0.10372  1.0000
  C   C731      1.0  0.04865  0.92993  0.57307  1.0000
  C   C732      1.0  0.01156  0.81776  0.66132  1.0000
  H   H861      1.0  0.03564  0.71137  0.95626  1.0000
  S   S201      1.0  0.01038  0.75950  0.61583  1.0000
  Fe  Fe100     1.0  0.01183  0.88081  0.55475  1.0000
  S   S202      1.0  0.04023  0.88253  0.55095  1.0000
  C   C733      1.0  0.02772  0.83597  0.63609  1.0000
  Fe  Fe101     1.0  0.02161  0.84322  0.54926  1.0000
  S   S203      1.0  0.05110  0.84107  0.54525  1.0000
  C   C734      1.0  0.11733  0.95820  0.64729  1.0000
  Fe  Fe102     1.0  0.04321  0.85517  0.56807  1.0000
  S   S204      1.0  0.05744  0.84859  0.59049  1.0000
  Fe  Fe103     1.0  0.04560  0.86871  0.52837  1.0000
  H   H862      1.0  0.09042  0.90465  0.56334  1.0000
  S   S205      1.0  0.01433  0.85449  0.57377  1.0000
  S   S206      1.0  0.01667  0.86974  0.53046  1.0000
  H   H863      1.0  0.01423  0.91522  0.57679  1.0000
  C   C735      1.0  0.01717  0.93521  0.54259  1.0000
  Fe  Fe104     1.0  0.02696  0.93466  0.62925  1.0000
  S   S207      1.0  0.05118  0.91236  0.62680  1.0000
  S   S208      1.0  0.02517  0.96101  0.60999  1.0000
  C   C736      1.0  0.05495  0.86660  0.60048  1.0000
  C   C737      1.0  0.04135  0.88190  0.59818  1.0000
  C   C738      1.0  0.03958  0.89589  0.60670  1.0000
  C   C739      1.0  0.05172  0.89474  0.61708  1.0000
  C   C740      1.0  0.06520  0.87943  0.61935  1.0000
  C   C741      1.0  0.06666  0.86533  0.61128  1.0000
  H   H864      1.0  0.03222  0.88292  0.58988  1.0000
  H   H865      1.0  0.02912  0.90768  0.60497  1.0000
  H   H866      1.0  0.07460  0.87843  0.62738  1.0000
  H   H867      1.0  0.07712  0.85352  0.61317  1.0000
  C   C742      1.0  0.00886  0.80443  0.56664  1.0000
  H   H868      1.0  0.01900  0.92076  0.54287  1.0000
  C   C743      1.0  0.02699  0.84758  0.64683  1.0000
  C   C744      1.0  0.01628  0.79119  0.64144  1.0000
  C   C745      1.0  0.02439  0.79818  0.57353  1.0000
  C   C746      1.0  0.02543  0.78341  0.58789  1.0000
  H   H869      1.0  0.18810  0.68275  0.98170  1.0000
  H   H870      1.0  0.20690  0.98232  0.50242  1.0000
  H   H871      1.0  0.03564  0.80457  0.56763  1.0000
  H   H872      1.0  0.00742  0.87129  0.61543  1.0000
  C   C747      1.0  0.05355  0.92069  0.54524  1.0000
  H   H873      1.0  0.08127  0.92692  0.65808  1.0000
  C   C748      1.0  0.06532  0.98785  0.66272  1.0000
  C   C749      1.0  0.00484  0.72807  0.94574  1.0000
  H   H874      1.0  0.12639  0.95245  0.65636  1.0000
  H   H875      1.0  0.03314  0.85907  0.64122  1.0000
  H   H876      1.0  0.10167  0.93495  0.61005  1.0000
  H   H877      1.0  0.07556  0.96001  0.60699  1.0000
  C   C750      1.0  0.01066  0.77547  0.59581  1.0000
  S   S209      1.0  0.00699  0.82296  0.54893  1.0000
  H   H878      1.0  0.01774  0.85346  0.67302  1.0000
  C   C751      1.0  0.00975  0.81721  0.61872  1.0000
  H   H879      1.0  0.06000  0.96601  0.62677  1.0000
  H   H880      1.0  0.04516  0.97472  0.66147  1.0000
  H   H881      1.0  0.06954  0.97793  0.67390  1.0000
  H   H882      1.0  0.01216  0.93390  0.58645  1.0000
  H   H883      1.0  0.12463  0.98377  0.64005  1.0000
  H   H884      1.0  0.02177  0.96050  0.56863  1.0000
  H   H885      1.0  0.01830  0.78185  0.63253  1.0000
  H   H886      1.0  0.04961  0.91983  0.53358  1.0000
  N   N50       1.0  0.02164  0.80825  0.63143  1.0000
  H   H887      1.0  0.01023  0.69895  0.89571  1.0000
  H   H888      1.0  0.04448  0.81518  0.61091  1.0000
  C   C752      1.0  0.07245  0.93684  0.64972  1.0000
  H   H889      1.0  0.06264  0.92966  0.64864  1.0000
  C   C753      1.0  0.02375  0.70540  0.96294  1.0000
  H   H890      1.0  0.00566  0.96409  0.55561  1.0000
  H   H891      1.0  0.05356  0.84602  0.50420  1.0000
  H   H892      1.0  0.03410  0.83923  0.62225  1.0000
  C   C754      1.0  0.04024  0.80367  0.62118  1.0000
  N   N51       1.0  0.08244  0.94455  0.63194  1.0000
  C   C755      1.0  0.18924  0.66863  0.98121  1.0000
  H   H893      1.0  0.06048  0.94619  0.62006  1.0000
  H   H894      1.0  0.06492  0.94745  0.65722  1.0000
  H   H895      1.0  0.02465  0.94166  0.52962  1.0000
  C   C756      1.0  0.14000  0.67758  0.96809  1.0000
  C   C757      1.0  0.07711  0.91191  0.56180  1.0000
  C   C758      1.0  0.01048  0.82969  0.67186  1.0000
  H   H896      1.0  0.07077  0.92093  0.58634  1.0000
  H   H897      1.0  0.02423  0.78413  0.65179  1.0000
  H   H898      1.0  0.03744  0.77844  0.59313  1.0000
  H   H899      1.0  0.10334  0.92072  0.63146  1.0000
  H   H900      1.0  0.08437  0.98048  0.61576  1.0000
  H   H901      1.0  0.04187  0.79318  0.61366  1.0000
  H   H902      1.0  0.00271  0.94101  0.54291  1.0000
  C   C759      1.0  0.09376  0.92974  0.62336  1.0000
  C   C760      1.0  0.11648  0.97581  0.63800  1.0000
  H   H903      1.0  0.01711  0.71117  0.97496  1.0000
  S   S210      1.0  0.02046  0.94655  0.65340  1.0000
  H   H904      1.0  0.08558  0.92126  0.62145  1.0000
  H   H905      1.0  0.05816  0.67468  0.91526  1.0000
  C   C761      1.0  0.01103  0.93005  0.57445  1.0000
  H   H906      1.0  0.04047  0.93655  0.58361  1.0000
  C   C762      1.0  0.09394  0.95553  0.63386  1.0000
  N   N52       1.0  0.02276  0.93786  0.55792  1.0000
  H   H907      1.0  0.02875  0.96362  0.54480  1.0000
  C   C763      1.0  0.01967  0.95734  0.55664  1.0000
  H   H908      1.0  0.13808  0.69015  0.95860  1.0000
  H   H909      1.0  0.07951  0.90456  0.53705  1.0000
  C   C764      1.0  0.09351  0.97353  0.62446  1.0000
  C   C765      1.0  0.07094  0.91187  0.54701  1.0000
  C   C766      1.0  0.99948  0.88798  0.64475  1.0000
  Fe  Fe105     1.0  0.01686  0.97307  0.63429  1.0000
  C   C767      1.0  0.02045  0.82044  0.64308  1.0000
  C   C768      1.0  0.06605  0.92110  0.57470  1.0000
  C   C769      1.0  0.05169  0.98586  0.65556  1.0000
  H   H910      1.0  0.10767  0.93446  0.65255  1.0000
  C   C770      1.0  0.10639  0.94811  0.64516  1.0000
  C   C771      1.0  0.10474  0.98339  0.62649  1.0000
  C   C772      1.0  0.00241  0.89112  0.66010  1.0000
  C   C773      1.0  0.06910  0.95473  0.62094  1.0000
  C   C774      1.0  0.04168  0.92957  0.55855  1.0000
  H   H911      1.0  0.00510  0.80665  0.66775  1.0000
  H   H912      1.0  0.00997  0.80837  0.60987  1.0000
  C   C775      1.0  0.03514  0.68635  0.90365  1.0000
  H   H913      1.0  0.01383  0.89652  0.65934  1.0000
  S   S211      1.0  0.06341  0.87909  0.50257  1.0000
  H   H914      1.0  0.04989  0.79865  0.63016  1.0000
  C   C776      1.0  0.01839  0.84442  0.66471  1.0000
  C   C777      1.0  0.02002  0.70117  0.93447  1.0000
  H   H915      1.0  0.00183  0.79328  0.64783  1.0000
  H   H916      1.0  0.01581  0.73476  0.93726  1.0000
  C   C778      1.0  0.13060  0.67638  0.98576  1.0000
  C   C779      1.0  0.01037  0.70398  0.92096  1.0000
  H   H917      1.0  0.02840  0.69093  0.96812  1.0000
  S   S212      1.0  0.11581  0.69520  0.99255  1.0000
  H   H918      1.0  0.00919  0.89100  0.63267  1.0000
  N   N53       1.0  0.01150  0.70850  0.95071  1.0000
  C   C780      1.0  0.01792  0.69678  0.90575  1.0000
  H   H919      1.0  0.20074  0.66560  0.97010  1.0000
  H   H920      1.0  0.00343  0.82745  0.68569  1.0000
  C   C781      1.0  0.03766  0.69062  0.93179  1.0000
  H   H921      1.0  0.01375  0.82954  0.60993  1.0000
  H   H922      1.0  0.00066  0.68520  0.96387  1.0000
  H   H923      1.0  0.04591  0.68723  0.94148  1.0000
  H   H924      1.0  0.06348  0.66527  0.98806  1.0000
  H   H925      1.0  0.17714  0.66759  0.97740  1.0000
  C   C782      1.0  0.04498  0.68330  0.91662  1.0000
  H   H926      1.0  0.04072  0.68034  0.89211  1.0000
  H   H927      1.0  0.40916  0.11242  0.99451  1.0000
  H   H928      1.0  0.37909  0.07541  0.04862  1.0000
  S   S213      1.0  0.37738  0.03703  0.01677  1.0000
  H   H929      1.0  0.38978  0.99985  0.02856  1.0000
  C   C783      1.0  0.42985  0.06864  0.05057  1.0000
  S   S214      1.0  0.37803  0.11574  0.02327  1.0000
  Fe  Fe106     1.0  0.37637  0.10118  0.00356  1.0000
  C   C784      1.0  0.28035  0.17417  0.48829  1.0000
  C   C785      1.0  0.45025  0.03456  0.06046  1.0000
  S   S215      1.0  0.35343  0.08828  0.00738  1.0000
  C   C786      1.0  0.29425  0.19903  0.48242  1.0000
  C   C787      1.0  0.42773  0.02246  0.00902  1.0000
  C   C788      1.0  0.45776  0.07160  0.00453  1.0000
  H   H930      1.0  0.29632  0.20994  0.48744  1.0000
  H   H931      1.0  0.49122  0.01630  0.14211  1.0000
  C   C789      1.0  0.38000  0.01913  0.00672  1.0000
  H   H932      1.0  0.45580  0.99995  0.17653  1.0000
  H   H933      1.0  0.46333  0.06304  0.01607  1.0000
  C   C790      1.0  0.44778  0.06640  0.05106  1.0000
  C   C791      1.0  0.39291  0.05001  0.07427  1.0000
  H   H934      1.0  0.38582  0.04605  0.04450  1.0000
  H   H935      1.0  0.41911  0.01292  0.01418  1.0000
  H   H936      1.0  0.45822  0.02131  0.06431  1.0000
  H   H937      1.0  0.48412  0.14334  0.08016  1.0000
  C   C792      1.0  0.40018  0.11686  0.02132  1.0000
  C   C793      1.0  0.40523  0.11934  0.03585  1.0000
  C   C794      1.0  0.38614  0.00188  0.01589  1.0000
  C   C795      1.0  0.44025  0.02250  0.01833  1.0000
  H   H938      1.0  0.39531  0.12139  0.04783  1.0000
  H   H939      1.0  0.47186  0.04767  0.05637  1.0000
  S   S216      1.0  0.39723  0.07701  0.99847  1.0000
  S   S217      1.0  0.45861  0.11333  0.02000  1.0000
  C   C796      1.0  0.40014  0.04449  0.04459  1.0000
  C   C797      1.0  0.49134  0.12962  0.08535  1.0000
  H   H940      1.0  0.48399  0.04266  0.99713  1.0000
  C   C798      1.0  0.39329  0.07437  0.04888  1.0000
  H   H941      1.0  0.40510  0.03002  0.04943  1.0000
  C   C799      1.0  0.45101  0.03514  0.01203  1.0000
  N   N54       1.0  0.40233  0.05577  0.05566  1.0000
  H   H942      1.0  0.45379  0.07799  0.04752  1.0000
  C   C800      1.0  0.49611  0.00990  0.15417  1.0000
  H   H943      1.0  0.42691  0.02472  0.06412  1.0000
  C   C801      1.0  0.43229  0.03667  0.06019  1.0000
  H   H944      1.0  0.37831  0.05179  0.07527  1.0000
  H   H945      1.0  0.48431  0.12520  0.09934  1.0000
  H   H946      1.0  0.44150  0.01282  0.03065  1.0000
  H   H947      1.0  0.39988  0.07956  0.03494  1.0000
  H   H948      1.0  0.46447  0.08318  0.99999  1.0000
  C   C802      1.0  0.43609  0.11584  0.01975  1.0000
  C   C803      1.0  0.41304  0.11423  0.00583  1.0000
  H   H949      1.0  0.42280  0.08218  0.04662  1.0000
  C   C804      1.0  0.44954  0.04823  0.99609  1.0000
  H   H950      1.0  0.29236  0.16628  0.48078  1.0000
  H   H951      1.0  0.42711  0.12004  0.04661  1.0000
  C   C805      1.0  0.42150  0.05380  0.05518  1.0000
  H   H952      1.0  0.48978  0.12090  0.07728  1.0000
  H   H953      1.0  0.39462  0.05788  0.08313  1.0000
  Fe  Fe107     1.0  0.37448  0.06480  0.99985  1.0000
  H   H954      1.0  0.39793  0.03566  0.07980  1.0000
  H   H955      1.0  0.46043  0.03462  0.01984  1.0000
  H   H956      1.0  0.40719  0.04824  0.03050  1.0000
  C   C806      1.0  0.42319  0.11858  0.03516  1.0000
  H   H957      1.0  0.28622  0.20570  0.47204  1.0000
  H   H958      1.0  0.39304  0.08364  0.05728  1.0000
  H   H959      1.0  0.44329  0.07685  0.00938  1.0000
  H   H960      1.0  0.35881  0.01019  0.04746  1.0000
  H   H961      1.0  0.46614  0.00702  0.14379  1.0000
  C   C807      1.0  0.43096  0.11403  0.00494  1.0000
  C   C808      1.0  0.45797  0.04939  0.05597  1.0000
  H   H962      1.0  0.30755  0.19220  0.47578  1.0000
  H   H963      1.0  0.27159  0.18175  0.47875  1.0000
  C   C809      1.0  0.35683  0.99693  0.05451  1.0000
  S   S218      1.0  0.42194  0.08766  0.94990  1.0000
  Fe  Fe108     1.0  0.32541  0.18262  0.88026  1.0000
  S   S219      1.0  0.34924  0.16567  0.89148  1.0000
  Fe  Fe109     1.0  0.31608  0.21029  0.84769  1.0000
  S   S220      1.0  0.28694  0.21644  0.85967  1.0000
  S   S221      1.0  0.32776  0.22578  0.82141  1.0000
  S   S222      1.0  0.32482  0.21188  0.87163  1.0000
  S   S223      1.0  0.31958  0.18055  0.85489  1.0000
  Fe  Fe110     1.0  0.45605  0.04060  0.87752  1.0000
  S   S224      1.0  0.45166  0.06981  0.86543  1.0000
  S   S225      1.0  0.43678  0.03139  0.90233  1.0000
  Fe  Fe111     1.0  0.48982  0.03176  0.85069  1.0000
  S   S226      1.0  0.48853  0.06040  0.83654  1.0000
  Fe  Fe112     1.0  0.48081  0.06626  0.86405  1.0000
  C   C810      1.0  0.46937  0.01256  0.97086  1.0000
  Fe  Fe113     1.0  0.45934  0.06151  0.83920  1.0000
  S   S227      1.0  0.44575  0.07871  0.81680  1.0000
  S   S228      1.0  0.48481  0.03741  0.87796  1.0000
  S   S229      1.0  0.46114  0.03240  0.85146  1.0000
  Fe  Fe114     1.0  0.35576  0.09005  0.79440  1.0000
  S   S230      1.0  0.35567  0.11232  0.77013  1.0000
  S   S231      1.0  0.37791  0.06563  0.79813  1.0000
  Fe  Fe115     1.0  0.31911  0.10676  0.81309  1.0000
  S   S232      1.0  0.31574  0.13047  0.79064  1.0000
  S   S233      1.0  0.29853  0.10278  0.83829  1.0000
  Fe  Fe116     1.0  0.32711  0.11050  0.77306  1.0000
  S   S234      1.0  0.31633  0.11393  0.74838  1.0000
  Fe  Fe117     1.0  0.34424  0.13023  0.78979  1.0000
  S   S235      1.0  0.35309  0.15544  0.78797  1.0000
  S   S236      1.0  0.32818  0.08669  0.79574  1.0000
  S   S237      1.0  0.34655  0.10813  0.81375  1.0000
  Fe  Fe118     1.0  0.41708  0.20210  0.83922  1.0000
  S   S238      1.0  0.41750  0.17417  0.85493  1.0000
  S   S239      1.0  0.39628  0.22566  0.84617  1.0000
  Fe  Fe119     1.0  0.45005  0.19200  0.81249  1.0000
  S   S240      1.0  0.45404  0.16326  0.82612  1.0000
  S   S241      1.0  0.46657  0.20244  0.78604  1.0000
  Fe  Fe120     1.0  0.42482  0.16649  0.82860  1.0000
  S   S242      1.0  0.41716  0.14243  0.82567  1.0000
  Fe  Fe121     1.0  0.44660  0.17289  0.85160  1.0000
  S   S243      1.0  0.45868  0.15435  0.87398  1.0000
  S   S244      1.0  0.42118  0.19466  0.81300  1.0000
  S   S245      1.0  0.44573  0.20157  0.83777  1.0000
  C   C811      1.0  0.27558  0.12395  0.86017  1.0000
  H   H964      1.0  0.36364  0.29381  0.67571  1.0000
  C   C812      1.0  0.27808  0.15378  0.85995  1.0000
  H   H965      1.0  0.31553  0.13459  0.53060  1.0000
  S   S246      1.0  0.47150  0.12240  0.96632  1.0000
  C   C813      1.0  0.43697  0.04749  0.98665  1.0000
  Fe  Fe122     1.0  0.48657  0.14454  0.95793  1.0000
  S   S247      1.0  0.47813  0.17063  0.93928  1.0000
  H   H966      1.0  0.31290  0.20977  0.91116  1.0000
  H   H967      1.0  0.36431  0.06216  0.84181  1.0000
  H   H968      1.0  0.49437  0.10446  0.79110  1.0000
  N   N55       1.0  0.31214  0.19723  0.93881  1.0000
  C   C814      1.0  0.32194  0.20114  0.92006  1.0000
  H   H969      1.0  0.34360  0.03447  0.78046  1.0000
  S   S248      1.0  0.26713  0.14065  0.60213  1.0000
  H   H970      1.0  0.47421  0.01359  0.98198  1.0000
  C   C815      1.0  0.26233  0.12960  0.63831  1.0000
  S   S249      1.0  0.27806  0.21726  0.54593  1.0000
  H   H971      1.0  0.31633  0.15524  0.91261  1.0000
  S   S250      1.0  0.33821  0.33004  0.55652  1.0000
  H   H972      1.0  0.34154  0.19376  0.61279  1.0000
  C   C816      1.0  0.45642  0.07550  0.97405  1.0000
  S   S251      1.0  0.27001  0.16882  0.55406  1.0000
  H   H973      1.0  0.30997  0.32817  0.79299  1.0000
  H   H974      1.0  0.27068  0.23643  0.80402  1.0000
  Fe  Fe123     1.0  0.34451  0.26896  0.59655  1.0000
  S   S252      1.0  0.31908  0.26736  0.61672  1.0000
  S   S253      1.0  0.36664  0.24484  0.59450  1.0000
  Fe  Fe124     1.0  0.30568  0.28006  0.59352  1.0000
  S   S254      1.0  0.28257  0.26757  0.59462  1.0000
  Fe  Fe125     1.0  0.31906  0.29512  0.61811  1.0000
  H   H975      1.0  0.31427  0.22242  0.94296  1.0000
  S   S255      1.0  0.33134  0.28017  0.57315  1.0000
  S   S256      1.0  0.34611  0.29538  0.60017  1.0000
  C   C817      1.0  0.27221  0.27207  0.89380  1.0000
  Fe  Fe126     1.0  0.43194  0.20767  0.70414  1.0000
  S   S257      1.0  0.43640  0.23553  0.69825  1.0000
  S   S258      1.0  0.43805  0.18517  0.72714  1.0000
  Fe  Fe127     1.0  0.41264  0.21547  0.67378  1.0000
  S   S259      1.0  0.41493  0.24402  0.66535  1.0000
  S   S260      1.0  0.40160  0.20130  0.65975  1.0000
  Fe  Fe128     1.0  0.44293  0.23363  0.66946  1.0000
  Fe  Fe129     1.0  0.40816  0.24359  0.69463  1.0000
  S   S261      1.0  0.38886  0.26538  0.70689  1.0000
  S   S262      1.0  0.44124  0.20482  0.67571  1.0000
  S   S263      1.0  0.40305  0.21595  0.70270  1.0000
  H   H976      1.0  0.30186  0.17692  0.93375  1.0000
  S   S264      1.0  0.28334  0.31172  0.85113  1.0000
  Fe  Fe130     1.0  0.29081  0.18675  0.86888  1.0000
  H   H977      1.0  0.35857  0.15522  0.97939  1.0000
  H   H978      1.0  0.31800  0.32019  0.66978  1.0000
  H   H979      1.0  0.45899  0.06947  0.96225  1.0000
  C   C818      1.0  0.38552  0.30114  0.70319  1.0000
  C   C819      1.0  0.39585  0.28557  0.69768  1.0000
  C   C820      1.0  0.41126  0.28638  0.68423  1.0000
  C   C821      1.0  0.41584  0.30288  0.67570  1.0000
  H   H980      1.0  0.43477  0.29265  0.53378  1.0000
  H   H981      1.0  0.37370  0.30052  0.71373  1.0000
  H   H982      1.0  0.41942  0.27436  0.68007  1.0000
  H   H983      1.0  0.42738  0.30353  0.66485  1.0000
  C   C822      1.0  0.37474  0.23317  0.61370  1.0000
  C   C823      1.0  0.38335  0.21528  0.61453  1.0000
  C   C824      1.0  0.39110  0.20565  0.62898  1.0000
  C   C825      1.0  0.39083  0.21397  0.64246  1.0000
  C   C826      1.0  0.38234  0.23197  0.64169  1.0000
  C   C827      1.0  0.37399  0.24153  0.62740  1.0000
  H   H984      1.0  0.38406  0.20883  0.60391  1.0000
  H   H985      1.0  0.39764  0.19175  0.62955  1.0000
  H   H986      1.0  0.38200  0.23839  0.65219  1.0000
  H   H987      1.0  0.36740  0.25541  0.62672  1.0000
  H   H988      1.0  0.32812  0.18864  0.91502  1.0000
  C   C828      1.0  0.27925  0.23127  0.55949  1.0000
  C   C829      1.0  0.26747  0.23216  0.57593  1.0000
  C   C830      1.0  0.26865  0.24339  0.58640  1.0000
  C   C831      1.0  0.28175  0.25375  0.58070  1.0000
  C   C832      1.0  0.29369  0.25276  0.56433  1.0000
  C   C833      1.0  0.29238  0.24164  0.55375  1.0000
  C   C834      1.0  0.29696  0.17656  0.50960  1.0000
  H   H989      1.0  0.31298  0.16163  0.95820  1.0000
  H   H990      1.0  0.30376  0.26076  0.55969  1.0000
  H   H991      1.0  0.30154  0.24112  0.54104  1.0000
  C   C835      1.0  0.30915  0.20101  0.60546  1.0000
  H   H992      1.0  0.29694  0.14903  0.50904  1.0000
  C   C836      1.0  0.29095  0.12234  0.84668  1.0000
  C   C837      1.0  0.26004  0.32447  0.78981  1.0000
  C   C838      1.0  0.31454  0.05423  0.72704  1.0000
  C   C839      1.0  0.43727  0.22716  0.62693  1.0000
  H   H993      1.0  0.35892  0.13152  0.88517  1.0000
  H   H994      1.0  0.43947  0.23742  0.63278  1.0000
  Fe  Fe131     1.0  0.25947  0.19759  0.55635  1.0000
  C   C840      1.0  0.38235  0.31462  0.63358  1.0000
  C   C841      1.0  0.46380  0.11288  0.82848  1.0000
  H   H995      1.0  0.48286  0.04722  0.97404  1.0000
  H   H996      1.0  0.35709  0.28323  0.65157  1.0000
  H   H997      1.0  0.46491  0.08561  0.96992  1.0000
  H   H998      1.0  0.44387  0.21988  0.58538  1.0000
  H   H999      1.0  0.37812  0.14429  0.94608  1.0000
  H   H1000     1.0  0.36977  0.13499  0.84507  1.0000
  C   C842      1.0  0.32710  0.14779  0.91915  1.0000
  H   H1001     1.0  0.30445  0.05438  0.72009  1.0000
  C   C843      1.0  0.36140  0.07421  0.84692  1.0000
  C   C844      1.0  0.45969  0.19716  0.76927  1.0000
  C   C845      1.0  0.45147  0.18265  0.77325  1.0000
  C   C846      1.0  0.44537  0.17877  0.76005  1.0000
  C   C847      1.0  0.44706  0.18965  0.74292  1.0000
  C   C848      1.0  0.45539  0.20410  0.73886  1.0000
  C   C849      1.0  0.46187  0.20774  0.75200  1.0000
  H   H1002     1.0  0.44983  0.17439  0.78653  1.0000
  H   H1003     1.0  0.43904  0.16753  0.76327  1.0000
  H   H1004     1.0  0.45696  0.21238  0.72561  1.0000
  H   H1005     1.0  0.46828  0.21893  0.74890  1.0000
  C   C850      1.0  0.46372  0.15994  0.89171  1.0000
  C   C851      1.0  0.46920  0.14592  0.90529  1.0000
  C   C852      1.0  0.47376  0.14927  0.91967  1.0000
  C   C853      1.0  0.47249  0.16675  0.92090  1.0000
  C   C854      1.0  0.46670  0.18097  0.90744  1.0000
  C   C855      1.0  0.46240  0.17757  0.89275  1.0000
  H   H1006     1.0  0.45272  0.00929  0.93068  1.0000
  H   H1007     1.0  0.35198  0.30499  0.63771  1.0000
  H   H1008     1.0  0.46578  0.19455  0.90828  1.0000
  H   H1009     1.0  0.45827  0.18848  0.88223  1.0000
  C   C856      1.0  0.29980  0.10334  0.74728  1.0000
  C   C857      1.0  0.29070  0.11029  0.73321  1.0000
  C   C858      1.0  0.27817  0.10174  0.73122  1.0000
  C   C859      1.0  0.40527  0.31851  0.68094  1.0000
  C   C860      1.0  0.28422  0.07879  0.75702  1.0000
  C   C861      1.0  0.29631  0.08767  0.75937  1.0000
  H   H1010     1.0  0.29340  0.12234  0.72373  1.0000
  C   C862      1.0  0.33543  0.15704  0.96940  1.0000
  H   H1011     1.0  0.30338  0.08208  0.77012  1.0000
  C   C863      1.0  0.36966  0.15177  0.80016  1.0000
  C   C864      1.0  0.37960  0.13457  0.80507  1.0000
  C   C865      1.0  0.39395  0.13189  0.81319  1.0000
  C   C866      1.0  0.39854  0.14638  0.81635  1.0000
  C   C867      1.0  0.38838  0.16359  0.81189  1.0000
  C   C868      1.0  0.37390  0.16624  0.80386  1.0000
  H   H1012     1.0  0.37665  0.12334  0.80212  1.0000
  H   H1013     1.0  0.40159  0.11856  0.81700  1.0000
  H   H1014     1.0  0.39168  0.17483  0.81456  1.0000
  H   H1015     1.0  0.36606  0.17952  0.80043  1.0000
  H   H1016     1.0  0.45305  0.31512  0.63607  1.0000
  N   N56       1.0  0.25457  0.32773  0.65765  1.0000
  H   H1017     1.0  0.25377  0.31871  0.63468  1.0000
  C   C869      1.0  0.47430  0.28119  0.66432  1.0000
  C   C870      1.0  0.48640  0.10143  0.80491  1.0000
  H   H1018     1.0  0.45241  0.13756  0.80070  1.0000
  H   H1019     1.0  0.40250  0.29240  0.54178  1.0000
  H   H1020     1.0  0.48891  0.05918  0.90186  1.0000
  H   H1021     1.0  0.28399  0.27432  0.83098  1.0000
  H   H1022     1.0  0.25811  0.29354  0.84676  1.0000
  C   C871      1.0  0.42679  0.07459  0.81225  1.0000
  C   C872      1.0  0.41664  0.08833  0.80156  1.0000
  C   C873      1.0  0.40141  0.08577  0.79763  1.0000
  C   C874      1.0  0.39662  0.06917  0.80367  1.0000
  C   C875      1.0  0.40700  0.05522  0.81401  1.0000
  C   C876      1.0  0.42187  0.05801  0.81856  1.0000
  H   H1023     1.0  0.42057  0.10106  0.79641  1.0000
  H   H1024     1.0  0.39354  0.09650  0.78960  1.0000
  H   H1025     1.0  0.40341  0.04231  0.81869  1.0000
  H   H1026     1.0  0.42970  0.04726  0.82666  1.0000
  C   C877      1.0  0.29601  0.27587  0.86077  1.0000
  H   H1027     1.0  0.43364  0.14584  0.93397  1.0000
  H   H1028     1.0  0.40884  0.13085  0.95106  1.0000
  H   H1029     1.0  0.30528  0.27726  0.84802  1.0000
  C   C878      1.0  0.37781  0.22597  0.83812  1.0000
  C   C879      1.0  0.36613  0.24213  0.83319  1.0000
  C   C880      1.0  0.35125  0.24229  0.82684  1.0000
  C   C881      1.0  0.34796  0.22624  0.82574  1.0000
  C   C882      1.0  0.35971  0.21010  0.83059  1.0000
  C   C883      1.0  0.37477  0.20999  0.83654  1.0000
  H   H1030     1.0  0.36846  0.25448  0.83449  1.0000
  H   H1031     1.0  0.34185  0.25469  0.82362  1.0000
  H   H1032     1.0  0.35694  0.19764  0.83011  1.0000
  H   H1033     1.0  0.38369  0.19746  0.84046  1.0000
  S   S265      1.0  0.33241  0.11171  0.96494  1.0000
  C   C884      1.0  0.29357  0.15212  0.84654  1.0000
  C   C885      1.0  0.29996  0.13644  0.83983  1.0000
  Fe  Fe132     1.0  0.25586  0.32908  0.85489  1.0000
  H   H1034     1.0  0.33316  0.07511  0.85528  1.0000
  H   H1035     1.0  0.44083  0.11197  0.99298  1.0000
  H   H1036     1.0  0.30035  0.16309  0.84097  1.0000
  H   H1037     1.0  0.31182  0.13529  0.82934  1.0000
  H   H1038     1.0  0.34121  0.20494  0.94529  1.0000
  C   C886      1.0  0.35373  0.10635  0.85928  1.0000
  C   C887      1.0  0.42747  0.07029  0.93837  1.0000
  C   C888      1.0  0.41638  0.05819  0.94216  1.0000
  C   C889      1.0  0.41921  0.04628  0.93106  1.0000
  C   C890      1.0  0.43363  0.04592  0.91652  1.0000
  C   C891      1.0  0.44554  0.05711  0.91349  1.0000
  C   C892      1.0  0.44256  0.06915  0.92454  1.0000
  H   H1039     1.0  0.40540  0.05818  0.95336  1.0000
  H   H1040     1.0  0.40986  0.03781  0.93340  1.0000
  H   H1041     1.0  0.45700  0.05663  0.90259  1.0000
  H   H1042     1.0  0.45175  0.07783  0.92212  1.0000
  C   C893      1.0  0.35501  0.12726  0.93577  1.0000
  C   C894      1.0  0.35855  0.13949  0.91959  1.0000
  C   C895      1.0  0.34454  0.15005  0.91145  1.0000
  H   H1043     1.0  0.36586  0.11907  0.94192  1.0000
  H   H1044     1.0  0.37214  0.14073  0.91336  1.0000
  H   H1045     1.0  0.27270  0.11804  0.63576  1.0000
  C   C896      1.0  0.49723  0.09981  0.91441  1.0000
  C   C897      1.0  0.32329  0.16773  0.95899  1.0000
  C   C898      1.0  0.43087  0.31963  0.53696  1.0000
  C   C899      1.0  0.30358  0.18625  0.51812  1.0000
  H   H1046     1.0  0.38032  0.31902  0.54976  1.0000
  C   C900      1.0  0.26847  0.19612  0.50633  1.0000
  H   H1047     1.0  0.43532  0.27155  0.64699  1.0000
  C   C901      1.0  0.27498  0.08586  0.74305  1.0000
  C   C902      1.0  0.47974  0.05325  0.98590  1.0000
  C   C903      1.0  0.46118  0.12461  0.79813  1.0000
  C   C904      1.0  0.44312  0.29073  0.62310  1.0000
  H   H1048     1.0  0.46787  0.12631  0.78381  1.0000
  H   H1049     1.0  0.30996  0.13420  0.94147  1.0000
  H   H1050     1.0  0.37532  0.31172  0.66908  1.0000
  H   H1051     1.0  0.40643  0.29530  0.57995  1.0000
  H   H1052     1.0  0.28200  0.06638  0.76607  1.0000
  H   H1053     1.0  0.35151  0.19245  0.75735  1.0000
  H   H1054     1.0  0.31538  0.23524  0.58824  1.0000
  H   H1055     1.0  0.45218  0.11525  0.80031  1.0000
  H   H1056     1.0  0.41487  0.01358  0.96163  1.0000
  H   H1057     1.0  0.49526  0.11346  0.88741  1.0000
  Fe  Fe133     1.0  0.33057  0.30688  0.57852  1.0000
  H   H1058     1.0  0.25912  0.20349  0.49733  1.0000
  H   H1059     1.0  0.39193  0.26933  0.59210  1.0000
  C   C905      1.0  0.45697  0.29503  0.60866  1.0000
  C   C906      1.0  0.31822  0.32411  0.64189  1.0000
  N   N57       1.0  0.39372  0.22880  0.77011  1.0000
  C   C907      1.0  0.38819  0.23304  0.78814  1.0000
  C   C908      1.0  0.41232  0.21816  0.76835  1.0000
  C   C909      1.0  0.39354  0.24582  0.75672  1.0000
  C   C910      1.0  0.38195  0.21889  0.76686  1.0000
  C   C911      1.0  0.38675  0.21166  0.75134  1.0000
  C   C912      1.0  0.36529  0.21666  0.77844  1.0000
  C   C913      1.0  0.37583  0.20236  0.74791  1.0000
  C   C914      1.0  0.35982  0.19999  0.75978  1.0000
  H   H1060     1.0  0.39774  0.23962  0.79068  1.0000
  H   H1061     1.0  0.37497  0.24241  0.78999  1.0000
  H   H1062     1.0  0.41272  0.20435  0.77650  1.0000
  H   H1063     1.0  0.42117  0.22414  0.77274  1.0000
  H   H1064     1.0  0.41878  0.21712  0.75438  1.0000
  H   H1065     1.0  0.37975  0.25412  0.75743  1.0000
  H   H1066     1.0  0.40213  0.25383  0.75868  1.0000
  H   H1067     1.0  0.39846  0.24361  0.74285  1.0000
  H   H1068     1.0  0.39897  0.21326  0.74166  1.0000
  H   H1069     1.0  0.37985  0.19696  0.73597  1.0000
  C   C915      1.0  0.39088  0.28462  0.65114  1.0000
  Fe  Fe134     1.0  0.47687  0.11932  0.99328  1.0000
  H   H1070     1.0  0.40221  0.28927  0.65281  1.0000
  H   H1071     1.0  0.37328  0.00859  0.97058  1.0000
  C   C916      1.0  0.46234  0.26258  0.63357  1.0000
  H   H1072     1.0  0.45545  0.26335  0.59277  1.0000
  C   C917      1.0  0.40133  0.32485  0.60467  1.0000
  C   C918      1.0  0.40696  0.30417  0.54175  1.0000
  N   N58       1.0  0.44384  0.23084  0.60737  1.0000
  C   C919      1.0  0.46343  0.22952  0.60375  1.0000
  C   C920      1.0  0.45701  0.00994  0.94223  1.0000
  C   C921      1.0  0.44090  0.21663  0.60022  1.0000
  C   C922      1.0  0.43393  0.24860  0.59960  1.0000
  H   H1073     1.0  0.42374  0.00703  0.94051  1.0000
  H   H1074     1.0  0.28041  0.24905  0.82189  1.0000
  H   H1075     1.0  0.25931  0.24406  0.59899  1.0000
  H   H1076     1.0  0.47229  0.10463  0.83801  1.0000
  H   H1077     1.0  0.38235  0.32958  0.69930  1.0000
  C   C923      1.0  0.37695  0.00671  0.98320  1.0000
  Fe  Fe135     1.0  0.39601  0.08776  0.96988  1.0000
  C   C924      1.0  0.30166  0.15760  0.51441  1.0000
  C   C925      1.0  0.49116  0.07054  0.90526  1.0000
  H   H1078     1.0  0.36503  0.07209  0.76376  1.0000
  H   H1079     1.0  0.33617  0.21881  0.58616  1.0000
  H   H1080     1.0  0.42699  0.21450  0.60494  1.0000
  C   C926      1.0  0.25125  0.25311  0.83184  1.0000
  H   H1081     1.0  0.44944  0.20341  0.60463  1.0000
  H   H1082     1.0  0.38861  0.07729  0.83912  1.0000
  C   C927      1.0  0.33917  0.19167  0.95189  1.0000
  C   C928      1.0  0.42511  0.30437  0.53724  1.0000
  H   H1083     1.0  0.38682  0.27479  0.66353  1.0000
  H   H1084     1.0  0.40083  0.29759  0.61616  1.0000
  S   S266      1.0  0.37463  0.07380  0.97066  1.0000
  C   C929      1.0  0.32354  0.13570  0.93540  1.0000
  H   H1085     1.0  0.30115  0.18585  0.63246  1.0000
  H   H1086     1.0  0.40859  0.24045  0.60488  1.0000
  H   H1087     1.0  0.33166  0.23443  0.60005  1.0000
  H   H1088     1.0  0.28741  0.16612  0.62396  1.0000
  C   C930      1.0  0.34002  0.09735  0.86062  1.0000
  H   H1089     1.0  0.39596  0.27690  0.64041  1.0000
  H   H1090     1.0  0.30803  0.23346  0.62649  1.0000
  C   C931      1.0  0.49607  0.15824  0.79433  1.0000
  H   H1091     1.0  0.48884  0.25758  0.61734  1.0000
  C   C932      1.0  0.33113  0.20265  0.62083  1.0000
  H   H1092     1.0  0.37534  0.04567  0.73825  1.0000
  H   H1093     1.0  0.36335  0.07698  0.74102  1.0000
  C   C933      1.0  0.44583  0.27456  0.63560  1.0000
  C   C934      1.0  0.49701  0.08376  0.92702  1.0000
  C   C935      1.0  0.39030  0.31760  0.69489  1.0000
  C   C936      1.0  0.44176  0.26384  0.59275  1.0000
  H   H1094     1.0  0.32681  0.11844  0.88640  1.0000
  C   C937      1.0  0.37134  0.09869  0.85120  1.0000
  H   H1095     1.0  0.28005  0.32217  0.66495  1.0000
  N   N59       1.0  0.40695  0.14664  0.75150  1.0000
  C   C938      1.0  0.39842  0.13140  0.76169  1.0000
  C   C939      1.0  0.42655  0.13948  0.74792  1.0000
  C   C940      1.0  0.40297  0.15990  0.76277  1.0000
  C   C941      1.0  0.39986  0.15539  0.73517  1.0000
  C   C942      1.0  0.38114  0.16025  0.73604  1.0000
  C   C943      1.0  0.41107  0.16036  0.71829  1.0000
  C   C944      1.0  0.37416  0.16897  0.72087  1.0000
  C   C945      1.0  0.40392  0.16919  0.70323  1.0000
  C   C946      1.0  0.38554  0.17343  0.70449  1.0000
  H   H1096     1.0  0.39987  0.12182  0.75320  1.0000
  H   H1097     1.0  0.40435  0.12397  0.77343  1.0000
  H   H1098     1.0  0.38399  0.13567  0.76726  1.0000
  H   H1099     1.0  0.43044  0.13011  0.73869  1.0000
  H   H1100     1.0  0.43129  0.13214  0.76037  1.0000
  H   H1101     1.0  0.43416  0.15028  0.74212  1.0000
  H   H1102     1.0  0.38839  0.16526  0.76657  1.0000
  H   H1103     1.0  0.40792  0.15405  0.77535  1.0000
  H   H1104     1.0  0.40920  0.17154  0.75558  1.0000
  H   H1105     1.0  0.37169  0.15773  0.74854  1.0000
  H   H1106     1.0  0.42540  0.15795  0.71639  1.0000
  H   H1107     1.0  0.35982  0.17250  0.72188  1.0000
  H   H1108     1.0  0.41269  0.17304  0.69051  1.0000
  H   H1109     1.0  0.38014  0.18043  0.69275  1.0000
  H   H1110     1.0  0.47977  0.14859  0.78369  1.0000
  H   H1111     1.0  0.49388  0.05669  0.93195  1.0000
  C   C947      1.0  0.27078  0.27154  0.83369  1.0000
  C   C948      1.0  0.39527  0.31106  0.61806  1.0000
  H   H1112     1.0  0.31483  0.02732  0.74169  1.0000
  C   C949      1.0  0.44987  0.00088  0.95953  1.0000
  C   C950      1.0  0.26198  0.11768  0.81242  1.0000
  H   H1113     1.0  0.28773  0.19856  0.93089  1.0000
  H   H1114     1.0  0.26321  0.27064  0.90668  1.0000
  H   H1115     1.0  0.36208  0.18586  0.96380  1.0000
  C   C951      1.0  0.45632  0.27465  0.69409  1.0000
  H   H1116     1.0  0.47889  0.09120  0.80553  1.0000
  H   H1117     1.0  0.25919  0.31056  0.79269  1.0000
  H   H1118     1.0  0.28905  0.18604  0.95298  1.0000
  H   H1119     1.0  0.33800  0.21147  0.62420  1.0000
  C   C952      1.0  0.46966  0.02023  0.93942  1.0000
  H   H1120     1.0  0.44230  0.08297  0.97649  1.0000
  H   H1121     1.0  0.44425  0.21391  0.63350  1.0000
  H   H1122     1.0  0.32945  0.14104  0.88001  1.0000
  H   H1123     1.0  0.47008  0.13231  0.90464  1.0000
  N   N60       1.0  0.47420  0.11773  0.81002  1.0000
  H   H1124     1.0  0.46912  0.23294  0.58921  1.0000
  C   C953      1.0  0.43190  0.28046  0.58572  1.0000
  N   N61       1.0  0.42474  0.11836  0.88795  1.0000
  C   C954      1.0  0.43929  0.11112  0.89795  1.0000
  C   C955      1.0  0.43322  0.12191  0.86872  1.0000
  C   C956      1.0  0.41464  0.13573  0.89247  1.0000
  C   C957      1.0  0.41274  0.10562  0.89280  1.0000
  C   C958      1.0  0.40255  0.10185  0.91042  1.0000
  C   C959      1.0  0.41109  0.09630  0.88053  1.0000
  C   C960      1.0  0.39153  0.08951  0.91548  1.0000
  C   C961      1.0  0.40038  0.08363  0.88587  1.0000
  C   C962      1.0  0.39064  0.08023  0.90330  1.0000
  H   H1125     1.0  0.44735  0.09816  0.89471  1.0000
  H   H1126     1.0  0.44874  0.12025  0.89455  1.0000
  H   H1127     1.0  0.43417  0.10892  0.91262  1.0000
  H   H1128     1.0  0.42305  0.12734  0.86034  1.0000
  H   H1129     1.0  0.44219  0.10964  0.86471  1.0000
  H   H1130     1.0  0.44180  0.13184  0.86537  1.0000
  H   H1131     1.0  0.42330  0.14568  0.88847  1.0000
  H   H1132     1.0  0.40318  0.14132  0.88567  1.0000
  H   H1133     1.0  0.40938  0.13462  0.90699  1.0000
  H   H1134     1.0  0.40345  0.10800  0.92063  1.0000
  H   H1135     1.0  0.41823  0.09825  0.86681  1.0000
  H   H1136     1.0  0.38415  0.08665  0.92913  1.0000
  H   H1137     1.0  0.39990  0.07614  0.87650  1.0000
  H   H1138     1.0  0.38262  0.07016  0.90748  1.0000
  N   N62       1.0  0.39596  0.19177  0.90183  1.0000
  C   C963      1.0  0.41242  0.19715  0.88992  1.0000
  C   C964      1.0  0.38485  0.18960  0.89048  1.0000
  C   C965      1.0  0.38595  0.20652  0.91101  1.0000
  C   C966      1.0  0.39973  0.17515  0.91534  1.0000
  C   C967      1.0  0.38574  0.16647  0.92576  1.0000
  C   C968      1.0  0.41707  0.16742  0.91895  1.0000
  C   C969      1.0  0.38904  0.15071  0.93846  1.0000
  C   C970      1.0  0.42023  0.15159  0.93163  1.0000
  C   C971      1.0  0.40627  0.14319  0.94131  1.0000
  H   H1139     1.0  0.42133  0.18607  0.88371  1.0000
  H   H1140     1.0  0.40937  0.20874  0.87889  1.0000
  H   H1141     1.0  0.42023  0.20138  0.89716  1.0000
  H   H1142     1.0  0.39020  0.17688  0.88576  1.0000
  H   H1143     1.0  0.38405  0.20067  0.87851  1.0000
  H   H1144     1.0  0.37077  0.18953  0.89751  1.0000
  H   H1145     1.0  0.39378  0.20866  0.91967  1.0000
  H   H1146     1.0  0.38288  0.21930  0.90123  1.0000
  H   H1147     1.0  0.37304  0.20375  0.91962  1.0000
  H   H1148     1.0  0.37211  0.17172  0.92414  1.0000
  H   H1149     1.0  0.42848  0.17328  0.91216  1.0000
  C   C972      1.0  0.47333  0.28292  0.60651  1.0000
  C   C973      1.0  0.35448  0.20731  0.77490  1.0000
  H   H1150     1.0  0.31870  0.18536  0.53717  1.0000
  C   C974      1.0  0.28411  0.29092  0.86603  1.0000
  C   C975      1.0  0.32540  0.22587  0.59560  1.0000
  H   H1151     1.0  0.25013  0.10783  0.61750  1.0000
  H   H1152     1.0  0.35245  0.15037  0.85573  1.0000
  H   H1153     1.0  0.32611  0.10243  0.86597  1.0000
  S   S267      1.0  0.46632  0.24215  0.64879  1.0000
  H   H1154     1.0  0.38753  0.22071  0.79874  1.0000
  H   H1155     1.0  0.36027  0.22191  0.79041  1.0000
  H   H1156     1.0  0.48394  0.28592  0.59520  1.0000
  H   H1157     1.0  0.36951  0.28827  0.62904  1.0000
  C   C976      1.0  0.48498  0.13072  0.80894  1.0000
  H   H1158     1.0  0.30422  0.24733  0.86705  1.0000
  H   H1159     1.0  0.26875  0.10514  0.79043  1.0000
  C   C977      1.0  0.36680  0.30534  0.66476  1.0000
  C   C978      1.0  0.45692  0.30529  0.67900  1.0000
  Fe  Fe136     1.0  0.29578  0.21547  0.88436  1.0000
  H   H1160     1.0  0.29680  0.21530  0.63498  1.0000
  C   C979      1.0  0.29543  0.25888  0.87160  1.0000
  C   C980      1.0  0.25415  0.13123  0.65589  1.0000
  C   C981      1.0  0.31236  0.14905  0.52690  1.0000
  N   N63       1.0  0.46059  0.06193  0.99011  1.0000
  C   C982      1.0  0.29708  0.18926  0.93921  1.0000
  H   H1161     1.0  0.33053  0.05667  0.78028  1.0000
  H   H1162     1.0  0.31674  0.08124  0.71454  1.0000
  H   H1163     1.0  0.34202  0.20543  0.78419  1.0000
  S   S268      1.0  0.26958  0.17335  0.86833  1.0000
  H   H1164     1.0  0.27489  0.31085  0.64141  1.0000
  C   C983      1.0  0.31422  0.17757  0.53059  1.0000
  C   C984      1.0  0.28351  0.25693  0.88812  1.0000
  H   H1165     1.0  0.43501  0.05670  0.97433  1.0000
  N   N64       1.0  0.47491  0.31337  0.64792  1.0000
  C   C985      1.0  0.32149  0.06936  0.72392  1.0000
  H   H1166     1.0  0.29980  0.19242  0.56924  1.0000
  H   H1167     1.0  0.27122  0.10727  0.72036  1.0000
  H   H1168     1.0  0.36730  0.02798  0.75521  1.0000
  H   H1169     1.0  0.27484  0.32718  0.71425  1.0000
  C   C986      1.0  0.34432  0.04878  0.77664  1.0000
  C   C987      1.0  0.33383  0.06962  0.73345  1.0000
  C   C988      1.0  0.32029  0.03906  0.73934  1.0000
  H   H1170     1.0  0.35242  0.05047  0.78533  1.0000
  H   H1171     1.0  0.33813  0.08205  0.73071  1.0000
  H   H1172     1.0  0.27465  0.22153  0.82483  1.0000
  H   H1173     1.0  0.37590  0.11689  0.87356  1.0000
  C   C989      1.0  0.33743  0.12566  0.94392  1.0000
  H   H1174     1.0  0.30010  0.20067  0.51563  1.0000
  H   H1175     1.0  0.31342  0.21253  0.57668  1.0000
  C   C990      1.0  0.41404  0.28242  0.58538  1.0000
  C   C991      1.0  0.26454  0.22783  0.81639  1.0000
  H   H1176     1.0  0.43051  0.30015  0.62496  1.0000
  C   C992      1.0  0.46899  0.29986  0.66374  1.0000
  S   S269      1.0  0.48903  0.14342  0.98571  1.0000
  H   H1177     1.0  0.41621  0.03500  0.98605  1.0000
  C   C993      1.0  0.30138  0.18756  0.61850  1.0000
  C   C994      1.0  0.33959  0.05455  0.74651  1.0000
  C   C995      1.0  0.33276  0.03910  0.74883  1.0000
  H   H1178     1.0  0.34383  0.08250  0.75796  1.0000
  H   H1179     1.0  0.33681  0.02701  0.75820  1.0000
  H   H1180     1.0  0.25670  0.30112  0.65394  1.0000
  C   C996      1.0  0.30836  0.20244  0.58749  1.0000
  C   C997      1.0  0.30048  0.19096  0.58298  1.0000
  H   H1181     1.0  0.32576  0.19419  0.63366  1.0000
  H   H1182     1.0  0.28675  0.16920  0.59250  1.0000
  H   H1183     1.0  0.25837  0.12105  0.66686  1.0000
  C   C998      1.0  0.40588  0.26784  0.59229  1.0000
  N   N65       1.0  0.37588  0.29989  0.64753  1.0000
  S   S270      1.0  0.28246  0.23558  0.90149  1.0000
  C   C999      1.0  0.36309  0.29376  0.64124  1.0000
  C   C1000     1.0  0.32469  0.18551  0.95002  1.0000
  C   C1001     1.0  0.41560  0.25123  0.59943  1.0000
  C   C1002     1.0  0.34930  0.16359  0.97118  1.0000
  N   N66       1.0  0.35207  0.05453  0.75740  1.0000
  C   C1003     1.0  0.36138  0.11966  0.87941  1.0000
  H   H1184     1.0  0.35844  0.10827  0.89060  1.0000
  H   H1185     1.0  0.47203  0.25469  0.67932  1.0000
  C   C1004     1.0  0.29303  0.17791  0.59608  1.0000
  H   H1186     1.0  0.29187  0.23155  0.61552  1.0000
  S   S271      1.0  0.29680  0.18627  0.89499  1.0000
  H   H1187     1.0  0.45132  0.26504  0.70559  1.0000
  H   H1188     1.0  0.27255  0.16477  0.49829  1.0000
  H   H1189     1.0  0.37087  0.03492  0.98304  1.0000
  H   H1190     1.0  0.46685  0.23834  0.61052  1.0000
  C   C1005     1.0  0.29344  0.17622  0.61382  1.0000
  C   C1006     1.0  0.49168  0.08650  0.89253  1.0000
  Fe  Fe137     1.0  0.35592  0.09862  0.97781  1.0000
  C   C1007     1.0  0.35622  0.07230  0.75487  1.0000
  H   H1191     1.0  0.47062  0.21584  0.60906  1.0000
  C   C1008     1.0  0.27230  0.28904  0.88264  1.0000
  H   H1192     1.0  0.26173  0.21669  0.81227  1.0000
  C   C1009     1.0  0.26570  0.32241  0.67119  1.0000
  C   C1010     1.0  0.36914  0.04189  0.75263  1.0000
  H   H1193     1.0  0.37892  0.04166  0.76052  1.0000
  C   C1011     1.0  0.31861  0.15901  0.53498  1.0000
  N   N67       1.0  0.28525  0.18615  0.49683  1.0000
  H   H1194     1.0  0.25990  0.11323  0.76465  1.0000
  C   C1012     1.0  0.26903  0.13972  0.86663  1.0000
  H   H1195     1.0  0.47848  0.13821  0.92970  1.0000
  S   S272      1.0  0.31232  0.30370  0.64432  1.0000
  Fe  Fe138     1.0  0.47888  0.32668  0.58212  1.0000
  C   C1013     1.0  0.47605  0.26681  0.61900  1.0000
  C   C1014     1.0  0.37507  0.08281  0.84528  1.0000
  H   H1196     1.0  0.38238  0.10500  0.84928  1.0000
  C   C1015     1.0  0.33141  0.12879  0.87481  1.0000
  C   C1016     1.0  0.35532  0.13760  0.85119  1.0000
  N   N68       1.0  0.35034  0.12281  0.86608  1.0000
  S   S273      1.0  0.37729  0.11340  0.97475  1.0000
  C   C1017     1.0  0.30285  0.22376  0.62250  1.0000
  H   H1197     1.0  0.27581  0.11562  0.81324  1.0000
  H   H1198     1.0  0.32239  0.13223  0.86528  1.0000
  H   H1199     1.0  0.34789  0.13987  0.84045  1.0000
  H   H1200     1.0  0.43818  0.29190  0.58060  1.0000
  H   H1201     1.0  0.42276  0.22720  0.63074  1.0000
  H   H1202     1.0  0.25704  0.14097  0.87698  1.0000
  N   N69       1.0  0.31705  0.21314  0.61085  1.0000
  C   C1018     1.0  0.49473  0.10110  0.89719  1.0000
  H   H1203     1.0  0.48323  0.29702  0.62829  1.0000
  C   C1019     1.0  0.34391  0.08149  0.85455  1.0000
  S   S274      1.0  0.45377  0.31570  0.59363  1.0000
  H   H1204     1.0  0.49597  0.09526  0.81391  1.0000
  H   H1205     1.0  0.35380  0.31473  0.66399  1.0000
  C   C1020     1.0  0.30423  0.21434  0.94483  1.0000
  H   H1206     1.0  0.29408  0.22305  0.93711  1.0000
  S   S275      1.0  0.30336  0.30807  0.59678  1.0000
  H   H1207     1.0  0.44511  0.31889  0.53324  1.0000
  H   H1208     1.0  0.30347  0.32047  0.72398  1.0000
  H   H1209     1.0  0.32662  0.15231  0.54488  1.0000
  H   H1210     1.0  0.29750  0.21194  0.95918  1.0000
  H   H1211     1.0  0.48569  0.02949  0.95140  1.0000
  C   C1021     1.0  0.46800  0.26886  0.67931  1.0000
  Fe  Fe139     1.0  0.25460  0.16273  0.58215  1.0000
  H   H1212     1.0  0.44128  0.29733  0.70526  1.0000
  C   C1022     1.0  0.25710  0.14290  0.62406  1.0000
  C   C1023     1.0  0.47584  0.02153  0.95370  1.0000
  S   S276      1.0  0.25945  0.07463  0.74090  1.0000
  H   H1213     1.0  0.33408  0.14350  0.97613  1.0000
  C   C1024     1.0  0.48642  0.14578  0.79459  1.0000
  H   H1214     1.0  0.33268  0.20833  0.91829  1.0000
  C   C1025     1.0  0.45079  0.29283  0.69394  1.0000
  C   C1026     1.0  0.45928  0.32388  0.64024  1.0000
  H   H1215     1.0  0.47457  0.02734  0.92605  1.0000
  H   H1216     1.0  0.25643  0.08413  0.78570  1.0000
  H   H1217     1.0  0.28406  0.31822  0.79893  1.0000
  Fe  Fe140     1.0  0.49865  0.10477  0.96056  1.0000
  C   C1027     1.0  0.37568  0.02161  0.99018  1.0000
  H   H1218     1.0  0.25197  0.13059  0.83467  1.0000
  H   H1219     1.0  0.25730  0.22435  0.58049  1.0000
  C   C1028     1.0  0.42052  0.00189  0.95516  1.0000
  C   C1029     1.0  0.35122  0.18086  0.96238  1.0000
  H   H1220     1.0  0.45603  0.12504  0.83350  1.0000
  H   H1221     1.0  0.45404  0.10480  0.82926  1.0000
  H   H1222     1.0  0.26860  0.11306  0.86549  1.0000
  C   C1030     1.0  0.39449  0.31914  0.54627  1.0000
  H   H1223     1.0  0.26484  0.30883  0.67943  1.0000
  H   H1224     1.0  0.27078  0.20603  0.51259  1.0000
  H   H1225     1.0  0.26342  0.30068  0.88699  1.0000
  H   H1226     1.0  0.49431  0.31798  0.65955  1.0000
  H   H1227     1.0  0.48843  0.06307  0.98275  1.0000
  H   H1228     1.0  0.45165  0.31925  0.67930  1.0000
  H   H1229     1.0  0.41151  0.32177  0.59316  1.0000
  S   S277      1.0  0.48895  0.08853  0.87064  1.0000
  C   C1031     1.0  0.45655  0.00239  0.97384  1.0000
  C   C1032     1.0  0.49396  0.06916  0.92236  1.0000
  H   H1230     1.0  0.26138  0.18679  0.51713  1.0000
  C   C1033     1.0  0.26019  0.31412  0.64641  1.0000
  C   C1034     1.0  0.32049  0.32884  0.65674  1.0000
  H   H1231     1.0  0.48313  0.27567  0.65330  1.0000
  C   C1035     1.0  0.26846  0.25703  0.82845  1.0000
  H   H1232     1.0  0.49706  0.20529  0.96583  1.0000
  H   H1233     1.0  0.49217  0.18905  0.95729  1.0000
  C   C1036     1.0  0.48292  0.32560  0.65309  1.0000
  H   H1234     1.0  0.49676  0.18286  0.97911  1.0000
  C   C1037     1.0  0.25627  0.28234  0.84267  1.0000
  C   C1038     1.0  0.27436  0.32911  0.79331  1.0000
  C   C1039     1.0  0.49482  0.12832  0.82221  1.0000
  H   H1235     1.0  0.49501  0.11688  0.83322  1.0000
  H   H1236     1.0  0.25045  0.12686  0.54824  1.0000
  C   C1040     1.0  0.48853  0.30556  0.63368  1.0000
  H   H1237     1.0  0.49291  0.31603  0.62211  1.0000
  H   H1238     1.0  0.24980  0.22041  0.85166  1.0000
  H   H1239     1.0  0.49633  0.17006  0.78369  1.0000
  C   C1041     1.0  0.25774  0.11178  0.79935  1.0000
  C   C1042     1.0  0.42614  0.03490  0.99318  1.0000
  H   H1240     1.0  0.39307  0.56961  0.44339  1.0000
  C   C1043     1.0  0.36741  0.65726  0.31388  1.0000
  C   C1044     1.0  0.40118  0.57302  0.28145  1.0000
  Fe  Fe141     1.0  0.33429  0.61299  0.29231  1.0000
  S   S278      1.0  0.32748  0.59956  0.32097  1.0000
  S   S279      1.0  0.35477  0.63013  0.28407  1.0000
  Fe  Fe142     1.0  0.31070  0.59480  0.28109  1.0000
  S   S280      1.0  0.30286  0.57918  0.30900  1.0000
  S   S281      1.0  0.29984  0.59756  0.25650  1.0000
  Fe  Fe143     1.0  0.29962  0.60508  0.31700  1.0000
  S   S282      1.0  0.27653  0.61446  0.33814  1.0000
  Fe  Fe144     1.0  0.33164  0.57511  0.31038  1.0000
  S   S283      1.0  0.34808  0.55080  0.32504  1.0000
  S   S284      1.0  0.30585  0.62102  0.28918  1.0000
  S   S285      1.0  0.34006  0.58817  0.28168  1.0000
  Fe  Fe145     1.0  0.42776  0.55419  0.36111  1.0000
  S   S286      1.0  0.43149  0.52445  0.36956  1.0000
  S   S287      1.0  0.41151  0.57302  0.34196  1.0000
  Fe  Fe146     1.0  0.45579  0.55570  0.38020  1.0000
  S   S288      1.0  0.46237  0.52603  0.38989  1.0000
  S   S289      1.0  0.46709  0.57618  0.38576  1.0000
  Fe  Fe147     1.0  0.46067  0.52491  0.36255  1.0000
  Fe  Fe148     1.0  0.43270  0.52848  0.39598  1.0000
  S   S290      1.0  0.41801  0.51609  0.42265  1.0000
  S   S291      1.0  0.45685  0.55433  0.35228  1.0000
  S   S292      1.0  0.42627  0.55835  0.38818  1.0000
  C   C1045     1.0  0.29393  0.59259  0.42970  1.0000
  C   C1046     1.0  0.43061  0.64214  0.40176  1.0000
  S   S293      1.0  0.34472  0.57077  0.43249  1.0000
  S   S294      1.0  0.42119  0.63959  0.38510  1.0000
  H   H1241     1.0  0.30796  0.59329  0.42879  1.0000
  H   H1242     1.0  0.33817  0.49984  0.45880  1.0000
  S   S295      1.0  0.48641  0.60661  0.46697  1.0000
  H   H1243     1.0  0.33346  0.62485  0.41656  1.0000
  C   C1047     1.0  0.43840  0.64343  0.31389  1.0000
  C   C1048     1.0  0.25376  0.57692  0.24973  1.0000
  H   H1244     1.0  0.42765  0.53769  0.33242  1.0000
  H   H1245     1.0  0.45025  0.55644  0.31649  1.0000
  H   H1246     1.0  0.41563  0.62394  0.35798  1.0000
  H   H1247     1.0  0.39627  0.58067  0.40509  1.0000
  H   H1248     1.0  0.30328  0.58582  0.35546  1.0000
  C   C1049     1.0  0.47606  0.58104  0.43176  1.0000
  C   C1050     1.0  0.25735  0.63203  0.29217  1.0000
  H   H1249     1.0  0.47059  0.54340  0.41249  1.0000
  H   H1250     1.0  0.45488  0.61982  0.35905  1.0000
  H   H1251     1.0  0.34976  0.58397  0.37910  1.0000
  H   H1252     1.0  0.44127  0.56529  0.45973  1.0000
  H   H1253     1.0  0.34780  0.58961  0.35615  1.0000
  H   H1254     1.0  0.28537  0.60083  0.43939  1.0000
  H   H1255     1.0  0.40146  0.63398  0.43072  1.0000
  H   H1256     1.0  0.37936  0.45293  0.48019  1.0000
  C   C1051     1.0  0.27073  0.63445  0.45043  1.0000
  C   C1052     1.0  0.39187  0.60925  0.39862  1.0000
  H   H1257     1.0  0.44197  0.64021  0.34892  1.0000
  H   H1258     1.0  0.47215  0.59829  0.40652  1.0000
  C   C1053     1.0  0.39632  0.52913  0.42574  1.0000
  C   C1054     1.0  0.38887  0.53847  0.41097  1.0000
  C   C1055     1.0  0.37219  0.55018  0.41332  1.0000
  C   C1056     1.0  0.36344  0.55329  0.43026  1.0000
  C   C1057     1.0  0.37041  0.54324  0.44511  1.0000
  C   C1058     1.0  0.38678  0.53102  0.44286  1.0000
  H   H1259     1.0  0.39595  0.53665  0.39774  1.0000
  H   H1260     1.0  0.36624  0.55715  0.40201  1.0000
  H   H1261     1.0  0.36326  0.54489  0.45835  1.0000
  H   H1262     1.0  0.39224  0.52352  0.45435  1.0000
  C   C1059     1.0  0.28129  0.59001  0.25514  1.0000
  C   C1060     1.0  0.27542  0.57533  0.26725  1.0000
  H   H1263     1.0  0.40261  0.64880  0.44361  1.0000
  C   C1061     1.0  0.26166  0.56886  0.26456  1.0000
  C   C1062     1.0  0.40987  0.52183  0.48579  1.0000
  C   C1063     1.0  0.27303  0.59832  0.24064  1.0000
  H   H1264     1.0  0.28181  0.56865  0.27836  1.0000
  Fe  Fe149     1.0  0.33881  0.57613  0.45994  1.0000
  C   C1064     1.0  0.44388  0.62847  0.42781  1.0000
  H   H1265     1.0  0.27734  0.60977  0.23131  1.0000
  C   C1065     1.0  0.27898  0.63425  0.34215  1.0000
  H   H1266     1.0  0.25408  0.58868  0.30744  1.0000
  H   H1267     1.0  0.25357  0.59813  0.22640  1.0000
  H   H1268     1.0  0.30489  0.61889  0.40288  1.0000
  H   H1269     1.0  0.34629  0.51249  0.42649  1.0000
  H   H1270     1.0  0.26786  0.58440  0.41901  1.0000
  N   N70       1.0  0.44351  0.53727  0.30611  1.0000
  H   H1271     1.0  0.43750  0.61378  0.41197  1.0000
  H   H1272     1.0  0.40644  0.58607  0.43229  1.0000
  C   C1066     1.0  0.36627  0.55638  0.32936  1.0000
  C   C1067     1.0  0.37577  0.54478  0.34196  1.0000
  C   C1068     1.0  0.38995  0.54955  0.34578  1.0000
  C   C1069     1.0  0.39479  0.56582  0.33678  1.0000
  C   C1070     1.0  0.38544  0.57724  0.32405  1.0000
  C   C1071     1.0  0.37119  0.57259  0.32042  1.0000
  H   H1273     1.0  0.37195  0.53224  0.34896  1.0000
  H   H1274     1.0  0.39688  0.54077  0.35586  1.0000
  H   H1275     1.0  0.38918  0.58977  0.31691  1.0000
  H   H1276     1.0  0.36426  0.58146  0.31038  1.0000
  C   C1072     1.0  0.27850  0.62393  0.46469  1.0000
  C   C1073     1.0  0.29985  0.58821  0.39873  1.0000
  H   H1277     1.0  0.40022  0.60999  0.40703  1.0000
  C   C1074     1.0  0.27008  0.61107  0.47728  1.0000
  H   H1278     1.0  0.39002  0.54989  0.28677  1.0000
  C   C1075     1.0  0.41602  0.53298  0.46969  1.0000
  C   C1076     1.0  0.47299  0.58483  0.41445  1.0000
  C   C1077     1.0  0.47086  0.57131  0.40747  1.0000
  H   H1279     1.0  0.28321  0.61559  0.16744  1.0000
  N   N71       1.0  0.37812  0.65500  0.43402  1.0000
  H   H1280     1.0  0.25725  0.65984  0.13129  1.0000
  C   C1078     1.0  0.30635  0.58239  0.36860  1.0000
  H   H1281     1.0  0.27708  0.64465  0.44103  1.0000
  Fe  Fe150     1.0  0.47331  0.58316  0.47513  1.0000
  C   C1079     1.0  0.33891  0.64235  0.31476  1.0000
  C   C1080     1.0  0.35382  0.64122  0.30075  1.0000
  H   H1282     1.0  0.42008  0.60201  0.35350  1.0000
  H   H1283     1.0  0.29517  0.64177  0.31616  1.0000
  C   C1081     1.0  0.47563  0.55005  0.43487  1.0000
  H   H1284     1.0  0.32777  0.63689  0.31505  1.0000
  Fe  Fe151     1.0  0.34427  0.59968  0.48155  1.0000
  C   C1082     1.0  0.27103  0.63899  0.35865  1.0000
  H   H1285     1.0  0.36655  0.63686  0.37030  1.0000
  N   N72       1.0  0.44092  0.61706  0.34032  1.0000
  C   C1083     1.0  0.45061  0.62722  0.34633  1.0000
  C   C1084     1.0  0.42632  0.61204  0.35553  1.0000
  C   C1085     1.0  0.45354  0.60055  0.33620  1.0000
  C   C1086     1.0  0.43366  0.62715  0.32434  1.0000
  C   C1087     1.0  0.42175  0.62055  0.31851  1.0000
  H   H1286     1.0  0.30916  0.64637  0.46205  1.0000
  C   C1088     1.0  0.41426  0.63012  0.30383  1.0000
  C   C1089     1.0  0.37976  0.59204  0.38572  1.0000
  H   H1287     1.0  0.47677  0.53655  0.44270  1.0000
  H   H1288     1.0  0.46299  0.62979  0.33646  1.0000
  H   H1289     1.0  0.32754  0.64659  0.47098  1.0000
  H   H1290     1.0  0.43122  0.60595  0.36814  1.0000
  H   H1291     1.0  0.38422  0.47958  0.48620  1.0000
  H   H1292     1.0  0.46466  0.60366  0.32478  1.0000
  H   H1293     1.0  0.45952  0.59268  0.34784  1.0000
  H   H1294     1.0  0.44682  0.59178  0.33264  1.0000
  H   H1295     1.0  0.41806  0.60796  0.32530  1.0000
  H   H1296     1.0  0.38892  0.63285  0.45333  1.0000
  C   C1090     1.0  0.38986  0.59286  0.39728  1.0000
  C   C1091     1.0  0.35250  0.65816  0.32798  1.0000
  H   H1297     1.0  0.40769  0.47138  0.48335  1.0000
  C   C1092     1.0  0.36631  0.64639  0.42900  1.0000
  H   H1298     1.0  0.29227  0.57865  0.43581  1.0000
  H   H1299     1.0  0.41993  0.54783  0.43276  1.0000
  H   H1300     1.0  0.48028  0.64736  0.46567  1.0000
  H   H1301     1.0  0.44447  0.51548  0.29420  1.0000
  C   C1093     1.0  0.41240  0.55183  0.46792  1.0000
  S   S296      1.0  0.44583  0.59959  0.47464  1.0000
  C   C1094     1.0  0.25945  0.59177  0.23786  1.0000
  S   S297      1.0  0.45151  0.64782  0.44801  1.0000
  H   H1302     1.0  0.43893  0.57449  0.29219  1.0000
  H   H1303     1.0  0.45901  0.53031  0.28140  1.0000
  C   C1095     1.0  0.47749  0.56362  0.44193  1.0000
  H   H1304     1.0  0.42326  0.52652  0.45874  1.0000
  H   H1305     1.0  0.37979  0.57894  0.38440  1.0000
  C   C1096     1.0  0.36488  0.48520  0.46058  1.0000
  C   C1097     1.0  0.26981  0.59839  0.41483  1.0000
  H   H1306     1.0  0.47755  0.59158  0.43714  1.0000
  H   H1307     1.0  0.25919  0.62013  0.12152  1.0000
  H   H1308     1.0  0.43293  0.56460  0.42387  1.0000
  C   C1098     1.0  0.40248  0.57688  0.44516  1.0000
  C   C1099     1.0  0.38319  0.62489  0.38897  1.0000
  Fe  Fe152     1.0  0.45846  0.62303  0.46884  1.0000
  N   N73       1.0  0.39668  0.46983  0.46191  1.0000
  C   C1100     1.0  0.41505  0.46689  0.45080  1.0000
  H   H1309     1.0  0.31738  0.56887  0.41548  1.0000
  C   C1101     1.0  0.39234  0.45205  0.47043  1.0000
  C   C1102     1.0  0.38300  0.48090  0.45172  1.0000
  C   C1103     1.0  0.38711  0.48806  0.43309  1.0000
  H   H1310     1.0  0.28279  0.62613  0.41520  1.0000
  C   C1104     1.0  0.37392  0.49917  0.42414  1.0000
  C   C1105     1.0  0.37037  0.60779  0.37599  1.0000
  C   C1106     1.0  0.35637  0.50353  0.43339  1.0000
  H   H1311     1.0  0.41944  0.47974  0.44451  1.0000
  H   H1312     1.0  0.42498  0.45849  0.45884  1.0000
  H   H1313     1.0  0.41599  0.45983  0.44014  1.0000
  H   H1314     1.0  0.36072  0.48005  0.47466  1.0000
  H   H1315     1.0  0.36897  0.57981  0.36146  1.0000
  H   H1316     1.0  0.27099  0.59806  0.29052  1.0000
  H   H1317     1.0  0.49268  0.53973  0.33750  1.0000
  H   H1318     1.0  0.40051  0.48574  0.42515  1.0000
  H   H1319     1.0  0.44746  0.64952  0.31706  1.0000
  H   H1320     1.0  0.37747  0.50484  0.41003  1.0000
  H   H1321     1.0  0.39147  0.44516  0.46032  1.0000
  H   H1322     1.0  0.43582  0.58294  0.44131  1.0000
  N   N74       1.0  0.29302  0.56011  0.20626  1.0000
  C   C1107     1.0  0.27451  0.55856  0.20735  1.0000
  C   C1108     1.0  0.30546  0.54945  0.19358  1.0000
  C   C1109     1.0  0.29718  0.55217  0.22420  1.0000
  C   C1110     1.0  0.29481  0.57896  0.19975  1.0000
  C   C1111     1.0  0.30427  0.58689  0.20732  1.0000
  C   C1112     1.0  0.28768  0.58978  0.18488  1.0000
  C   C1113     1.0  0.30582  0.60469  0.20080  1.0000
  C   C1114     1.0  0.28922  0.60758  0.17854  1.0000
  C   C1115     1.0  0.29822  0.61505  0.18651  1.0000
  H   H1323     1.0  0.27155  0.56028  0.19406  1.0000
  H   H1324     1.0  0.27171  0.54530  0.21496  1.0000
  H   H1325     1.0  0.26454  0.56875  0.21410  1.0000
  H   H1326     1.0  0.30257  0.55437  0.17997  1.0000
  C   C1116     1.0  0.29153  0.66075  0.33228  1.0000
  H   H1327     1.0  0.31953  0.55019  0.19241  1.0000
  H   H1328     1.0  0.28898  0.56041  0.23400  1.0000
  H   H1329     1.0  0.29436  0.53853  0.22952  1.0000
  H   H1330     1.0  0.31151  0.55073  0.22408  1.0000
  H   H1331     1.0  0.31020  0.57982  0.21864  1.0000
  H   H1332     1.0  0.28071  0.58466  0.17804  1.0000
  H   H1333     1.0  0.31266  0.61054  0.20718  1.0000
  H   H1334     1.0  0.41255  0.50754  0.48687  1.0000
  H   H1335     1.0  0.26401  0.63252  0.30267  1.0000
  H   H1336     1.0  0.46710  0.53649  0.31523  1.0000
  H   H1337     1.0  0.42268  0.58350  0.46321  1.0000
  H   H1338     1.0  0.46417  0.55256  0.29519  1.0000
  H   H1339     1.0  0.41254  0.65401  0.28319  1.0000
  C   C1117     1.0  0.43738  0.62688  0.41365  1.0000
  H   H1340     1.0  0.39893  0.49258  0.47018  1.0000
  H   H1341     1.0  0.26124  0.60570  0.42532  1.0000
  S   S298      1.0  0.48106  0.55863  0.46365  1.0000
  S   S299      1.0  0.32117  0.56189  0.48309  1.0000
  C   C1118     1.0  0.43073  0.65900  0.40390  1.0000
  C   C1119     1.0  0.31379  0.57322  0.40261  1.0000
  C   C1120     1.0  0.47209  0.55394  0.41777  1.0000
  C   C1121     1.0  0.29653  0.59252  0.38127  1.0000
  H   H1342     1.0  0.40489  0.62498  0.29989  1.0000
  H   H1343     1.0  0.32736  0.55989  0.36292  1.0000
  C   C1122     1.0  0.45325  0.52380  0.29520  1.0000
  H   H1344     1.0  0.39027  0.58197  0.27570  1.0000
  H   H1345     1.0  0.29065  0.62623  0.46628  1.0000
  S   S300      1.0  0.32497  0.60352  0.46424  1.0000
  C   C1123     1.0  0.36793  0.64898  0.30013  1.0000
  H   H1346     1.0  0.44911  0.61663  0.43683  1.0000
  C   C1124     1.0  0.42831  0.55503  0.43625  1.0000
  C   C1125     1.0  0.35183  0.49646  0.45157  1.0000
  H   H1347     1.0  0.39491  0.58543  0.45487  1.0000
  C   C1126     1.0  0.35638  0.58939  0.36525  1.0000
  H   H1348     1.0  0.34248  0.63366  0.36417  1.0000
  C   C1127     1.0  0.34253  0.63080  0.41997  1.0000
  H   H1349     1.0  0.36160  0.61331  0.33516  1.0000
  C   C1128     1.0  0.42996  0.57442  0.45395  1.0000
  C   C1129     1.0  0.39341  0.64205  0.44071  1.0000
  C   C1130     1.0  0.43570  0.52791  0.32412  1.0000
  H   H1350     1.0  0.30452  0.53515  0.19785  1.0000
  H   H1351     1.0  0.42684  0.51935  0.32384  1.0000
  H   H1352     1.0  0.44623  0.51893  0.33119  1.0000
  C   C1131     1.0  0.35567  0.62003  0.42900  1.0000
  C   C1132     1.0  0.42882  0.56833  0.29110  1.0000
  H   H1353     1.0  0.46445  0.51441  0.30104  1.0000
  H   H1354     1.0  0.26807  0.65768  0.37503  1.0000
  N   N75       1.0  0.41826  0.56419  0.45106  1.0000
  H   H1355     1.0  0.26818  0.63013  0.28018  1.0000
  N   N76       1.0  0.28890  0.59894  0.41202  1.0000
  S   S301      1.0  0.35812  0.62134  0.47998  1.0000
  S   S302      1.0  0.35991  0.57367  0.47481  1.0000
  C   C1133     1.0  0.45680  0.54618  0.30828  1.0000
  H   H1356     1.0  0.25739  0.55732  0.27379  1.0000
  C   C1134     1.0  0.42913  0.54977  0.29761  1.0000
  C   C1135     1.0  0.40109  0.55492  0.28766  1.0000
  H   H1357     1.0  0.44044  0.54530  0.43972  1.0000
  C   C1136     1.0  0.29076  0.61778  0.40540  1.0000
  C   C1137     1.0  0.44380  0.64534  0.43011  1.0000
  C   C1138     1.0  0.27391  0.65429  0.36215  1.0000
  H   H1358     1.0  0.38680  0.63616  0.48175  1.0000
  C   C1139     1.0  0.36730  0.62763  0.43366  1.0000
  H   H1359     1.0  0.26431  0.60483  0.40265  1.0000
  H   H1360     1.0  0.33063  0.65769  0.40864  1.0000
  H   H1361     1.0  0.37678  0.61853  0.44109  1.0000
  C   C1140     1.0  0.26032  0.60049  0.30243  1.0000
  C   C1141     1.0  0.43078  0.65292  0.29927  1.0000
  C   C1142     1.0  0.28918  0.64518  0.32898  1.0000
  H   H1362     1.0  0.37123  0.62712  0.34282  1.0000
  N   N77       1.0  0.35957  0.60738  0.36363  1.0000
  H   H1363     1.0  0.26286  0.63075  0.36880  1.0000
  H   H1364     1.0  0.41412  0.52952  0.30016  1.0000
  H   H1365     1.0  0.38469  0.63755  0.39025  1.0000
  H   H1366     1.0  0.33312  0.61880  0.35828  1.0000
  C   C1143     1.0  0.37263  0.62428  0.37778  1.0000
  H   H1367     1.0  0.32653  0.65187  0.33897  1.0000
  H   H1368     1.0  0.37928  0.64852  0.28904  1.0000
  S   S303      1.0  0.48025  0.50678  0.34583  1.0000
  C   C1144     1.0  0.41488  0.54342  0.29552  1.0000
  C   C1145     1.0  0.48667  0.65080  0.47482  1.0000
  H   H1369     1.0  0.33468  0.61585  0.38108  1.0000
  C   C1146     1.0  0.39690  0.47872  0.47600  1.0000
  H   H1370     1.0  0.38251  0.60468  0.34225  1.0000
  C   C1147     1.0  0.40261  0.55862  0.48328  1.0000
  C   C1148     1.0  0.36906  0.61339  0.34515  1.0000
  C   C1149     1.0  0.34174  0.61941  0.36699  1.0000
  H   H1371     1.0  0.40254  0.44322  0.47797  1.0000
  H   H1372     1.0  0.29929  0.62889  0.18166  1.0000
  H   H1373     1.0  0.28612  0.60365  0.37728  1.0000
  H   H1374     1.0  0.33405  0.55174  0.39310  1.0000
  C   C1150     1.0  0.32355  0.56317  0.38981  1.0000
  C   C1151     1.0  0.31983  0.56773  0.37283  1.0000
  H   H1375     1.0  0.28583  0.62414  0.39289  1.0000
  H   H1376     1.0  0.35677  0.60567  0.43250  1.0000
  C   C1152     1.0  0.34099  0.64922  0.41549  1.0000
  C   C1153     1.0  0.41502  0.57969  0.28313  1.0000
  C   C1154     1.0  0.25398  0.60858  0.47539  1.0000
  H   H1377     1.0  0.41484  0.59385  0.27850  1.0000
  C   C1155     1.0  0.33819  0.65093  0.32822  1.0000
  N   N78       1.0  0.30154  0.65214  0.48833  1.0000
  H   H1378     1.0  0.39934  0.57277  0.48301  1.0000
  H   H1379     1.0  0.26689  0.60080  0.31301  1.0000
  C   C1156     1.0  0.31342  0.65305  0.47035  1.0000
  C   C1157     1.0  0.28268  0.65870  0.48660  1.0000
  C   C1158     1.0  0.41861  0.64639  0.29435  1.0000
  C   C1159     1.0  0.35266  0.65690  0.41995  1.0000
  H   H1380     1.0  0.29695  0.65989  0.11318  1.0000
  H   H1381     1.0  0.27448  0.65752  0.14252  1.0000
  H   H1382     1.0  0.48693  0.63972  0.48678  1.0000
  C   C1160     1.0  0.25486  0.63161  0.44832  1.0000
  Fe  Fe153     1.0  0.30887  0.58921  0.48869  1.0000
  H   H1383     1.0  0.27849  0.65998  0.10405  1.0000
  H   H1384     1.0  0.36148  0.65566  0.46005  1.0000
  H   H1385     1.0  0.25222  0.62755  0.00696  1.0000
  S   S304      1.0  0.40400  0.66249  0.34069  1.0000
  S   S305      1.0  0.25240  0.65129  0.02840  1.0000
  H   H1386     1.0  0.39291  0.66133  0.40718  1.0000
  C   C1161     1.0  0.43729  0.66058  0.41803  1.0000
  C   C1162     1.0  0.38745  0.62318  0.49059  1.0000
  C   C1163     1.0  0.37450  0.61335  0.49283  1.0000
  H   H1387     1.0  0.47763  0.66283  0.47924  1.0000
  H   H1388     1.0  0.30244  0.62408  0.49201  1.0000
  S   S306      1.0  0.25045  0.60763  0.15955  1.0000
  H   H1389     1.0  0.37847  0.66293  0.31354  1.0000
  C   C1164     1.0  0.25208  0.65446  0.49155  1.0000
  H   H1390     1.0  0.49756  0.38531  0.47205  1.0000
  H   H1391     1.0  0.43047  0.49772  0.54430  1.0000
  Fe  Fe154     1.0  0.39864  0.43934  0.55030  1.0000
  S   S307      1.0  0.40173  0.44815  0.52066  1.0000
  S   S308      1.0  0.40188  0.45430  0.56923  1.0000
  Fe  Fe155     1.0  0.38305  0.40730  0.55215  1.0000
  S   S309      1.0  0.38453  0.41341  0.52268  1.0000
  S   S310      1.0  0.37475  0.38395  0.57320  1.0000
  Fe  Fe156     1.0  0.41125  0.41902  0.52046  1.0000
  H   H1392     1.0  0.45615  0.50540  0.54621  1.0000
  Fe  Fe157     1.0  0.37474  0.44199  0.52539  1.0000
  C   C1165     1.0  0.37528  0.33285  0.63443  1.0000
  S   S311      1.0  0.41077  0.41056  0.54983  1.0000
  S   S312      1.0  0.37077  0.43545  0.55500  1.0000
  C   C1166     1.0  0.27562  0.36404  0.62335  1.0000
  C   C1167     1.0  0.46899  0.63970  0.58261  1.0000
  H   H1393     1.0  0.39453  0.52048  0.51268  1.0000
  C   C1168     1.0  0.25699  0.34551  0.64668  1.0000
  H   H1394     1.0  0.34810  0.45699  0.60696  1.0000
  S   S313      1.0  0.45354  0.43820  0.65541  1.0000
  S   S314      1.0  0.47238  0.47697  0.61462  1.0000
  Fe  Fe158     1.0  0.37224  0.40055  0.66194  1.0000
  S   S315      1.0  0.37904  0.38167  0.68696  1.0000
  S   S316      1.0  0.38098  0.42614  0.64660  1.0000
  Fe  Fe159     1.0  0.35214  0.37612  0.65502  1.0000
  C   C1169     1.0  0.30659  0.36041  0.69548  1.0000
  S   S317      1.0  0.33739  0.37528  0.63490  1.0000
  Fe  Fe160     1.0  0.35076  0.37787  0.69280  1.0000
  S   S318      1.0  0.33169  0.37453  0.71950  1.0000
  C   C1170     1.0  0.43957  0.36423  0.59167  1.0000
  S   S319      1.0  0.34335  0.39873  0.66920  1.0000
  S   S320      1.0  0.38036  0.37956  0.64582  1.0000
  C   C1171     1.0  0.45642  0.51363  0.53244  1.0000
  S   S321      1.0  0.48322  0.43560  0.60814  1.0000
  S   S322      1.0  0.35334  0.53897  0.51856  1.0000
  H   H1395     1.0  0.30560  0.35365  0.76698  1.0000
  H   H1396     1.0  0.37522  0.36035  0.62143  1.0000
  H   H1397     1.0  0.48162  0.63846  0.51862  1.0000
  H   H1398     1.0  0.47319  0.33347  0.66246  1.0000
  H   H1399     1.0  0.45494  0.50536  0.52386  1.0000
  C   C1172     1.0  0.28383  0.33637  0.70884  1.0000
  S   S323      1.0  0.25871  0.42873  0.71116  1.0000
  C   C1173     1.0  0.34398  0.51517  0.50498  1.0000
  H   H1400     1.0  0.48827  0.33538  0.64127  1.0000
  S   S324      1.0  0.48472  0.34098  0.55364  1.0000
  S   S325      1.0  0.45444  0.62401  0.49775  1.0000
  H   H1401     1.0  0.26164  0.37441  0.78039  1.0000
  C   C1174     1.0  0.48802  0.63903  0.60164  1.0000
  S   S326      1.0  0.32702  0.58760  0.50658  1.0000
  C   C1175     1.0  0.26169  0.36034  0.78307  1.0000
  C   C1176     1.0  0.30542  0.63343  0.49845  1.0000
  C   C1177     1.0  0.48910  0.61140  0.59361  1.0000
  C   C1178     1.0  0.40013  0.33439  0.54613  1.0000
  C   C1179     1.0  0.35323  0.48300  0.51397  1.0000
  C   C1180     1.0  0.27555  0.34729  0.79012  1.0000
  H   H1402     1.0  0.41173  0.62359  0.49752  1.0000
  H   H1403     1.0  0.36475  0.40058  0.61103  1.0000
  H   H1404     1.0  0.47009  0.51643  0.52736  1.0000
  H   H1405     1.0  0.46794  0.61808  0.62563  1.0000
  C   C1181     1.0  0.42403  0.52709  0.53929  1.0000
  N   N79       1.0  0.48567  0.38628  0.65839  1.0000
  H   H1406     1.0  0.25643  0.38476  0.68723  1.0000
  H   H1407     1.0  0.32629  0.40181  0.57806  1.0000
  H   H1408     1.0  0.29754  0.63187  0.51240  1.0000
  H   H1409     1.0  0.44867  0.33071  0.64992  1.0000
  H   H1410     1.0  0.31590  0.36918  0.69114  1.0000
  C   C1182     1.0  0.48887  0.39616  0.67028  1.0000
  H   H1411     1.0  0.32922  0.43684  0.62678  1.0000
  H   H1412     1.0  0.43511  0.55412  0.51260  1.0000
  C   C1183     1.0  0.44607  0.36734  0.65947  1.0000
  C   C1184     1.0  0.31136  0.39005  0.71882  1.0000
  C   C1185     1.0  0.31116  0.40735  0.70863  1.0000
  C   C1186     1.0  0.29487  0.41932  0.70699  1.0000
  C   C1187     1.0  0.27870  0.41396  0.71530  1.0000
  C   C1188     1.0  0.27886  0.39681  0.72599  1.0000
  C   C1189     1.0  0.29519  0.38489  0.72782  1.0000
  H   H1413     1.0  0.32358  0.41157  0.70205  1.0000
  H   H1414     1.0  0.29482  0.43263  0.69891  1.0000
  H   H1415     1.0  0.26643  0.39267  0.73265  1.0000
  H   H1416     1.0  0.29528  0.37149  0.73567  1.0000
  C   C1190     1.0  0.43349  0.43501  0.65255  1.0000
  C   C1191     1.0  0.42548  0.42156  0.66465  1.0000
  C   C1192     1.0  0.40952  0.41855  0.66279  1.0000
  C   C1193     1.0  0.40108  0.42950  0.64922  1.0000
  C   C1194     1.0  0.40889  0.44322  0.63731  1.0000
  C   C1195     1.0  0.42524  0.44578  0.63875  1.0000
  H   H1417     1.0  0.43158  0.41354  0.67559  1.0000
  H   H1418     1.0  0.40352  0.40808  0.67216  1.0000
  H   H1419     1.0  0.40230  0.45189  0.62691  1.0000
  H   H1420     1.0  0.43121  0.45636  0.62949  1.0000
  H   H1421     1.0  0.31115  0.38637  0.66405  1.0000
  H   H1422     1.0  0.43309  0.37699  0.70057  1.0000
  H   H1423     1.0  0.44421  0.53397  0.55749  1.0000
  C   C1196     1.0  0.35315  0.51754  0.51662  1.0000
  C   C1197     1.0  0.36233  0.50259  0.52695  1.0000
  C   C1198     1.0  0.36246  0.48536  0.52556  1.0000
  H   H1424     1.0  0.39856  0.35339  0.59571  1.0000
  H   H1425     1.0  0.43764  0.55444  0.54220  1.0000
  H   H1426     1.0  0.36936  0.50430  0.53606  1.0000
  H   H1427     1.0  0.36954  0.47394  0.53365  1.0000
  C   C1199     1.0  0.42251  0.45963  0.56725  1.0000
  C   C1200     1.0  0.43653  0.45720  0.55259  1.0000
  C   C1201     1.0  0.45306  0.46098  0.55184  1.0000
  C   C1202     1.0  0.45572  0.46670  0.56598  1.0000
  C   C1203     1.0  0.44164  0.46924  0.58054  1.0000
  C   C1204     1.0  0.42498  0.46610  0.58098  1.0000
  H   H1428     1.0  0.43466  0.45238  0.54188  1.0000
  H   H1429     1.0  0.46394  0.45904  0.54053  1.0000
  H   H1430     1.0  0.44352  0.47389  0.59137  1.0000
  H   H1431     1.0  0.41408  0.46831  0.59222  1.0000
  S   S327      1.0  0.47096  0.58055  0.50426  1.0000
  C   C1205     1.0  0.45073  0.41776  0.52249  1.0000
  C   C1206     1.0  0.46152  0.41382  0.53486  1.0000
  H   H1432     1.0  0.44073  0.43003  0.52145  1.0000
  H   H1433     1.0  0.46001  0.42311  0.54315  1.0000
  C   C1207     1.0  0.34741  0.34563  0.56146  1.0000
  C   C1208     1.0  0.35173  0.36041  0.54818  1.0000
  C   C1209     1.0  0.35966  0.37263  0.55170  1.0000
  C   C1210     1.0  0.36346  0.37000  0.56849  1.0000
  C   C1211     1.0  0.35894  0.35538  0.58175  1.0000
  C   C1212     1.0  0.35095  0.34327  0.57829  1.0000
  H   H1434     1.0  0.34897  0.36236  0.53513  1.0000
  H   H1435     1.0  0.36296  0.38392  0.54138  1.0000
  H   H1436     1.0  0.36147  0.35344  0.59486  1.0000
  H   H1437     1.0  0.26809  0.39361  0.69797  1.0000
  H   H1438     1.0  0.41114  0.55527  0.53683  1.0000
  H   H1439     1.0  0.40929  0.41701  0.61661  1.0000
  H   H1440     1.0  0.31975  0.62879  0.49930  1.0000
  C   C1213     1.0  0.47580  0.38557  0.52617  1.0000
  N   N80       1.0  0.44240  0.53031  0.53228  1.0000
  H   H1441     1.0  0.49059  0.52512  0.68003  1.0000
  C   C1214     1.0  0.30326  0.33766  0.80199  1.0000
  H   H1442     1.0  0.47924  0.64397  0.57074  1.0000
  H   H1443     1.0  0.37477  0.52007  0.55648  1.0000
  C   C1215     1.0  0.43077  0.35554  0.60790  1.0000
  S   S328      1.0  0.47649  0.47114  0.56505  1.0000
  C   C1216     1.0  0.34384  0.49792  0.50380  1.0000
  C   C1217     1.0  0.47337  0.39735  0.53732  1.0000
  H   H1444     1.0  0.41704  0.36469  0.51559  1.0000
  H   H1445     1.0  0.29366  0.36862  0.81062  1.0000
  H   H1446     1.0  0.48007  0.65242  0.60367  1.0000
  C   C1218     1.0  0.49261  0.60678  0.57675  1.0000
  C   C1219     1.0  0.32675  0.35131  0.62320  1.0000
  C   C1220     1.0  0.31121  0.34461  0.70772  1.0000
  C   C1221     1.0  0.49080  0.50106  0.67305  1.0000
  H   H1447     1.0  0.28793  0.36502  0.61348  1.0000
  H   H1448     1.0  0.31183  0.36627  0.77915  1.0000
  C   C1222     1.0  0.26243  0.37932  0.62548  1.0000
  C   C1223     1.0  0.32995  0.35558  0.63784  1.0000
  C   C1224     1.0  0.32374  0.44628  0.57178  1.0000
  Fe  Fe161     1.0  0.38512  0.36046  0.67117  1.0000
  H   H1449     1.0  0.42938  0.34197  0.60968  1.0000
  C   C1225     1.0  0.39626  0.54739  0.49915  1.0000
  H   H1450     1.0  0.46006  0.65225  0.58607  1.0000
  S   S329      1.0  0.35751  0.35497  0.67895  1.0000
  H   H1451     1.0  0.46024  0.54275  0.53876  1.0000
  S   S330      1.0  0.35425  0.46148  0.51140  1.0000
  H   H1452     1.0  0.29968  0.39747  0.68231  1.0000
  C   C1226     1.0  0.39424  0.34256  0.60608  1.0000
  C   C1227     1.0  0.37506  0.59693  0.50493  1.0000
  H   H1453     1.0  0.27886  0.38919  0.65048  1.0000
  H   H1454     1.0  0.32357  0.34189  0.71228  1.0000
  H   H1455     1.0  0.31421  0.43065  0.55948  1.0000
  H   H1456     1.0  0.33496  0.45878  0.58516  1.0000
  H   H1457     1.0  0.31848  0.45887  0.56356  1.0000
  H   H1458     1.0  0.44696  0.36351  0.53483  1.0000
  H   H1459     1.0  0.44041  0.53358  0.50511  1.0000
  C   C1228     1.0  0.38840  0.52197  0.55183  1.0000
  C   C1229     1.0  0.42018  0.50971  0.54462  1.0000
  C   C1230     1.0  0.30030  0.36224  0.77701  1.0000
  C   C1231     1.0  0.46529  0.38973  0.51342  1.0000
  C   C1232     1.0  0.40149  0.61616  0.49966  1.0000
  N   N81       1.0  0.29032  0.35283  0.79387  1.0000
  H   H1460     1.0  0.26441  0.39218  0.61720  1.0000
  C   C1233     1.0  0.29988  0.33260  0.71437  1.0000
  H   H1461     1.0  0.29521  0.36889  0.65404  1.0000
  C   C1234     1.0  0.44624  0.54080  0.54317  1.0000
  Fe  Fe162     1.0  0.48471  0.46309  0.59166  1.0000
  H   H1462     1.0  0.48686  0.39150  0.62997  1.0000
  H   H1463     1.0  0.48719  0.61554  0.56567  1.0000
  H   H1464     1.0  0.42280  0.36489  0.68052  1.0000
  C   C1235     1.0  0.39172  0.53913  0.54685  1.0000
  H   H1465     1.0  0.26392  0.40503  0.67642  1.0000
  H   H1466     1.0  0.34897  0.42572  0.63535  1.0000
  H   H1467     1.0  0.27207  0.36918  0.66359  1.0000
  H   H1468     1.0  0.37747  0.41417  0.61419  1.0000
  C   C1236     1.0  0.45218  0.40546  0.51225  1.0000
  C   C1237     1.0  0.40258  0.50730  0.55075  1.0000
  C   C1238     1.0  0.49753  0.59886  0.60685  1.0000
  C   C1239     1.0  0.46244  0.37268  0.65385  1.0000
  H   H1469     1.0  0.45517  0.61595  0.61108  1.0000
  H   H1470     1.0  0.26139  0.33189  0.68034  1.0000
  H   H1471     1.0  0.47785  0.40802  0.67217  1.0000
  H   H1472     1.0  0.33682  0.52658  0.49703  1.0000
  H   H1473     1.0  0.34250  0.40085  0.60019  1.0000
  C   C1240     1.0  0.44141  0.37568  0.68756  1.0000
  H   H1474     1.0  0.47025  0.37101  0.64080  1.0000
  C   C1241     1.0  0.40211  0.59971  0.51169  1.0000
  C   C1242     1.0  0.26761  0.39157  0.68488  1.0000
  C   C1243     1.0  0.27911  0.35212  0.69659  1.0000
  H   H1475     1.0  0.40431  0.35661  0.56471  1.0000
  Fe  Fe163     1.0  0.49145  0.36155  0.56370  1.0000
  H   H1476     1.0  0.38892  0.57773  0.52406  1.0000
  H   H1477     1.0  0.36627  0.44905  0.58975  1.0000
  H   H1478     1.0  0.31405  0.34225  0.80490  1.0000
  C   C1244     1.0  0.41888  0.35516  0.55929  1.0000
  C   C1245     1.0  0.46857  0.38018  0.66484  1.0000
  H   H1479     1.0  0.37589  0.41453  0.59196  1.0000
  C   C1246     1.0  0.41468  0.36720  0.52921  1.0000
  N   N82       1.0  0.28490  0.38128  0.67665  1.0000
  C   C1247     1.0  0.29793  0.39312  0.67083  1.0000
  C   C1248     1.0  0.28265  0.37692  0.66053  1.0000
  C   C1249     1.0  0.38866  0.59030  0.51462  1.0000
  C   C1250     1.0  0.29036  0.36463  0.68948  1.0000
  H   H1480     1.0  0.29183  0.37469  0.77081  1.0000
  C   C1251     1.0  0.46284  0.62474  0.61326  1.0000
  H   H1481     1.0  0.38797  0.55297  0.51039  1.0000
  H   H1482     1.0  0.45782  0.54276  0.50754  1.0000
  C   C1252     1.0  0.43556  0.36890  0.67625  1.0000
  H   H1483     1.0  0.36851  0.44412  0.61242  1.0000
  Fe  Fe164     1.0  0.34115  0.56155  0.49860  1.0000
  C   C1253     1.0  0.49321  0.63481  0.52449  1.0000
  H   H1484     1.0  0.28377  0.33603  0.63180  1.0000
  Fe  Fe165     1.0  0.47311  0.44920  0.63131  1.0000
  H   H1485     1.0  0.41172  0.42071  0.59297  1.0000
  H   H1486     1.0  0.38060  0.55050  0.54764  1.0000
  H   H1487     1.0  0.39991  0.49395  0.55475  1.0000
  C   C1254     1.0  0.40923  0.54170  0.54064  1.0000
  N   N83       1.0  0.43630  0.40943  0.60201  1.0000
  C   C1255     1.0  0.41822  0.42102  0.60361  1.0000
  C   C1256     1.0  0.44448  0.41045  0.61633  1.0000
  C   C1257     1.0  0.44739  0.41674  0.58475  1.0000
  C   C1258     1.0  0.43474  0.39090  0.60376  1.0000
  C   C1259     1.0  0.42550  0.38174  0.61998  1.0000
  C   C1260     1.0  0.42363  0.36432  0.62194  1.0000
  H   H1488     1.0  0.41863  0.43510  0.60251  1.0000
  H   H1489     1.0  0.48557  0.37320  0.52759  1.0000
  H   H1490     1.0  0.44661  0.42414  0.61475  1.0000
  H   H1491     1.0  0.45770  0.40114  0.61609  1.0000
  H   H1492     1.0  0.44136  0.41782  0.57331  1.0000
  H   H1493     1.0  0.44886  0.43043  0.58413  1.0000
  H   H1494     1.0  0.46119  0.40848  0.58261  1.0000
  H   H1495     1.0  0.41942  0.38812  0.63122  1.0000
  H   H1496     1.0  0.41646  0.35758  0.63436  1.0000
  H   H1497     1.0  0.26642  0.35464  0.69292  1.0000
  N   N84       1.0  0.42392  0.35174  0.54103  1.0000
  H   H1498     1.0  0.29353  0.40551  0.66120  1.0000
  C   C1261     1.0  0.32131  0.43040  0.56945  1.0000
  H   H1499     1.0  0.25721  0.44915  0.94438  1.0000
  C   C1262     1.0  0.32677  0.34434  0.65464  1.0000
  S   S331      1.0  0.42018  0.59051  0.52228  1.0000
  H   H1500     1.0  0.45332  0.63725  0.61612  1.0000
  H   H1501     1.0  0.44808  0.34892  0.52076  1.0000
  H   H1502     1.0  0.27490  0.37801  0.80054  1.0000
  H   H1503     1.0  0.44853  0.38763  0.57659  1.0000
  H   H1504     1.0  0.44532  0.35725  0.58082  1.0000
  H   H1505     1.0  0.41941  0.37960  0.52776  1.0000
  C   C1263     1.0  0.44153  0.38169  0.58951  1.0000
  H   H1506     1.0  0.29723  0.66353  0.51113  1.0000
  H   H1507     1.0  0.36501  0.33695  0.64536  1.0000
  H   H1508     1.0  0.32901  0.34766  0.66603  1.0000
  H   H1509     1.0  0.44137  0.36203  0.65081  1.0000
  H   H1510     1.0  0.33686  0.41315  0.62896  1.0000
  H   H1511     1.0  0.49042  0.38751  0.68351  1.0000
  H   H1512     1.0  0.36501  0.58932  0.50689  1.0000
  H   H1513     1.0  0.43596  0.40739  0.62983  1.0000
  C   C1264     1.0  0.45766  0.38127  0.68203  1.0000
  C   C1265     1.0  0.28298  0.36513  0.80642  1.0000
  H   H1514     1.0  0.32882  0.36017  0.61026  1.0000
  N   N85       1.0  0.35234  0.42887  0.60707  1.0000
  C   C1266     1.0  0.34137  0.42600  0.62536  1.0000
  C   C1267     1.0  0.36826  0.41392  0.60596  1.0000
  C   C1268     1.0  0.35902  0.44549  0.60382  1.0000
  C   C1269     1.0  0.34132  0.42962  0.59443  1.0000
  C   C1270     1.0  0.33769  0.41380  0.59241  1.0000
  C   C1271     1.0  0.33339  0.44601  0.58422  1.0000
  C   C1272     1.0  0.32811  0.41421  0.57988  1.0000
  C   C1273     1.0  0.44399  0.54060  0.51360  1.0000
  H   H1515     1.0  0.47376  0.40925  0.64088  1.0000
  H   H1516     1.0  0.46114  0.38678  0.69132  1.0000
  H   H1517     1.0  0.46079  0.63257  0.57875  1.0000
  H   H1518     1.0  0.31948  0.33189  0.61359  1.0000
  C   C1274     1.0  0.49847  0.51205  0.67853  1.0000
  C   C1275     1.0  0.38118  0.34652  0.62082  1.0000
  S   S332      1.0  0.43517  0.40816  0.50119  1.0000
  H   H1519     1.0  0.46303  0.33427  0.62830  1.0000
  S   S333      1.0  0.41031  0.33920  0.66942  1.0000
  S   S334      1.0  0.48251  0.34891  0.59223  1.0000
  N   N86       1.0  0.47741  0.62844  0.59756  1.0000
  S   S335      1.0  0.48367  0.39113  0.55545  1.0000
  H   H1520     1.0  0.49592  0.60164  0.61982  1.0000
  H   H1521     1.0  0.27418  0.35907  0.81872  1.0000
  H   H1522     1.0  0.47758  0.50583  0.67010  1.0000
  H   H1523     1.0  0.25436  0.47908  0.94454  1.0000
  C   C1276     1.0  0.49559  0.64584  0.53453  1.0000
  H   H1524     1.0  0.27240  0.63476  0.50211  1.0000
  H   H1525     1.0  0.46647  0.38028  0.50541  1.0000
  Fe  Fe166     1.0  0.44432  0.59883  0.50323  1.0000
  H   H1526     1.0  0.45122  0.34008  0.54347  1.0000
  H   H1527     1.0  0.40000  0.37044  0.53439  1.0000
  C   C1277     1.0  0.48595  0.39843  0.64064  1.0000
  C   C1278     1.0  0.44341  0.35090  0.53471  1.0000
  H   H1528     1.0  0.42221  0.36781  0.55962  1.0000
  H   H1529     1.0  0.42585  0.34407  0.56855  1.0000
  H   H1530     1.0  0.25491  0.50019  0.96169  1.0000
  H   H1531     1.0  0.49453  0.47581  0.66602  1.0000
  H   H1532     1.0  0.34752  0.33214  0.58869  1.0000
  H   H1533     1.0  0.38994  0.34560  0.54978  1.0000
  H   H1534     1.0  0.32021  0.65866  0.49960  1.0000
  C   C1279     1.0  0.39986  0.52904  0.50041  1.0000
  C   C1280     1.0  0.41845  0.33525  0.54126  1.0000
  C   C1281     1.0  0.30618  0.66350  0.49773  1.0000
  C   C1282     1.0  0.32134  0.33537  0.62512  1.0000
  H   H1535     1.0  0.48583  0.65802  0.53619  1.0000
  C   C1283     1.0  0.27303  0.34741  0.63385  1.0000
  H   H1536     1.0  0.49323  0.63238  0.61391  1.0000
  S   S336      1.0  0.27918  0.59845  0.49571  1.0000
  H   H1537     1.0  0.49769  0.40488  0.63625  1.0000
  S   S337      1.0  0.25029  0.35635  0.86060  1.0000
  Fe  Fe167     1.0  0.48160  0.60572  0.49640  1.0000
  C   C1284     1.0  0.26951  0.64817  0.49433  1.0000
  H   H1538     1.0  0.49813  0.42708  0.50241  1.0000
  H   H1539     1.0  0.29661  0.33027  0.81498  1.0000
  H   H1540     1.0  0.33651  0.49618  0.49497  1.0000
  S   S338      1.0  0.44589  0.89637  0.00124  1.0000
  C   C1285     1.0  0.46275  0.84803  0.03044  1.0000
  H   H1541     1.0  0.29460  0.69793  0.16063  1.0000
  H   H1542     1.0  0.25933  0.73639  0.06567  1.0000
  S   S339      1.0  0.27819  0.70886  0.39251  1.0000
  Fe  Fe168     1.0  0.28466  0.68776  0.41614  1.0000
  H   H1543     1.0  0.42568  0.67084  0.39473  1.0000
  H   H1544     1.0  0.46572  0.78956  0.08445  1.0000
  H   H1545     1.0  0.41798  0.85115  0.04537  1.0000
  H   H1546     1.0  0.29926  0.66923  0.32201  1.0000
  Fe  Fe169     1.0  0.46891  0.96479  0.11603  1.0000
  S   S340      1.0  0.44844  0.95645  0.14060  1.0000
  C   C1286     1.0  0.28515  0.74020  0.41211  1.0000
  Fe  Fe170     1.0  0.34038  0.90827  0.17392  1.0000
  S   S341      1.0  0.33436  0.92693  0.14861  1.0000
  S   S342      1.0  0.32250  0.90640  0.20110  1.0000
  Fe  Fe171     1.0  0.37372  0.88664  0.15447  1.0000
  S   S343      1.0  0.37040  0.90331  0.12774  1.0000
  S   S344      1.0  0.39697  0.86358  0.15671  1.0000
  Fe  Fe172     1.0  0.36391  0.92629  0.14138  1.0000
  S   S345      1.0  0.37538  0.95055  0.12652  1.0000
  Fe  Fe173     1.0  0.34149  0.90214  0.13759  1.0000
  S   S346      1.0  0.32583  0.89776  0.11989  1.0000
  S   S347      1.0  0.36934  0.90946  0.16764  1.0000
  S   S348      1.0  0.34530  0.88367  0.16339  1.0000
  Fe  Fe174     1.0  0.38385  0.77268  0.18989  1.0000
  S   S349      1.0  0.38118  0.74440  0.19516  1.0000
  S   S350      1.0  0.36247  0.79612  0.18250  1.0000
  Fe  Fe175     1.0  0.42234  0.76301  0.19246  1.0000
  S   S351      1.0  0.42359  0.73348  0.19798  1.0000
  Fe  Fe176     1.0  0.40778  0.74063  0.17661  1.0000
  S   S352      1.0  0.41414  0.72464  0.15558  1.0000
  Fe  Fe177     1.0  0.39687  0.73958  0.21632  1.0000
  S   S353      1.0  0.38674  0.72185  0.24239  1.0000
  S   S354      1.0  0.40921  0.76942  0.16931  1.0000
  S   S355      1.0  0.39692  0.76855  0.21275  1.0000
  Fe  Fe178     1.0  0.32079  0.80634  0.10646  1.0000
  S   S356      1.0  0.34914  0.80315  0.09124  1.0000
  S   S357      1.0  0.31338  0.81982  0.12978  1.0000
  Fe  Fe179     1.0  0.31007  0.78626  0.08453  1.0000
  S   S358      1.0  0.33759  0.78185  0.06745  1.0000
  S   S359      1.0  0.28655  0.77816  0.07976  1.0000
  Fe  Fe180     1.0  0.34721  0.77523  0.09293  1.0000
  S   S360      1.0  0.37080  0.75228  0.09399  1.0000
  Fe  Fe181     1.0  0.33729  0.81015  0.06720  1.0000
  S   S361      1.0  0.35044  0.82675  0.04194  1.0000
  S   S362      1.0  0.31969  0.77745  0.11027  1.0000
  S   S363      1.0  0.30884  0.81556  0.08218  1.0000
  Fe  Fe182     1.0  0.41992  0.91301  0.01255  1.0000
  S   S364      1.0  0.40798  0.90764  0.04185  1.0000
  C   C1287     1.0  0.30171  0.77962  0.02791  1.0000
  Fe  Fe183     1.0  0.39193  0.94585  0.00449  1.0000
  S   S365      1.0  0.37703  0.94305  0.03283  1.0000
  C   C1288     1.0  0.46597  0.78630  0.13742  1.0000
  Fe  Fe184     1.0  0.40397  0.93702  0.03919  1.0000
  S   S366      1.0  0.40635  0.94745  0.06173  1.0000
  Fe  Fe185     1.0  0.38198  0.91381  0.03342  1.0000
  S   S367      1.0  0.36151  0.89899  0.05257  1.0000
  S   S368      1.0  0.41872  0.94176  0.01084  1.0000
  S   S369      1.0  0.39415  0.91709  0.00400  1.0000
  Fe  Fe186     1.0  0.40830  0.69057  0.33252  1.0000
  H   H1547     1.0  0.26903  0.72548  0.43436  1.0000
  S   S370      1.0  0.42643  0.69976  0.30660  1.0000
  Fe  Fe187     1.0  0.38379  0.70106  0.36573  1.0000
  C   C1289     1.0  0.41983  0.78287  0.06469  1.0000
  S   S371      1.0  0.37004  0.71988  0.38406  1.0000
  H   H1548     1.0  0.28326  0.87292  0.22380  1.0000
  H   H1549     1.0  0.25560  0.69562  0.46641  1.0000
  H   H1550     1.0  0.40347  0.92088  0.11963  1.0000
  S   S372      1.0  0.41342  0.69077  0.35894  1.0000
  S   S373      1.0  0.37920  0.70363  0.33854  1.0000
  Fe  Fe188     1.0  0.37534  0.67555  0.34850  1.0000
  H   H1551     1.0  0.46173  0.74904  0.15280  1.0000
  H   H1552     1.0  0.29235  0.81812  0.04015  1.0000
  C   C1290     1.0  0.27704  0.67611  0.47671  1.0000
  H   H1553     1.0  0.36339  0.82183  0.21199  1.0000
  N   N87       1.0  0.30252  0.75800  0.38530  1.0000
  H   H1554     1.0  0.27768  0.68017  0.15394  1.0000
  H   H1555     1.0  0.31394  0.81923  0.04246  1.0000
  H   H1556     1.0  0.30099  0.78641  0.38019  1.0000
  N   N88       1.0  0.27183  0.91148  0.16247  1.0000
  H   H1557     1.0  0.49589  0.97486  0.19005  1.0000
  C   C1291     1.0  0.31556  0.82438  0.00838  1.0000
  Fe  Fe189     1.0  0.49426  0.80525  0.09543  1.0000
  C   C1292     1.0  0.30281  0.71095  0.13343  1.0000
  Fe  Fe190     1.0  0.26316  0.69693  0.05783  1.0000
  H   H1558     1.0  0.31352  0.66698  0.46291  1.0000
  S   S374      1.0  0.28764  0.70470  0.06087  1.0000
  C   C1293     1.0  0.33370  0.67717  0.27448  1.0000
  H   H1559     1.0  0.37914  0.79987  0.05355  1.0000
  H   H1560     1.0  0.37556  0.67957  0.41376  1.0000
  C   C1294     1.0  0.43924  0.91116  0.07470  1.0000
  H   H1561     1.0  0.26220  0.72919  0.14975  1.0000
  C   C1295     1.0  0.30438  0.74485  0.37437  1.0000
  C   C1296     1.0  0.30148  0.77587  0.37317  1.0000
  C   C1297     1.0  0.43326  0.75309  0.08002  1.0000
  H   H1562     1.0  0.43497  0.87003  0.10067  1.0000
  H   H1563     1.0  0.43426  0.83622  0.15941  1.0000
  H   H1564     1.0  0.44712  0.91637  0.04614  1.0000
  C   C1298     1.0  0.43758  0.76090  0.12304  1.0000
  H   H1565     1.0  0.30771  0.73085  0.38171  1.0000
  H   H1566     1.0  0.48621  0.85733  0.14589  1.0000
  C   C1299     1.0  0.35101  0.71224  0.39710  1.0000
  C   C1300     1.0  0.34097  0.70540  0.38952  1.0000
  S   S375      1.0  0.44699  0.82653  0.05987  1.0000
  H   H1567     1.0  0.37838  0.87874  0.02451  1.0000
  C   C1301     1.0  0.33137  0.70546  0.42593  1.0000
  C   C1302     1.0  0.34610  0.71243  0.41527  1.0000
  H   H1568     1.0  0.34474  0.70524  0.37545  1.0000
  H   H1569     1.0  0.25891  0.92600  0.22402  1.0000
  H   H1570     1.0  0.32769  0.70545  0.44003  1.0000
  H   H1571     1.0  0.35386  0.71771  0.42113  1.0000
  C   C1303     1.0  0.28731  0.75785  0.07404  1.0000
  C   C1304     1.0  0.30310  0.74492  0.07165  1.0000
  C   C1305     1.0  0.30306  0.72893  0.06719  1.0000
  C   C1306     1.0  0.28724  0.72558  0.06525  1.0000
  C   C1307     1.0  0.27151  0.73861  0.06743  1.0000
  C   C1308     1.0  0.27161  0.75471  0.07165  1.0000
  H   H1572     1.0  0.31532  0.74721  0.07330  1.0000
  H   H1573     1.0  0.31532  0.71896  0.06547  1.0000
  H   H1574     1.0  0.28627  0.68488  0.47040  1.0000
  C   C1309     1.0  0.25429  0.88741  0.18000  1.0000
  C   C1310     1.0  0.35387  0.84665  0.04494  1.0000
  C   C1311     1.0  0.36622  0.85574  0.03219  1.0000
  C   C1312     1.0  0.36885  0.87179  0.03437  1.0000
  C   C1313     1.0  0.35882  0.87897  0.04912  1.0000
  C   C1314     1.0  0.34655  0.86983  0.06183  1.0000
  C   C1315     1.0  0.34425  0.85360  0.05991  1.0000
  C   C1316     1.0  0.47383  0.82706  0.17182  1.0000
  H   H1575     1.0  0.33114  0.75396  0.38179  1.0000
  H   H1576     1.0  0.33870  0.87542  0.07314  1.0000
  H   H1577     1.0  0.33465  0.84674  0.06979  1.0000
  H   H1578     1.0  0.25445  0.67506  0.14500  1.0000
  C   C1317     1.0  0.44630  0.87497  0.01450  1.0000
  C   C1318     1.0  0.46258  0.86366  0.01715  1.0000
  N   N89       1.0  0.34318  0.84535  0.21664  1.0000
  H   H1579     1.0  0.47502  0.86739  0.00968  1.0000
  C   C1319     1.0  0.39863  0.71527  0.25962  1.0000
  C   C1320     1.0  0.39249  0.70347  0.27527  1.0000
  C   C1321     1.0  0.40091  0.69880  0.28974  1.0000
  C   C1322     1.0  0.41586  0.70552  0.28846  1.0000
  C   C1323     1.0  0.42243  0.71681  0.27259  1.0000
  C   C1324     1.0  0.41373  0.72183  0.25823  1.0000
  H   H1580     1.0  0.38121  0.69789  0.27622  1.0000
  H   H1581     1.0  0.39598  0.68982  0.30181  1.0000
  H   H1582     1.0  0.43406  0.72194  0.27153  1.0000
  H   H1583     1.0  0.41861  0.73084  0.24615  1.0000
  C   C1325     1.0  0.40159  0.73314  0.13887  1.0000
  C   C1326     1.0  0.40550  0.72406  0.12506  1.0000
  C   C1327     1.0  0.39586  0.73018  0.11151  1.0000
  C   C1328     1.0  0.38215  0.74544  0.11162  1.0000
  C   C1329     1.0  0.37836  0.75489  0.12522  1.0000
  C   C1330     1.0  0.38813  0.74872  0.13889  1.0000
  H   H1584     1.0  0.41586  0.71205  0.12498  1.0000
  H   H1585     1.0  0.39889  0.72290  0.10100  1.0000
  H   H1586     1.0  0.36781  0.76674  0.12534  1.0000
  H   H1587     1.0  0.38505  0.75579  0.14957  1.0000
  C   C1331     1.0  0.32311  0.87582  0.12238  1.0000
  C   C1332     1.0  0.31743  0.87153  0.10910  1.0000
  C   C1333     1.0  0.31523  0.85412  0.11076  1.0000
  C   C1334     1.0  0.31796  0.84114  0.12611  1.0000
  C   C1335     1.0  0.32331  0.84553  0.13948  1.0000
  C   C1336     1.0  0.32616  0.86268  0.13753  1.0000
  H   H1588     1.0  0.31470  0.88170  0.09750  1.0000
  H   H1589     1.0  0.31077  0.85095  0.10050  1.0000
  H   H1590     1.0  0.32527  0.83552  0.15139  1.0000
  H   H1591     1.0  0.33025  0.86572  0.14800  1.0000
  C   C1337     1.0  0.38839  0.84426  0.16243  1.0000
  C   C1338     1.0  0.39613  0.82901  0.17351  1.0000
  C   C1339     1.0  0.38832  0.81409  0.17939  1.0000
  C   C1340     1.0  0.37244  0.81461  0.17469  1.0000
  C   C1341     1.0  0.36469  0.82985  0.16362  1.0000
  C   C1342     1.0  0.37292  0.84451  0.15711  1.0000
  H   H1592     1.0  0.40777  0.82883  0.17810  1.0000
  H   H1593     1.0  0.39438  0.80236  0.18796  1.0000
  H   H1594     1.0  0.35262  0.83010  0.15970  1.0000
  H   H1595     1.0  0.36732  0.85591  0.14789  1.0000
  C   C1343     1.0  0.42815  0.95490  0.13663  1.0000
  C   C1344     1.0  0.42135  0.96609  0.12208  1.0000
  C   C1345     1.0  0.40484  0.96506  0.11951  1.0000
  C   C1346     1.0  0.39538  0.95238  0.13101  1.0000
  C   C1347     1.0  0.40229  0.94108  0.14548  1.0000
  C   C1348     1.0  0.41847  0.94254  0.14844  1.0000
  H   H1596     1.0  0.42858  0.97584  0.11307  1.0000
  H   H1597     1.0  0.39945  0.97403  0.10846  1.0000
  H   H1598     1.0  0.39507  0.93142  0.15458  1.0000
  H   H1599     1.0  0.42353  0.93400  0.15985  1.0000
  C   C1349     1.0  0.45015  0.97787  0.05303  1.0000
  C   C1350     1.0  0.44649  0.97421  0.03825  1.0000
  C   C1351     1.0  0.43286  0.96505  0.04060  1.0000
  C   C1352     1.0  0.42283  0.95979  0.05771  1.0000
  C   C1353     1.0  0.42628  0.96390  0.07227  1.0000
  C   C1354     1.0  0.43991  0.97285  0.06998  1.0000
  C   C1355     1.0  0.47305  0.86480  0.15062  1.0000
  H   H1600     1.0  0.43014  0.96208  0.02927  1.0000
  H   H1601     1.0  0.41855  0.95991  0.08543  1.0000
  H   H1602     1.0  0.44245  0.97593  0.08138  1.0000
  N   N90       1.0  0.31448  0.80702  0.02109  1.0000
  Fe  Fe191     1.0  0.48293  0.84521  0.09102  1.0000
  C   C1356     1.0  0.45026  0.75556  0.07079  1.0000
  H   H1603     1.0  0.39192  0.97392  0.01639  1.0000
  C   C1357     1.0  0.44669  0.84372  0.04091  1.0000
  N   N91       1.0  0.27332  0.67973  0.11994  1.0000
  Fe  Fe192     1.0  0.25735  0.66773  0.41613  1.0000
  H   H1604     1.0  0.48074  0.76220  0.10118  1.0000
  S   S376      1.0  0.25624  0.68873  0.43049  1.0000
  H   H1605     1.0  0.40199  0.91325  0.10089  1.0000
  C   C1358     1.0  0.45790  0.78150  0.09528  1.0000
  H   H1606     1.0  0.46916  0.83071  0.18511  1.0000
  H   H1607     1.0  0.31833  0.87180  0.20112  1.0000
  C   C1359     1.0  0.26856  0.94509  0.20108  1.0000
  C   C1360     1.0  0.27033  0.92929  0.21404  1.0000
  C   C1361     1.0  0.28707  0.91774  0.21424  1.0000
  C   C1362     1.0  0.30206  0.92182  0.20139  1.0000
  C   C1363     1.0  0.30043  0.93776  0.18862  1.0000
  C   C1364     1.0  0.28370  0.94941  0.18851  1.0000
  H   H1608     1.0  0.29311  0.92304  0.16336  1.0000
  H   H1609     1.0  0.28839  0.90555  0.22425  1.0000
  H   H1610     1.0  0.31205  0.94126  0.17898  1.0000
  H   H1611     1.0  0.28246  0.96172  0.17857  1.0000
  H   H1612     1.0  0.26572  0.76413  0.35645  1.0000
  H   H1613     1.0  0.36186  0.85267  0.19235  1.0000
  C   C1365     1.0  0.28517  0.79237  0.99885  1.0000
  H   H1614     1.0  0.32530  0.86703  0.22829  1.0000
  C   C1366     1.0  0.43739  0.78505  0.05562  1.0000
  H   H1615     1.0  0.29841  0.83960  0.17895  1.0000
  H   H1616     1.0  0.29809  0.86903  0.18415  1.0000
  H   H1617     1.0  0.32383  0.83173  0.01194  1.0000
  H   H1618     1.0  0.41819  0.89477  0.13592  1.0000
  H   H1619     1.0  0.39769  0.78402  0.04428  1.0000
  C   C1367     1.0  0.29512  0.80271  0.00230  1.0000
  H   H1620     1.0  0.25837  0.84581  0.17333  1.0000
  H   H1621     1.0  0.38598  0.77866  0.06693  1.0000
  C   C1368     1.0  0.39470  0.80280  0.07889  1.0000
  H   H1622     1.0  0.44003  0.79715  0.04625  1.0000
  H   H1623     1.0  0.47534  0.83957  0.03291  1.0000
  H   H1624     1.0  0.45907  0.83892  0.13321  1.0000
  H   H1625     1.0  0.28279  0.85537  0.14884  1.0000
  C   C1369     1.0  0.44651  0.88869  0.05712  1.0000
  H   H1626     1.0  0.36538  0.85824  0.21137  1.0000
  H   H1627     1.0  0.41403  0.80936  0.03491  1.0000
  H   H1628     1.0  0.39492  0.82297  0.04611  1.0000
  C   C1370     1.0  0.40741  0.81288  0.04808  1.0000
  H   H1629     1.0  0.33871  0.81439  0.20871  1.0000
  C   C1371     1.0  0.44267  0.87593  0.07257  1.0000
  H   H1630     1.0  0.43487  0.91819  0.12412  1.0000
  H   H1631     1.0  0.48565  0.99281  0.13323  1.0000
  C   C1372     1.0  0.43973  0.88565  0.16214  1.0000
  H   H1632     1.0  0.46187  0.74518  0.07316  1.0000
  H   H1633     1.0  0.47335  0.90104  0.08276  1.0000
  H   H1634     1.0  0.40540  0.76399  0.08460  1.0000
  H   H1635     1.0  0.41319  0.93089  0.09770  1.0000
  H   H1636     1.0  0.40395  0.80762  0.08391  1.0000
  H   H1637     1.0  0.45069  0.88497  0.04428  1.0000
  H   H1638     1.0  0.28920  0.88480  0.14410  1.0000
  N   N92       1.0  0.40366  0.79685  0.06196  1.0000
  H   H1639     1.0  0.31331  0.77625  0.36192  1.0000
  H   H1640     1.0  0.44403  0.92441  0.10101  1.0000
  N   N93       1.0  0.38397  0.85536  0.09660  1.0000
  C   C1373     1.0  0.36713  0.86883  0.09999  1.0000
  C   C1374     1.0  0.39866  0.86298  0.09777  1.0000
  C   C1375     1.0  0.38723  0.85279  0.07817  1.0000
  C   C1376     1.0  0.38258  0.83806  0.10922  1.0000
  C   C1377     1.0  0.39607  0.82814  0.11888  1.0000
  C   C1378     1.0  0.36768  0.83032  0.11175  1.0000
  C   C1379     1.0  0.39431  0.81187  0.13071  1.0000
  C   C1380     1.0  0.36599  0.81414  0.12377  1.0000
  C   C1381     1.0  0.37928  0.80492  0.13321  1.0000
  H   H1641     1.0  0.36334  0.87011  0.11417  1.0000
  H   H1642     1.0  0.36812  0.88227  0.09142  1.0000
  H   H1643     1.0  0.35573  0.86555  0.09692  1.0000
  H   H1644     1.0  0.39721  0.86464  0.11158  1.0000
  H   H1645     1.0  0.39882  0.87636  0.08873  1.0000
  H   H1646     1.0  0.41199  0.85450  0.09356  1.0000
  H   H1647     1.0  0.37622  0.84794  0.07605  1.0000
  H   H1648     1.0  0.38825  0.86553  0.06818  1.0000
  H   H1649     1.0  0.39986  0.84293  0.07499  1.0000
  H   H1650     1.0  0.40791  0.83283  0.11791  1.0000
  H   H1651     1.0  0.35701  0.83678  0.10468  1.0000
  H   H1652     1.0  0.40434  0.80487  0.13853  1.0000
  H   H1653     1.0  0.35407  0.80890  0.12616  1.0000
  H   H1654     1.0  0.37763  0.79265  0.14293  1.0000
  H   H1655     1.0  0.28950  0.77963  0.36717  1.0000
  H   H1656     1.0  0.37598  0.67125  0.45255  1.0000
  C   C1382     1.0  0.45866  0.73766  0.14943  1.0000
  Fe  Fe193     1.0  0.24966  0.70830  0.40595  1.0000
  H   H1657     1.0  0.48232  0.88949  0.14216  1.0000
  H   H1658     1.0  0.44410  0.73835  0.15419  1.0000
  H   H1659     1.0  0.29176  0.74651  0.36997  1.0000
  H   H1660     1.0  0.30912  0.72166  0.10529  1.0000
  S   S377      1.0  0.44551  0.77514  0.19056  1.0000
  H   H1661     1.0  0.48344  0.76493  0.18099  1.0000
  H   H1662     1.0  0.43159  0.74077  0.08961  1.0000
  C   C1383     1.0  0.49137  0.99394  0.16544  1.0000
  H   H1663     1.0  0.30670  0.79860  0.04970  1.0000
  C   C1384     1.0  0.25949  0.68239  0.47431  1.0000
  H   H1664     1.0  0.49424  0.94450  0.04101  1.0000
  H   H1665     1.0  0.35649  0.67547  0.44354  1.0000
  H   H1666     1.0  0.46541  0.70981  0.13423  1.0000
  H   H1667     1.0  0.45284  0.90793  0.15263  1.0000
  C   C1385     1.0  0.27834  0.88129  0.15490  1.0000
  H   H1668     1.0  0.32921  0.66499  0.27608  1.0000
  C   C1386     1.0  0.28426  0.68897  0.14283  1.0000
  S   S378      1.0  0.28832  0.68421  0.35301  1.0000
  C   C1387     1.0  0.25201  0.73081  0.14240  1.0000
  H   H1669     1.0  0.49056  0.72213  0.13476  1.0000
  H   H1670     1.0  0.41764  0.87865  0.02193  1.0000
  H   H1671     1.0  0.46102  0.79220  0.12536  1.0000
  C   C1388     1.0  0.30213  0.71254  0.11579  1.0000
  C   C1389     1.0  0.49052  0.77196  0.15233  1.0000
  S   S379      1.0  0.47485  0.95208  0.09271  1.0000
  H   H1672     1.0  0.47921  0.95908  0.15760  1.0000
  C   C1390     1.0  0.28550  0.66866  0.10742  1.0000
  H   H1673     1.0  0.25912  0.92083  0.14001  1.0000
  S   S380      1.0  0.46931  0.99244  0.09939  1.0000
  H   H1674     1.0  0.25462  0.73760  0.37581  1.0000
  H   H1675     1.0  0.29027  0.90324  0.18004  1.0000
  C   C1391     1.0  0.43043  0.85439  0.03739  1.0000
  C   C1392     1.0  0.41827  0.76651  0.07705  1.0000
  H   H1676     1.0  0.44415  0.86223  0.07164  1.0000
  H   H1677     1.0  0.26472  0.70053  0.09823  1.0000
  H   H1678     1.0  0.47223  0.93523  0.03055  1.0000
  Fe  Fe194     1.0  0.47789  0.97908  0.07603  1.0000
  H   H1679     1.0  0.32169  0.67949  0.30098  1.0000
  C   C1393     1.0  0.46637  0.76558  0.10502  1.0000
  C   C1394     1.0  0.48465  0.89765  0.08902  1.0000
  H   H1680     1.0  0.44661  0.81522  0.16914  1.0000
  C   C1395     1.0  0.25916  0.69200  0.11099  1.0000
  H   H1681     1.0  0.48147  0.83539  0.13594  1.0000
  H   H1682     1.0  0.43969  0.78953  0.15455  1.0000
  N   N94       1.0  0.33171  0.71050  0.30226  1.0000
  C   C1396     1.0  0.32325  0.72956  0.29673  1.0000
  C   C1397     1.0  0.31945  0.70272  0.31839  1.0000
  C   C1398     1.0  0.34863  0.70941  0.30739  1.0000
  C   C1399     1.0  0.33560  0.70136  0.28727  1.0000
  C   C1400     1.0  0.34624  0.70785  0.27058  1.0000
  C   C1401     1.0  0.32944  0.68570  0.28877  1.0000
  C   C1402     1.0  0.35049  0.69918  0.25639  1.0000
  H   H1683     1.0  0.27323  0.93472  0.14099  1.0000
  C   C1403     1.0  0.34430  0.68382  0.25836  1.0000
  H   H1684     1.0  0.31102  0.73086  0.29180  1.0000
  H   H1685     1.0  0.31935  0.73660  0.30798  1.0000
  H   H1686     1.0  0.33234  0.73701  0.28595  1.0000
  H   H1687     1.0  0.31651  0.70994  0.32938  1.0000
  H   H1688     1.0  0.32530  0.68869  0.32410  1.0000
  H   H1689     1.0  0.30637  0.70307  0.31555  1.0000
  H   H1690     1.0  0.35788  0.71665  0.29656  1.0000
  H   H1691     1.0  0.34629  0.71515  0.31932  1.0000
  H   H1692     1.0  0.35586  0.69529  0.31069  1.0000
  H   H1693     1.0  0.35187  0.71941  0.26846  1.0000
  S   S381      1.0  0.25855  0.66894  0.06933  1.0000
  H   H1694     1.0  0.35898  0.70421  0.24390  1.0000
  H   H1695     1.0  0.28307  0.91418  0.13409  1.0000
  C   C1404     1.0  0.29265  0.70231  0.11156  1.0000
  H   H1696     1.0  0.37370  0.85042  0.02056  1.0000
  N   N95       1.0  0.34881  0.94426  0.08299  1.0000
  C   C1405     1.0  0.33851  0.93635  0.07517  1.0000
  C   C1406     1.0  0.36622  0.93168  0.08398  1.0000
  C   C1407     1.0  0.33881  0.94559  0.10134  1.0000
  C   C1408     1.0  0.35173  0.96215  0.07278  1.0000
  C   C1409     1.0  0.34466  0.97119  0.05735  1.0000
  C   C1410     1.0  0.36162  0.97125  0.07847  1.0000
  C   C1411     1.0  0.48467  0.73461  0.12610  1.0000
  H   H1697     1.0  0.25094  0.68455  0.10756  1.0000
  C   C1412     1.0  0.27025  0.73850  0.42599  1.0000
  H   H1698     1.0  0.33678  0.92279  0.08302  1.0000
  H   H1699     1.0  0.32486  0.94462  0.07482  1.0000
  H   H1700     1.0  0.34548  0.93458  0.06145  1.0000
  H   H1701     1.0  0.36449  0.91788  0.09062  1.0000
  H   H1702     1.0  0.37405  0.93556  0.09146  1.0000
  H   H1703     1.0  0.37462  0.93113  0.07045  1.0000
  H   H1704     1.0  0.32600  0.95557  0.10118  1.0000
  H   H1705     1.0  0.33563  0.93257  0.10921  1.0000
  H   H1706     1.0  0.34650  0.94968  0.10882  1.0000
  H   H1707     1.0  0.33727  0.96527  0.05177  1.0000
  C   C1413     1.0  0.47097  0.88323  0.14849  1.0000
  S   S382      1.0  0.48419  0.84989  0.06184  1.0000
  H   H1708     1.0  0.30213  0.83332  0.00848  1.0000
  C   C1414     1.0  0.47852  0.77087  0.16885  1.0000
  H   H1709     1.0  0.42962  0.86204  0.17002  1.0000
  H   H1710     1.0  0.45439  0.97816  0.02509  1.0000
  H   H1711     1.0  0.46521  0.97897  0.18935  1.0000
  H   H1712     1.0  0.31905  0.81268  0.19121  1.0000
  C   C1415     1.0  0.27300  0.77183  0.40373  1.0000
  C   C1416     1.0  0.44428  0.82991  0.16792  1.0000
  C   C1417     1.0  0.46018  0.77692  0.16969  1.0000
  S   S383      1.0  0.25472  0.69865  0.03246  1.0000
  H   H1713     1.0  0.25008  0.70098  0.11969  1.0000
  H   H1714     1.0  0.34158  0.80405  0.02356  1.0000
  C   C1418     1.0  0.45979  0.72289  0.12621  1.0000
  H   H1715     1.0  0.32190  0.82249  0.99457  1.0000
  C   C1419     1.0  0.47373  0.99301  0.14441  1.0000
  H   H1716     1.0  0.46449  0.72236  0.11186  1.0000
  H   H1717     1.0  0.27288  0.78501  0.39539  1.0000
  Fe  Fe195     1.0  0.47123  0.82625  0.06933  1.0000
  C   C1420     1.0  0.35493  0.85740  0.20488  1.0000
  C   C1421     1.0  0.33067  0.84345  0.20673  1.0000
  C   C1422     1.0  0.31862  0.85866  0.19951  1.0000
  C   C1423     1.0  0.33010  0.82675  0.20383  1.0000
  C   C1424     1.0  0.30698  0.85724  0.18976  1.0000
  C   C1425     1.0  0.31862  0.82552  0.19386  1.0000
  C   C1426     1.0  0.30706  0.84070  0.18687  1.0000
  H   H1718     1.0  0.34744  0.87131  0.20117  1.0000
  C   C1427     1.0  0.43511  0.89858  0.09072  1.0000
  C   C1428     1.0  0.35490  0.82815  0.22322  1.0000
  S   S384      1.0  0.35132  0.66749  0.34600  1.0000
  C   C1429     1.0  0.41090  0.91792  0.10647  1.0000
  C   C1430     1.0  0.43715  0.88068  0.08919  1.0000
  C   C1431     1.0  0.44472  0.90629  0.05818  1.0000
  C   C1432     1.0  0.25862  0.92321  0.17381  1.0000
  C   C1433     1.0  0.33294  0.85319  0.23226  1.0000
  C   C1434     1.0  0.28682  0.75681  0.40026  1.0000
  H   H1719     1.0  0.32325  0.84501  0.24098  1.0000
  H   H1720     1.0  0.36422  0.82996  0.23051  1.0000
  H   H1721     1.0  0.34699  0.81853  0.23259  1.0000
  H   H1722     1.0  0.34189  0.85411  0.24047  1.0000
  C   C1435     1.0  0.45436  0.89363  0.15428  1.0000
  H   H1723     1.0  0.49466  0.68085  0.45356  1.0000
  S   S385      1.0  0.49756  0.95892  0.11834  1.0000
  C   C1436     1.0  0.46249  0.98584  0.17594  1.0000
  C   C1437     1.0  0.39114  0.78953  0.05645  1.0000
  H   H1724     1.0  0.43788  0.92499  0.07485  1.0000
  C   C1438     1.0  0.32606  0.69871  0.40012  1.0000
  H   H1725     1.0  0.47555  0.81228  0.17404  1.0000
  C   C1439     1.0  0.28421  0.66519  0.34893  1.0000
  N   N96       1.0  0.42777  0.90454  0.10782  1.0000
  C   C1440     1.0  0.48432  0.77978  0.13658  1.0000
  C   C1441     1.0  0.38574  0.66793  0.41851  1.0000
  C   C1442     1.0  0.44050  0.91291  0.11171  1.0000
  H   H1726     1.0  0.26147  0.93683  0.17066  1.0000
  H   H1727     1.0  0.42679  0.89378  0.16667  1.0000
  C   C1443     1.0  0.46827  0.83190  0.14244  1.0000
  H   H1728     1.0  0.46510  0.72521  0.15770  1.0000
  C   C1444     1.0  0.26801  0.89348  0.16585  1.0000
  C   C1445     1.0  0.45231  0.77152  0.05865  1.0000
  C   C1446     1.0  0.27081  0.87137  0.23316  1.0000
  N   N97       1.0  0.47901  0.98493  0.16184  1.0000
  H   H1729     1.0  0.26580  0.74573  0.11838  1.0000
  H   H1730     1.0  0.45311  0.90309  0.11353  1.0000
  H   H1731     1.0  0.30050  0.90180  0.15727  1.0000
  H   H1732     1.0  0.48734  0.83005  0.16601  1.0000
  C   C1447     1.0  0.33301  0.79652  0.02077  1.0000
  S   S386      1.0  0.46762  0.98847  0.05057  1.0000
  C   C1448     1.0  0.34731  0.98829  0.04837  1.0000
  H   H1733     1.0  0.41484  0.78089  0.11624  1.0000
  C   C1449     1.0  0.42377  0.88985  0.12330  1.0000
  H   H1734     1.0  0.43605  0.87950  0.12533  1.0000
  H   H1735     1.0  0.41361  0.88346  0.12174  1.0000
  C   C1450     1.0  0.43944  0.78719  0.09948  1.0000
  H   H1736     1.0  0.38291  0.81388  0.07718  1.0000
  C   C1451     1.0  0.45643  0.75491  0.11950  1.0000
  C   C1452     1.0  0.28355  0.77574  0.00981  1.0000
  C   C1453     1.0  0.32140  0.69857  0.41836  1.0000
  C   C1454     1.0  0.44159  0.86725  0.16405  1.0000
  H   H1737     1.0  0.26423  0.85522  0.21910  1.0000
  H   H1738     1.0  0.44509  0.72414  0.12942  1.0000
  C   C1455     1.0  0.42926  0.77679  0.11321  1.0000
  C   C1456     1.0  0.25833  0.77006  0.41794  1.0000
  C   C1457     1.0  0.26114  0.85892  0.17138  1.0000
  H   H1739     1.0  0.38975  0.79189  0.08958  1.0000
  H   H1740     1.0  0.42906  0.75328  0.13342  1.0000
  S   S387      1.0  0.46751  0.82368  0.09861  1.0000
  C   C1458     1.0  0.28970  0.90976  0.16592  1.0000
  H   H1741     1.0  0.27361  0.88737  0.24979  1.0000
  H   H1742     1.0  0.29109  0.67687  0.09446  1.0000
  C   C1459     1.0  0.31884  0.75391  0.39254  1.0000
  S   S388      1.0  0.37749  0.67400  0.37626  1.0000
  S   S389      1.0  0.47346  0.86689  0.10637  1.0000
  H   H1743     1.0  0.30766  0.77415  0.03947  1.0000
  H   H1744     1.0  0.29267  0.70383  0.09768  1.0000
  C   C1460     1.0  0.43024  0.87006  0.02421  1.0000
  C   C1461     1.0  0.45386  0.78467  0.15395  1.0000
  H   H1745     1.0  0.31846  0.69325  0.39425  1.0000
  C   C1462     1.0  0.30375  0.79658  0.01699  1.0000
  H   H1746     1.0  0.47031  0.81732  0.14338  1.0000
  H   H1747     1.0  0.25946  0.76484  0.07301  1.0000
  H   H1748     1.0  0.41604  0.81965  0.05175  1.0000
  C   C1463     1.0  0.45841  0.85622  0.15828  1.0000
  H   H1749     1.0  0.29054  0.75642  0.03281  1.0000
  H   H1750     1.0  0.27582  0.76775  0.00712  1.0000
  C   C1464     1.0  0.38734  0.98709  0.00899  1.0000
  C   C1465     1.0  0.36412  0.98835  0.06942  1.0000
  S   S390      1.0  0.30340  0.68948  0.43193  1.0000
  C   C1466     1.0  0.27484  0.86434  0.15758  1.0000
  H   H1751     1.0  0.43836  0.83226  0.18164  1.0000
  H   H1752     1.0  0.31530  0.74620  0.36230  1.0000
  S   S391      1.0  0.49698  0.80593  0.06644  1.0000
  H   H1753     1.0  0.43729  0.67367  0.41964  1.0000
  Fe  Fe196     1.0  0.27687  0.68619  0.38148  1.0000
  C   C1467     1.0  0.48751  0.96588  0.16182  1.0000
  C   C1468     1.0  0.29183  0.76937  0.02428  1.0000
  H   H1754     1.0  0.43312  0.79960  0.09190  1.0000
  C   C1469     1.0  0.48846  0.88106  0.10038  1.0000
  H   H1755     1.0  0.48931  0.74565  0.12847  1.0000
  H   H1756     1.0  0.36763  0.96516  0.08993  1.0000
  C   C1470     1.0  0.30655  0.81091  0.03909  1.0000
  H   H1757     1.0  0.47760  0.90417  0.02658  1.0000
  N   N98       1.0  0.46101  0.83667  0.16015  1.0000
  S   S392      1.0  0.28652  0.66495  0.40375  1.0000
  S   S393      1.0  0.25663  0.80075  0.35892  1.0000
  C   C1471     1.0  0.26010  0.86138  0.23056  1.0000
  H   H1758     1.0  0.33362  0.78386  0.03095  1.0000
  H   H1759     1.0  0.46558  0.77354  0.05167  1.0000
  N   N99       1.0  0.46486  0.73789  0.13006  1.0000
  H   H1760     1.0  0.31818  0.76371  0.40051  1.0000
  H   H1761     1.0  0.32070  0.74051  0.40145  1.0000
  C   C1472     1.0  0.28338  0.69023  0.12490  1.0000
  H   H1762     1.0  0.34797  0.67687  0.24749  1.0000
  H   H1763     1.0  0.29521  0.72827  0.41055  1.0000
  H   H1764     1.0  0.31032  0.71883  0.13661  1.0000
  C   C1473     1.0  0.29393  0.69917  0.14692  1.0000
  H   H1765     1.0  0.49213  0.92292  0.07728  1.0000
  Fe  Fe197     1.0  0.49866  0.98562  0.09993  1.0000
  H   H1766     1.0  0.46491  0.98563  0.14179  1.0000
  C   C1474     1.0  0.49907  0.98676  0.18070  1.0000
  H   H1767     1.0  0.45277  0.97937  0.17349  1.0000
  C   C1475     1.0  0.49521  0.91010  0.08600  1.0000
  C   C1476     1.0  0.49681  0.93098  0.03899  1.0000
  H   H1768     1.0  0.33929  0.79299  0.00755  1.0000
  C   C1477     1.0  0.25680  0.75339  0.42884  1.0000
  C   C1478     1.0  0.27180  0.92063  0.14360  1.0000
  H   H1769     1.0  0.48954  0.95800  0.17516  1.0000
  H   H1770     1.0  0.35082  0.67120  0.41638  1.0000
  H   H1771     1.0  0.49059  0.73313  0.11212  1.0000
  C   C1479     1.0  0.26537  0.87953  0.24773  1.0000
  H   H1772     1.0  0.49883  0.66508  0.44007  1.0000
  H   H1773     1.0  0.37191  0.99488  0.07394  1.0000
  C   C1480     1.0  0.25399  0.74017  0.12476  1.0000
  H   H1774     1.0  0.39547  0.67375  0.42174  1.0000
  H   H1775     1.0  0.49329  0.68296  0.48145  1.0000
  H   H1776     1.0  0.43404  0.66568  0.29193  1.0000
  C   C1481     1.0  0.25523  0.76555  0.36817  1.0000
  H   H1777     1.0  0.25128  0.95643  0.43399  1.0000
  H   H1778     1.0  0.30499  0.67759  0.49027  1.0000
  C   C1482     1.0  0.48738  0.90829  0.03097  1.0000
  C   C1483     1.0  0.26457  0.66757  0.13545  1.0000
  H   H1779     1.0  0.34214  0.99485  0.03641  1.0000
  H   H1780     1.0  0.25875  0.91792  0.18821  1.0000
  C   C1484     1.0  0.48435  0.92575  0.03315  1.0000
  C   C1485     1.0  0.25094  0.87040  0.18259  1.0000
  Fe  Fe198     1.0  0.40680  0.66369  0.36770  1.0000
  C   C1486     1.0  0.36756  0.66479  0.44815  1.0000
  C   C1487     1.0  0.49604  0.93015  0.92304  1.0000
  H   H1781     1.0  0.47170  0.94620  0.91551  1.0000
  H   H1782     1.0  0.43403  0.96721  0.95418  1.0000
  C   C1488     1.0  0.42982  0.98209  0.98100  1.0000
  H   H1783     1.0  0.41964  0.97429  0.98235  1.0000
  S   S394      1.0  0.38433  0.97063  0.98418  1.0000
  H   H1784     1.0  0.47907  0.88090  0.97327  1.0000
  H   H1785     1.0  0.42323  0.99242  0.98913  1.0000
  N   N100      1.0  0.43627  0.99031  0.96207  1.0000
  H   H1786     1.0  0.44077  0.97257  0.98698  1.0000
  H   H1787     1.0  0.46520  0.91040  0.96624  1.0000
  C   C1489     1.0  0.47423  0.91577  0.95444  1.0000
  H   H1788     1.0  0.48042  0.90361  0.98835  1.0000
  C   C1490     1.0  0.46669  0.92893  0.94138  1.0000
  H   H1789     1.0  0.44746  0.98088  0.93750  1.0000
  H   H1790     1.0  0.45229  0.93332  0.94334  1.0000
  H   H1791     1.0  0.45606  0.96697  0.95648  1.0000
  C   C1491     1.0  0.47758  0.93614  0.92572  1.0000
  C   C1492     1.0  0.49299  0.90936  0.95220  1.0000
  C   C1493     1.0  0.44384  0.97570  0.95212  1.0000
  H   H1792     1.0  0.40963  0.99455  0.95763  1.0000
  C   C1494     1.0  0.38256  0.98940  0.99274  1.0000
  C   C1495     1.0  0.49510  0.90114  0.98334  1.0000
  C   C1496     1.0  0.49382  0.87884  0.96855  1.0000
  H   H1793     1.0  0.49744  0.87402  0.95587  1.0000
  H   H1794     1.0  0.27863  0.79727  0.98763  1.0000
  H   H1795     1.0  0.45201  0.99598  0.98748  1.0000
  H   H1796     1.0  0.29579  0.81545  0.99329  1.0000
  Fe  Fe199     1.0  0.60945  0.23766  0.20303  1.0000
  S   S395      1.0  0.59377  0.21738  0.20433  1.0000
  S   S396      1.0  0.60201  0.25941  0.21896  1.0000
  Fe  Fe200     1.0  0.63943  0.22415  0.17411  1.0000
  S   S397      1.0  0.62704  0.20231  0.17321  1.0000
  S   S398      1.0  0.66580  0.22996  0.15758  1.0000
  Fe  Fe201     1.0  0.60157  0.22276  0.17434  1.0000
  S   S399      1.0  0.58152  0.22258  0.15876  1.0000
  Fe  Fe202     1.0  0.62015  0.19813  0.20290  1.0000
  S   S400      1.0  0.62219  0.16957  0.21732  1.0000
  S   S401      1.0  0.61443  0.24530  0.17300  1.0000
  S   S402      1.0  0.63530  0.21785  0.20391  1.0000
  Fe  Fe203     1.0  0.56178  0.16568  0.06032  1.0000
  S   S403      1.0  0.59106  0.16482  0.05770  1.0000
  S   S404      1.0  0.54388  0.17225  0.04018  1.0000
  Fe  Fe204     1.0  0.55574  0.15314  0.10034  1.0000
  S   S405      1.0  0.58411  0.15015  0.10155  1.0000
  S   S406      1.0  0.53444  0.14680  0.12432  1.0000
  Fe  Fe205     1.0  0.58281  0.17652  0.08242  1.0000
  S   S407      1.0  0.59943  0.19314  0.08777  1.0000
  Fe  Fe206     1.0  0.59070  0.13874  0.07727  1.0000
  S   S408      1.0  0.61180  0.11379  0.07683  1.0000
  S   S409      1.0  0.55348  0.18047  0.08292  1.0000
  S   S410      1.0  0.56239  0.13866  0.07824  1.0000
  S   S411      1.0  0.72756  0.04316  0.02539  1.0000
  S   S412      1.0  0.69871  0.07788  0.03797  1.0000
  Fe  Fe207     1.0  0.72638  0.07261  0.02160  1.0000
  Fe  Fe208     1.0  0.69922  0.04923  0.03996  1.0000
  S   S413      1.0  0.69050  0.03145  0.06627  1.0000
  S   S414      1.0  0.69495  0.19442  0.09050  1.0000
  Fe  Fe209     1.0  0.72979  0.06844  0.20945  1.0000
  S   S415      1.0  0.72320  0.05431  0.19152  1.0000
  C   C1497     1.0  0.74316  0.10122  0.25625  1.0000
  Fe  Fe210     1.0  0.70746  0.10391  0.19505  1.0000
  S   S416      1.0  0.69944  0.09378  0.17535  1.0000
  S   S417      1.0  0.70302  0.13241  0.19661  1.0000
  Fe  Fe211     1.0  0.69503  0.07022  0.19769  1.0000
  S   S418      1.0  0.66840  0.06235  0.20192  1.0000
  Fe  Fe212     1.0  0.72775  0.07870  0.17035  1.0000
  C   C1498     1.0  0.63968  0.01243  0.21510  1.0000
  S   S419      1.0  0.70104  0.08172  0.21807  1.0000
  C   C1499     1.0  0.67349  0.14359  0.05919  1.0000
  Fe  Fe213     1.0  0.61483  0.02695  0.15454  1.0000
  S   S420      1.0  0.64216  0.01885  0.16173  1.0000
  Fe  Fe214     1.0  0.57962  0.05338  0.15742  1.0000
  S   S421      1.0  0.57099  0.04599  0.13628  1.0000
  S   S422      1.0  0.56181  0.07326  0.17328  1.0000
  Fe  Fe215     1.0  0.59951  0.04450  0.12185  1.0000
  S   S423      1.0  0.60737  0.05400  0.09237  1.0000
  S   S424      1.0  0.58768  0.02523  0.17216  1.0000
  S   S425      1.0  0.60702  0.05555  0.14125  1.0000
  H   H1797     1.0  0.58124  0.07805  0.20003  1.0000
  S   S426      1.0  0.68750  0.05447  0.01596  1.0000
  H   H1798     1.0  0.59779  0.29231  0.31510  1.0000
  H   H1799     1.0  0.62404  0.05904  0.22761  1.0000
  C   C1500     1.0  0.65555  0.07145  0.10253  1.0000
  S   S427      1.0  0.67113  0.27538  0.28861  1.0000
  Fe  Fe216     1.0  0.64233  0.27395  0.29316  1.0000
  S   S428      1.0  0.63494  0.25132  0.28613  1.0000
  Fe  Fe217     1.0  0.66417  0.28209  0.31571  1.0000
  S   S429      1.0  0.68287  0.27156  0.33508  1.0000
  S   S430      1.0  0.63633  0.27735  0.32156  1.0000
  C   C1501     1.0  0.57877  0.10990  0.04763  1.0000
  S   S431      1.0  0.72298  0.31305  0.40787  1.0000
  H   H1800     1.0  0.59140  0.17101  0.14924  1.0000
  H   H1801     1.0  0.66093  0.06533  0.09067  1.0000
  H   H1802     1.0  0.66446  0.31736  0.39794  1.0000
  H   H1803     1.0  0.65310  0.08621  0.09780  1.0000
  H   H1804     1.0  0.65438  0.08651  0.12961  1.0000
  C   C1502     1.0  0.57695  0.16176  0.17653  1.0000
  C   C1503     1.0  0.55197  0.05818  0.05545  1.0000
  H   H1805     1.0  0.64868  0.00012  0.22078  1.0000
  H   H1806     1.0  0.60252  0.08348  0.21478  1.0000
  C   C1504     1.0  0.68554  0.28694  0.34613  1.0000
  C   C1505     1.0  0.69790  0.28177  0.35726  1.0000
  C   C1506     1.0  0.70128  0.29441  0.36475  1.0000
  H   H1807     1.0  0.59637  0.26475  0.33596  1.0000
  C   C1507     1.0  0.67893  0.15377  0.06819  1.0000
  C   C1508     1.0  0.56375  0.06569  0.05997  1.0000
  H   H1808     1.0  0.70506  0.26805  0.35985  1.0000
  H   H1809     1.0  0.71117  0.29045  0.37290  1.0000
  H   H1810     1.0  0.63395  0.31255  0.42882  1.0000
  H   H1811     1.0  0.62698  0.99857  0.24989  1.0000
  C   C1509     1.0  0.67879  0.12478  0.03722  1.0000
  C   C1510     1.0  0.57514  0.25447  0.27058  1.0000
  H   H1812     1.0  0.56878  0.17546  0.20611  1.0000
  C   C1511     1.0  0.59089  0.04966  0.20519  1.0000
  S   S432      1.0  0.51075  0.00733  0.10283  1.0000
  H   H1813     1.0  0.56889  0.12826  0.00150  1.0000
  H   H1814     1.0  0.53498  0.09369  0.02563  1.0000
  C   C1512     1.0  0.66281  0.05311  0.18668  1.0000
  C   C1513     1.0  0.67451  0.03892  0.17957  1.0000
  C   C1514     1.0  0.66827  0.02911  0.17101  1.0000
  C   C1515     1.0  0.65034  0.03347  0.16937  1.0000
  C   C1516     1.0  0.63902  0.04845  0.17534  1.0000
  C   C1517     1.0  0.64525  0.05817  0.18396  1.0000
  H   H1815     1.0  0.68803  0.03476  0.18168  1.0000
  H   H1816     1.0  0.52707  0.11711  0.11400  1.0000
  H   H1817     1.0  0.63622  0.06931  0.18913  1.0000
  H   H1818     1.0  0.51476  0.16862  0.02736  1.0000
  C   C1518     1.0  0.66727  0.03602  0.07303  1.0000
  C   C1519     1.0  0.65674  0.04707  0.06123  1.0000
  C   C1520     1.0  0.63825  0.05187  0.06702  1.0000
  C   C1521     1.0  0.63029  0.04628  0.08486  1.0000
  C   C1522     1.0  0.64084  0.03492  0.09660  1.0000
  C   C1523     1.0  0.65923  0.02928  0.09052  1.0000
  H   H1819     1.0  0.66277  0.05204  0.04765  1.0000
  H   H1820     1.0  0.63034  0.06047  0.05774  1.0000
  H   H1821     1.0  0.63502  0.03075  0.11043  1.0000
  H   H1822     1.0  0.66726  0.02027  0.09959  1.0000
  C   C1524     1.0  0.66657  0.16349  0.08016  1.0000
  C   C1525     1.0  0.62637  0.11171  0.05640  1.0000
  C   C1526     1.0  0.63985  0.09638  0.05576  1.0000
  C   C1527     1.0  0.65199  0.09429  0.03978  1.0000
  C   C1528     1.0  0.65103  0.10771  0.02446  1.0000
  C   C1529     1.0  0.63732  0.12299  0.02495  1.0000
  C   C1530     1.0  0.62490  0.12495  0.04094  1.0000
  H   H1823     1.0  0.64092  0.08610  0.06768  1.0000
  H   H1824     1.0  0.66230  0.08239  0.03938  1.0000
  C   C1531     1.0  0.61067  0.32653  0.34407  1.0000
  H   H1825     1.0  0.61440  0.13676  0.04130  1.0000
  C   C1532     1.0  0.54241  0.12644  0.13781  1.0000
  C   C1533     1.0  0.53323  0.12187  0.15540  1.0000
  C   C1534     1.0  0.53944  0.10561  0.16632  1.0000
  C   C1535     1.0  0.55458  0.09370  0.15952  1.0000
  C   C1536     1.0  0.56368  0.09815  0.14184  1.0000
  C   C1537     1.0  0.55770  0.11463  0.13103  1.0000
  H   H1826     1.0  0.60069  0.08081  0.03748  1.0000
  H   H1827     1.0  0.53238  0.10214  0.17997  1.0000
  H   H1828     1.0  0.57541  0.08899  0.13655  1.0000
  H   H1829     1.0  0.56484  0.11807  0.11742  1.0000
  C   C1538     1.0  0.61197  0.25703  0.23714  1.0000
  C   C1539     1.0  0.61177  0.27228  0.24298  1.0000
  C   C1540     1.0  0.61920  0.27080  0.25764  1.0000
  C   C1541     1.0  0.62661  0.25399  0.26682  1.0000
  C   C1542     1.0  0.62697  0.23875  0.26086  1.0000
  C   C1543     1.0  0.61984  0.24025  0.24600  1.0000
  H   H1830     1.0  0.60576  0.28532  0.23617  1.0000
  H   H1831     1.0  0.61888  0.28265  0.26200  1.0000
  H   H1832     1.0  0.63266  0.22568  0.26788  1.0000
  H   H1833     1.0  0.62000  0.22839  0.24171  1.0000
  C   C1544     1.0  0.68052  0.14219  0.20283  1.0000
  C   C1545     1.0  0.66745  0.13190  0.20928  1.0000
  C   C1546     1.0  0.64944  0.14023  0.21412  1.0000
  C   C1547     1.0  0.64460  0.15882  0.21208  1.0000
  C   C1548     1.0  0.65772  0.16899  0.20537  1.0000
  C   C1549     1.0  0.67567  0.16069  0.20101  1.0000
  H   H1834     1.0  0.67121  0.11756  0.21067  1.0000
  H   H1835     1.0  0.63930  0.13232  0.21927  1.0000
  H   H1836     1.0  0.65413  0.18327  0.20372  1.0000
  H   H1837     1.0  0.68578  0.16865  0.19605  1.0000
  C   C1550     1.0  0.58685  0.21222  0.14030  1.0000
  C   C1551     1.0  0.60452  0.20560  0.13232  1.0000
  C   C1552     1.0  0.60821  0.19901  0.11666  1.0000
  C   C1553     1.0  0.59432  0.19877  0.10894  1.0000
  C   C1554     1.0  0.57667  0.20462  0.11740  1.0000
  C   C1555     1.0  0.57297  0.21140  0.13292  1.0000
  H   H1838     1.0  0.61536  0.20630  0.13774  1.0000
  H   H1839     1.0  0.62190  0.19443  0.11037  1.0000
  H   H1840     1.0  0.56583  0.20460  0.11158  1.0000
  H   H1841     1.0  0.55927  0.21642  0.13902  1.0000
  C   C1556     1.0  0.67393  0.21997  0.13901  1.0000
  C   C1557     1.0  0.69130  0.22042  0.12909  1.0000
  C   C1558     1.0  0.69794  0.21252  0.11418  1.0000
  C   C1559     1.0  0.68722  0.20411  0.10923  1.0000
  C   C1560     1.0  0.66987  0.20368  0.11912  1.0000
  C   C1561     1.0  0.66322  0.21167  0.13392  1.0000
  H   H1842     1.0  0.69959  0.22699  0.13286  1.0000
  H   H1843     1.0  0.71122  0.21324  0.10638  1.0000
  H   H1844     1.0  0.66148  0.19725  0.11533  1.0000
  H   H1845     1.0  0.64967  0.21171  0.14111  1.0000
  H   H1846     1.0  0.56555  0.11887  0.05082  1.0000
  C   C1562     1.0  0.54286  0.15818  0.02661  1.0000
  H   H1847     1.0  0.63274  0.03397  0.24850  1.0000
  C   C1563     1.0  0.67157  0.04550  0.12007  1.0000
  C   C1564     1.0  0.69449  0.06867  0.09060  1.0000
  C   C1565     1.0  0.71098  0.07363  0.08334  1.0000
  C   C1566     1.0  0.71815  0.08122  0.09294  1.0000
  H   H1848     1.0  0.67976  0.04032  0.13044  1.0000
  H   H1849     1.0  0.65918  0.04004  0.12535  1.0000
  H   H1850     1.0  0.67929  0.03972  0.10833  1.0000
  H   H1851     1.0  0.68997  0.06206  0.08292  1.0000
  H   H1852     1.0  0.71850  0.07111  0.07036  1.0000
  C   C1567     1.0  0.73679  0.14340  0.16202  1.0000
  N   N101      1.0  0.64267  0.23318  0.07551  1.0000
  C   C1568     1.0  0.63509  0.24396  0.05986  1.0000
  H   H1853     1.0  0.62866  0.21219  0.07918  1.0000
  H   H1854     1.0  0.65058  0.20895  0.06540  1.0000
  H   H1855     1.0  0.62183  0.24150  0.06031  1.0000
  H   H1856     1.0  0.64372  0.24070  0.04713  1.0000
  H   H1857     1.0  0.63349  0.25849  0.05900  1.0000
  H   H1858     1.0  0.66934  0.23060  0.05895  1.0000
  H   H1859     1.0  0.66272  0.24864  0.07054  1.0000
  H   H1860     1.0  0.65381  0.24152  0.10268  1.0000
  H   H1861     1.0  0.70563  0.15126  0.03765  1.0000
  S   S433      1.0  0.74242  0.07775  0.14223  1.0000
  H   H1862     1.0  0.70681  0.00783  0.04039  1.0000
  H   H1863     1.0  0.68314  0.30208  0.21551  1.0000
  C   C1569     1.0  0.56671  0.28079  0.32398  1.0000
  H   H1864     1.0  0.60702  0.28198  0.29611  1.0000
  H   H1865     1.0  0.60435  0.18098  0.16572  1.0000
  C   C1570     1.0  0.59422  0.14660  0.19939  1.0000
  H   H1866     1.0  0.58711  0.29909  0.29667  1.0000
  C   C1571     1.0  0.59437  0.28726  0.30492  1.0000
  H   H1867     1.0  0.63652  0.13341  0.01307  1.0000
  C   C1572     1.0  0.62961  0.31685  0.36573  1.0000
  N   N102      1.0  0.66216  0.30964  0.42653  1.0000
  H   H1868     1.0  0.51808  0.12570  0.05709  1.0000
  H   H1869     1.0  0.72733  0.27440  0.32519  1.0000
  C   C1573     1.0  0.51932  0.13420  0.06555  1.0000
  C   C1574     1.0  0.64650  0.30213  0.42793  1.0000
  C   C1575     1.0  0.70954  0.99798  0.03239  1.0000
  C   C1576     1.0  0.54738  0.01512  0.12551  1.0000
  C   C1577     1.0  0.74536  0.11880  0.25468  1.0000
  H   H1870     1.0  0.74571  0.09980  0.10691  1.0000
  H   H1871     1.0  0.54472  0.31323  0.49395  1.0000
  C   C1578     1.0  0.53452  0.08939  0.11488  1.0000
  C   C1579     1.0  0.67916  0.31710  0.35091  1.0000
  H   H1872     1.0  0.67108  0.17123  0.08679  1.0000
  H   H1873     1.0  0.55899  0.29253  0.31604  1.0000
  H   H1874     1.0  0.55103  0.04439  0.06141  1.0000
  C   C1580     1.0  0.52683  0.10690  0.10750  1.0000
  C   C1581     1.0  0.56737  0.16479  0.14878  1.0000
  H   H1875     1.0  0.58830  0.24735  0.11495  1.0000
  N   N103      1.0  0.66654  0.25892  0.19613  1.0000
  C   C1582     1.0  0.67628  0.23999  0.19839  1.0000
  C   C1583     1.0  0.64731  0.25954  0.19827  1.0000
  C   C1584     1.0  0.67313  0.26804  0.17755  1.0000
  C   C1585     1.0  0.66892  0.26705  0.20983  1.0000
  C   C1586     1.0  0.67585  0.28280  0.20553  1.0000
  C   C1587     1.0  0.66408  0.25925  0.22819  1.0000
  C   C1588     1.0  0.67797  0.28999  0.21890  1.0000
  C   C1589     1.0  0.66649  0.26643  0.24138  1.0000
  C   C1590     1.0  0.67338  0.28177  0.23675  1.0000
  H   H1876     1.0  0.67073  0.23160  0.21120  1.0000
  H   H1877     1.0  0.67546  0.23367  0.18781  1.0000
  H   H1878     1.0  0.69066  0.23886  0.19788  1.0000
  H   H1879     1.0  0.64191  0.25105  0.21103  1.0000
  H   H1880     1.0  0.64472  0.25465  0.18752  1.0000
  H   H1881     1.0  0.63918  0.27334  0.19813  1.0000
  H   H1882     1.0  0.68762  0.26792  0.17495  1.0000
  H   H1883     1.0  0.67144  0.26130  0.16765  1.0000
  H   H1884     1.0  0.66554  0.28205  0.17453  1.0000
  H   H1885     1.0  0.67965  0.28988  0.19200  1.0000
  H   H1886     1.0  0.65823  0.24758  0.23255  1.0000
  Fe  Fe218     1.0  0.71585  0.05009  0.00093  1.0000
  S   S434      1.0  0.74536  0.08213  0.03218  1.0000
  H   H1887     1.0  0.67507  0.28737  0.24704  1.0000
  C   C1591     1.0  0.54283  0.08592  0.03547  1.0000
  H   H1888     1.0  0.63518  0.31112  0.45795  1.0000
  C   C1592     1.0  0.54156  0.06827  0.04320  1.0000
  H   H1889     1.0  0.63883  0.17076  0.09285  1.0000
  H   H1890     1.0  0.71713  0.30509  0.32783  1.0000
  C   C1593     1.0  0.61562  0.03779  0.22100  1.0000
  C   C1594     1.0  0.73091  0.09818  0.24822  1.0000
  H   H1891     1.0  0.58268  0.14363  0.21027  1.0000
  H   H1892     1.0  0.74148  0.14741  0.26945  1.0000
  C   C1595     1.0  0.53530  0.01725  0.11463  1.0000
  C   C1596     1.0  0.58431  0.24254  0.28308  1.0000
  H   H1893     1.0  0.56614  0.29202  0.28643  1.0000
  H   H1894     1.0  0.58296  0.11126  0.03292  1.0000
  H   H1895     1.0  0.60666  0.08554  0.05577  1.0000
  C   C1597     1.0  0.64032  0.02716  0.23738  1.0000
  C   C1598     1.0  0.66984  0.01056  0.04087  1.0000
  H   H1896     1.0  0.71147  0.10992  0.23179  1.0000
  H   H1897     1.0  0.57165  0.05729  0.06947  1.0000
  C   C1599     1.0  0.60317  0.03526  0.21247  1.0000
  H   H1898     1.0  0.51362  0.14823  0.05951  1.0000
  H   H1899     1.0  0.59953  0.13507  0.19267  1.0000
  H   H1900     1.0  0.56972  0.16832  0.13434  1.0000
  H   H1901     1.0  0.59510  0.23848  0.30569  1.0000
  H   H1902     1.0  0.70775  0.12529  0.06143  1.0000
  Fe  Fe219     1.0  0.62891  0.30657  0.30976  1.0000
  H   H1903     1.0  0.54028  0.08674  0.12650  1.0000
  N   N104      1.0  0.57841  0.09109  0.05691  1.0000
  C   C1600     1.0  0.51072  0.14292  0.09371  1.0000
  H   H1904     1.0  0.53378  0.13334  0.06424  1.0000
  C   C1601     1.0  0.72254  0.12972  0.23643  1.0000
  H   H1905     1.0  0.69283  0.15429  0.06602  1.0000
  H   H1906     1.0  0.58850  0.11506  0.05168  1.0000
  C   C1602     1.0  0.74119  0.25350  0.34254  1.0000
  H   H1907     1.0  0.61014  0.00409  0.23720  1.0000
  N   N105      1.0  0.71350  0.15531  0.14272  1.0000
  C   C1603     1.0  0.71157  0.13651  0.14636  1.0000
  C   C1604     1.0  0.69591  0.16613  0.14965  1.0000
  C   C1605     1.0  0.71824  0.16136  0.12311  1.0000
  C   C1606     1.0  0.72723  0.15765  0.15084  1.0000
  C   C1607     1.0  0.69630  0.31820  0.27908  1.0000
  H   H1908     1.0  0.73444  0.13004  0.16543  1.0000
  C   C1608     1.0  0.73455  0.13297  0.24461  1.0000
  H   H1909     1.0  0.71458  0.14065  0.22852  1.0000
  H   H1910     1.0  0.64834  0.02085  0.20509  1.0000
  H   H1911     1.0  0.70705  0.13130  0.16084  1.0000
  H   H1912     1.0  0.70144  0.13515  0.13980  1.0000
  H   H1913     1.0  0.72437  0.12766  0.14138  1.0000
  N   N106      1.0  0.51034  0.12909  0.08449  1.0000
  H   H1914     1.0  0.68517  0.16472  0.14390  1.0000
  H   H1915     1.0  0.69591  0.18060  0.14653  1.0000
  H   H1916     1.0  0.71790  0.17588  0.11898  1.0000
  H   H1917     1.0  0.73194  0.15430  0.11769  1.0000
  H   H1918     1.0  0.70880  0.15894  0.11634  1.0000
  H   H1919     1.0  0.73537  0.14669  0.24288  1.0000
  H   H1920     1.0  0.66898  0.13453  0.02977  1.0000
  H   H1921     1.0  0.51223  0.02946  0.14859  1.0000
  C   C1609     1.0  0.68449  0.07147  0.10769  1.0000
  H   H1922     1.0  0.56051  0.09842  0.08059  1.0000
  H   H1923     1.0  0.51425  0.09800  0.07350  1.0000
  H   H1924     1.0  0.64491  0.29095  0.43970  1.0000
  H   H1925     1.0  0.62520  0.05201  0.17416  1.0000
  S   S435      1.0  0.66793  0.10597  0.00535  1.0000
  N   N107      1.0  0.66749  0.06527  0.11549  1.0000
  H   H1926     1.0  0.64228  0.06778  0.10842  1.0000
  H   H1927     1.0  0.64950  0.13583  0.05740  1.0000
  Fe  Fe220     1.0  0.68996  0.08266  0.01229  1.0000
  N   N108      1.0  0.62823  0.02223  0.22897  1.0000
  Fe  Fe221     1.0  0.72470  0.18955  0.08017  1.0000
  H   H1928     1.0  0.68757  0.02849  0.99903  1.0000
  H   H1929     1.0  0.73562  0.00358  0.01981  1.0000
  H   H1930     1.0  0.62863  0.15289  0.07809  1.0000
  H   H1931     1.0  0.55747  0.15304  0.20031  1.0000
  C   C1610     1.0  0.53472  0.07529  0.10752  1.0000
  C   C1611     1.0  0.69229  0.07911  0.11720  1.0000
  C   C1612     1.0  0.70888  0.08387  0.10986  1.0000
  H   H1932     1.0  0.66449  0.06600  0.14314  1.0000
  H   H1933     1.0  0.64426  0.06743  0.13700  1.0000
  C   C1613     1.0  0.64242  0.21420  0.07735  1.0000
  C   C1614     1.0  0.66162  0.23471  0.07163  1.0000
  Fe  Fe222     1.0  0.58073  0.01777  0.14974  1.0000
  H   H1934     1.0  0.71483  0.08919  0.11756  1.0000
  C   C1615     1.0  0.69689  0.14600  0.03240  1.0000
  H   H1935     1.0  0.60851  0.01714  0.25305  1.0000
  H   H1936     1.0  0.63447  0.30581  0.34258  1.0000
  C   C1616     1.0  0.65731  0.07169  0.13198  1.0000
  H   H1937     1.0  0.64982  0.01526  0.24298  1.0000
  H   H1938     1.0  0.57361  0.25010  0.25938  1.0000
  S   S436      1.0  0.60890  0.01581  0.13399  1.0000
  H   H1939     1.0  0.55366  0.02590  0.12443  1.0000
  H   H1940     1.0  0.53262  0.06234  0.03954  1.0000
  H   H1941     1.0  0.68608  0.08115  0.13053  1.0000
  C   C1617     1.0  0.63188  0.23920  0.09197  1.0000
  C   C1618     1.0  0.63961  0.24286  0.10445  1.0000
  H   H1942     1.0  0.56874  0.28557  0.33510  1.0000
  H   H1943     1.0  0.60459  0.14719  0.20618  1.0000
  H   H1944     1.0  0.60290  0.02214  0.21121  1.0000
  H   H1945     1.0  0.64871  0.03610  0.22746  1.0000
  C   C1619     1.0  0.51607  0.00991  0.17241  1.0000
  H   H1946     1.0  0.73815  0.12774  0.28627  1.0000
  H   H1947     1.0  0.64785  0.20569  0.08908  1.0000
  H   H1948     1.0  0.66869  0.22575  0.08206  1.0000
  H   H1949     1.0  0.57456  0.07659  0.08440  1.0000
  H   H1950     1.0  0.67714  0.01755  0.16643  1.0000
  H   H1951     1.0  0.69238  0.11064  0.06717  1.0000
  H   H1952     1.0  0.70591  0.13924  0.02171  1.0000
  H   H1953     1.0  0.69059  0.29958  0.42376  1.0000
  H   H1954     1.0  0.67772  0.01968  0.04187  1.0000
  H   H1955     1.0  0.70910  0.11110  0.04695  1.0000
  C   C1620     1.0  0.57981  0.16619  0.15760  1.0000
  C   C1621     1.0  0.55453  0.09356  0.03995  1.0000
  H   H1956     1.0  0.63526  0.25034  0.12965  1.0000
  C   C1622     1.0  0.61306  0.24090  0.09628  1.0000
  C   C1623     1.0  0.62905  0.24805  0.12009  1.0000
  H   H1957     1.0  0.60627  0.23734  0.08806  1.0000
  C   C1624     1.0  0.67594  0.30454  0.34342  1.0000
  C   C1625     1.0  0.58719  0.24829  0.29701  1.0000
  H   H1958     1.0  0.53634  0.15031  0.18434  1.0000
  C   C1626     1.0  0.56548  0.08362  0.05227  1.0000
  H   H1959     1.0  0.73266  0.24450  0.34354  1.0000
  H   H1960     1.0  0.55493  0.10719  0.03333  1.0000
  H   H1961     1.0  0.66588  0.30856  0.33568  1.0000
  H   H1962     1.0  0.56382  0.18877  0.99774  1.0000
  C   C1627     1.0  0.52732  0.07864  0.09266  1.0000
  C   C1628     1.0  0.61490  0.05565  0.22179  1.0000
  H   H1963     1.0  0.54213  0.15824  0.15152  1.0000
  S   S437      1.0  0.65619  0.31148  0.30540  1.0000
  H   H1964     1.0  0.65660  0.01360  0.04996  1.0000
  C   C1629     1.0  0.69207  0.31220  0.36128  1.0000
  H   H1965     1.0  0.52139  0.13096  0.16064  1.0000
  S   S438      1.0  0.62370  0.32955  0.39579  1.0000
  C   C1630     1.0  0.65496  0.14340  0.06327  1.0000
  H   H1966     1.0  0.50413  0.15653  0.08749  1.0000
  H   H1967     1.0  0.68765  0.15757  0.02595  1.0000
  H   H1968     1.0  0.69203  0.16195  0.16441  1.0000
  H   H1969     1.0  0.67208  0.11434  0.04679  1.0000
  H   H1970     1.0  0.73363  0.29469  0.30082  1.0000
  H   H1971     1.0  0.60244  0.25358  0.13599  1.0000
  Fe  Fe223     1.0  0.72083  0.32583  0.37964  1.0000
  C   C1631     1.0  0.72838  0.31125  0.32716  1.0000
  H   H1972     1.0  0.69120  0.30650  0.28663  1.0000
  H   H1973     1.0  0.60767  0.25346  0.31829  1.0000
  H   H1974     1.0  0.68899  0.11790  0.02721  1.0000
  C   C1632     1.0  0.60262  0.24649  0.11174  1.0000
  C   C1633     1.0  0.61059  0.24992  0.12369  1.0000
  C   C1634     1.0  0.52693  0.00338  0.11580  1.0000
  H   H1975     1.0  0.57082  0.14600  0.02213  1.0000
  C   C1635     1.0  0.60259  0.06996  0.21435  1.0000
  C   C1636     1.0  0.55098  0.99919  0.13798  1.0000
  H   H1976     1.0  0.61615  0.16783  0.18254  1.0000
  C   C1637     1.0  0.59065  0.06696  0.20602  1.0000
  C   C1638     1.0  0.55179  0.15910  0.15843  1.0000
  C   C1639     1.0  0.56858  0.27220  0.27207  1.0000
  C   C1640     1.0  0.52535  0.14930  0.01057  1.0000
  C   C1641     1.0  0.54060  0.13794  0.00309  1.0000
  C   C1642     1.0  0.54853  0.15472  0.17695  1.0000
  H   H1977     1.0  0.59799  0.06624  0.05902  1.0000
  C   C1643     1.0  0.66049  0.31807  0.44157  1.0000
  C   C1644     1.0  0.64848  0.16323  0.08362  1.0000
  C   C1645     1.0  0.56082  0.15614  0.18593  1.0000
  C   C1646     1.0  0.55807  0.14671  0.01925  1.0000
  C   C1647     1.0  0.72073  0.11236  0.23824  1.0000
  H   H1978     1.0  0.58987  0.22889  0.28152  1.0000
  C   C1648     1.0  0.64273  0.15315  0.07526  1.0000
  C   C1649     1.0  0.57403  0.09040  0.07636  1.0000
  Fe  Fe224     1.0  0.66121  0.30457  0.27887  1.0000
  H   H1979     1.0  0.61338  0.15736  0.16646  1.0000
  N   N109      1.0  0.58957  0.16346  0.18638  1.0000
  H   H1980     1.0  0.66962  0.00711  0.99979  1.0000
  C   C1650     1.0  0.61802  0.00999  0.24287  1.0000
  H   H1981     1.0  0.66284  0.26015  0.25533  1.0000
  H   H1982     1.0  0.74063  0.26845  0.40175  1.0000
  H   H1983     1.0  0.58153  0.04746  0.19868  1.0000
  C   C1651     1.0  0.69954  0.11962  0.05593  1.0000
  H   H1984     1.0  0.72538  0.32519  0.31949  1.0000
  C   C1652     1.0  0.58072  0.26633  0.29891  1.0000
  N   N110      1.0  0.58395  0.27311  0.31314  1.0000
  H   H1985     1.0  0.52614  0.01555  0.17458  1.0000
  C   C1653     1.0  0.67812  0.29486  0.42581  1.0000
  H   H1986     1.0  0.72955  0.08466  0.24941  1.0000
  C   C1654     1.0  0.60658  0.16757  0.17466  1.0000
  S   S439      1.0  0.74615  0.19321  0.09163  1.0000
  C   C1655     1.0  0.59412  0.25920  0.32548  1.0000
  H   H1987     1.0  0.58696  0.24819  0.33244  1.0000
  H   H1988     1.0  0.58376  0.09557  0.08041  1.0000
  H   H1989     1.0  0.73114  0.08463  0.08743  1.0000
  H   H1990     1.0  0.72813  0.31198  0.34099  1.0000
  C   C1656     1.0  0.55696  0.13682  0.00741  1.0000
  C   C1657     1.0  0.73838  0.27066  0.33190  1.0000
  S   S440      1.0  0.73684  0.16103  0.07854  1.0000
  H   H1991     1.0  0.53234  0.02977  0.10534  1.0000
  C   C1658     1.0  0.57122  0.27807  0.28605  1.0000
  S   S441      1.0  0.69653  0.32906  0.36887  1.0000
  C   C1659     1.0  0.62581  0.31558  0.34996  1.0000
  H   H1992     1.0  0.64129  0.30814  0.37022  1.0000
  H   H1993     1.0  0.73851  0.11486  0.00533  1.0000
  H   H1994     1.0  0.54059  0.06173  0.11340  1.0000
  S   S442      1.0  0.63283  0.30302  0.28172  1.0000
  C   C1660     1.0  0.52654  0.15950  0.02207  1.0000
  C   C1661     1.0  0.58107  0.17809  0.19615  1.0000
  H   H1995     1.0  0.55820  0.27071  0.32985  1.0000
  H   H1996     1.0  0.52461  0.14373  0.09309  1.0000
  H   H1997     1.0  0.59021  0.18009  0.20352  1.0000
  H   H1998     1.0  0.57722  0.19098  0.18682  1.0000
  S   S443      1.0  0.73622  0.09146  0.18758  1.0000
  H   H1999     1.0  0.64767  0.29677  0.41598  1.0000
  C   C1662     1.0  0.59668  0.08046  0.05204  1.0000
  H   H2000     1.0  0.73734  0.23931  0.39839  1.0000
  H   H2001     1.0  0.67984  0.28822  0.41460  1.0000
  H   H2002     1.0  0.67717  0.28457  0.43843  1.0000
  N   N111      1.0  0.68683  0.13365  0.04639  1.0000
  H   H2003     1.0  0.51269  0.15041  0.00733  1.0000
  C   C1663     1.0  0.51976  0.09611  0.08505  1.0000
  H   H2004     1.0  0.56181  0.28150  0.26205  1.0000
  C   C1664     1.0  0.74169  0.11815  0.01631  1.0000
  H   H2005     1.0  0.52734  0.06758  0.08711  1.0000
  C   C1665     1.0  0.51911  0.11080  0.09235  1.0000
  H   H2006     1.0  0.66773  0.01433  0.02702  1.0000
  H   H2007     1.0  0.63194  0.00832  0.20770  1.0000
  S   S444      1.0  0.73705  0.20073  0.05197  1.0000
  S   S445      1.0  0.60604  0.32480  0.32416  1.0000
  S   S446      1.0  0.71770  0.07915  0.99538  1.0000
  H   H2008     1.0  0.53167  0.20146  0.00564  1.0000
  S   S447      1.0  0.67694  0.32001  0.25486  1.0000
  C   C1666     1.0  0.74840  0.13414  0.27592  1.0000
  C   C1667     1.0  0.74520  0.10472  0.03112  1.0000
  H   H2009     1.0  0.50377  0.14032  0.10798  1.0000
  C   C1668     1.0  0.50824  0.01771  0.15773  1.0000
  H   H2010     1.0  0.70757  0.31983  0.30008  1.0000
  N   N112      1.0  0.74578  0.30101  0.31913  1.0000
  H   H2011     1.0  0.74395  0.31321  0.29175  1.0000
  H   H2012     1.0  0.74104  0.14585  0.00349  1.0000
  C   C1669     1.0  0.74525  0.29988  0.30096  1.0000
  C   C1670     1.0  0.74320  0.13569  0.01527  1.0000
  H   H2013     1.0  0.57201  0.32325  0.47501  1.0000
  C   C1671     1.0  0.64597  0.31756  0.45660  1.0000
  C   C1672     1.0  0.66425  0.32296  0.40945  1.0000
  H   H2014     1.0  0.63346  0.32549  0.48168  1.0000
  C   C1673     1.0  0.69277  0.32633  0.26217  1.0000
  C   C1674     1.0  0.56753  0.32511  0.48857  1.0000
  C   C1675     1.0  0.74766  0.14009  0.02926  1.0000
  C   C1676     1.0  0.70602  0.32549  0.28654  1.0000
  H   H2015     1.0  0.72444  0.18622  0.13948  1.0000
  C   C1677     1.0  0.64474  0.32585  0.47045  1.0000
  C   C1678     1.0  0.61827  0.32898  0.37589  1.0000
  C   C1679     1.0  0.73133  0.17470  0.14767  1.0000
  H   H2016     1.0  0.67689  0.32773  0.40615  1.0000
  C   C1680     1.0  0.67377  0.32699  0.44161  1.0000
  H   H2017     1.0  0.68543  0.32764  0.43090  1.0000
  C   C1681     1.0  0.74910  0.28289  0.33049  1.0000
  S   S448      1.0  0.74901  0.05626  0.22845  1.0000
  H   H2018     1.0  0.74740  0.19033  0.15217  1.0000
  C   C1682     1.0  0.74441  0.17722  0.15496  1.0000
  C   C1683     1.0  0.69018  0.04272  0.94595  1.0000
  H   H2019     1.0  0.54317  0.01311  0.78579  1.0000
  C   C1684     1.0  0.55054  0.17971  0.96446  1.0000
  C   C1685     1.0  0.53184  0.18650  0.96883  1.0000
  C   C1686     1.0  0.53764  0.02109  0.84661  1.0000
  C   C1687     1.0  0.56616  0.04411  0.79802  1.0000
  H   H2020     1.0  0.70143  0.00925  0.93623  1.0000
  C   C1688     1.0  0.67499  0.03908  0.94250  1.0000
  H   H2021     1.0  0.64586  0.04646  0.94809  1.0000
  S   S449      1.0  0.52640  0.31519  0.52974  1.0000
  C   C1689     1.0  0.52417  0.19623  0.93982  1.0000
  H   H2022     1.0  0.52580  0.03304  0.80623  1.0000
  C   C1690     1.0  0.57653  0.03315  0.78586  1.0000
  H   H2023     1.0  0.55650  0.17343  0.95318  1.0000
  H   H2024     1.0  0.64307  0.00228  0.87404  1.0000
  C   C1691     1.0  0.68834  0.05497  0.95641  1.0000
  C   C1692     1.0  0.71042  0.01747  0.98076  1.0000
  H   H2025     1.0  0.67541  0.04669  0.90757  1.0000
  C   C1693     1.0  0.66856  0.03571  0.91561  1.0000
  C   C1694     1.0  0.56191  0.18059  0.97475  1.0000
  H   H2026     1.0  0.66778  0.00197  0.93426  1.0000
  S   S450      1.0  0.50690  0.31108  0.58208  1.0000
  H   H2027     1.0  0.64324  0.06750  0.96657  1.0000
  H   H2028     1.0  0.69543  0.00737  0.91687  1.0000
  H   H2029     1.0  0.60450  0.00803  0.77043  1.0000
  H   H2030     1.0  0.53646  0.16130  0.94862  1.0000
  H   H2031     1.0  0.65171  0.01760  0.94574  1.0000
  C   C1695     1.0  0.56905  0.00695  0.83887  1.0000
  S   S451      1.0  0.51362  0.12707  0.95071  1.0000
  C   C1696     1.0  0.53976  0.03328  0.80037  1.0000
  H   H2032     1.0  0.51536  0.19558  0.93129  1.0000
  C   C1697     1.0  0.52299  0.16627  0.95632  1.0000
  H   H2033     1.0  0.60085  0.03450  0.80353  1.0000
  H   H2034     1.0  0.57454  0.00390  0.87789  1.0000
  Fe  Fe225     1.0  0.51503  0.12427  0.97939  1.0000
  H   H2035     1.0  0.58972  0.05816  0.75984  1.0000
  H   H2036     1.0  0.52149  0.15725  0.96970  1.0000
  C   C1698     1.0  0.60557  0.02635  0.79313  1.0000
  C   C1699     1.0  0.50484  0.15591  0.80802  1.0000
  C   C1700     1.0  0.65800  0.04849  0.95015  1.0000
  H   H2037     1.0  0.51336  0.16453  0.94933  1.0000
  C   C1701     1.0  0.66628  0.01227  0.94194  1.0000
  H   H2038     1.0  0.70321  0.02669  0.91626  1.0000
  N   N113      1.0  0.59569  0.03341  0.77851  1.0000
  C   C1702     1.0  0.53294  0.00802  0.84107  1.0000
  H   H2039     1.0  0.51191  0.16586  0.80796  1.0000
  C   C1703     1.0  0.69495  0.01707  0.92494  1.0000
  C   C1704     1.0  0.54628  0.32163  0.51697  1.0000
  C   C1705     1.0  0.60418  0.02249  0.76475  1.0000
  H   H2040     1.0  0.73042  0.00373  0.96192  1.0000
  H   H2041     1.0  0.57458  0.01265  0.77300  1.0000
  C   C1706     1.0  0.65634  0.06060  0.96072  1.0000
  H   H2042     1.0  0.65615  0.99709  0.72520  1.0000
  C   C1707     1.0  0.71708  0.00459  0.97010  1.0000
  H   H2043     1.0  0.57209  0.05235  0.80257  1.0000
  Fe  Fe226     1.0  0.51318  0.32693  0.55400  1.0000
  H   H2044     1.0  0.70366  0.03608  0.94103  1.0000
  S   S452      1.0  0.51061  0.00879  0.84134  1.0000
  H   H2045     1.0  0.59400  0.06067  0.78000  1.0000
  C   C1708     1.0  0.67149  0.06380  0.96388  1.0000
  H   H2046     1.0  0.62017  0.02574  0.78818  1.0000
  H   H2047     1.0  0.52738  0.03171  0.85154  1.0000
  H   H2048     1.0  0.59726  0.02691  0.75340  1.0000
  H   H2049     1.0  0.50077  0.29756  0.63852  1.0000
  C   C1709     1.0  0.50437  0.14089  0.82183  1.0000
  C   C1710     1.0  0.55571  0.02058  0.84543  1.0000
  H   H2050     1.0  0.65409  0.04162  0.91930  1.0000
  H   H2051     1.0  0.61842  0.02342  0.75908  1.0000
  H   H2052     1.0  0.54042  0.05252  0.81446  1.0000
  H   H2053     1.0  0.55824  0.00094  0.89840  1.0000
  H   H2054     1.0  0.55933  0.03079  0.84960  1.0000
  S   S453      1.0  0.59150  0.00628  0.83801  1.0000
  C   C1711     1.0  0.55214  0.31937  0.49933  1.0000
  N   N114      1.0  0.67633  0.02626  0.93145  1.0000
  C   C1712     1.0  0.59792  0.05197  0.77015  1.0000
  C   C1713     1.0  0.56774  0.02187  0.78165  1.0000
  H   H2055     1.0  0.52230  0.21046  0.94038  1.0000
  C   C1714     1.0  0.54962  0.02201  0.78886  1.0000
  H   H2056     1.0  0.53816  0.19183  0.93281  1.0000
  C   C1715     1.0  0.52535  0.19474  0.98381  1.0000
  C   C1716     1.0  0.54802  0.04428  0.80496  1.0000
  N   N115      1.0  0.52003  0.18506  0.95792  1.0000
  S   S454      1.0  0.72398  0.03205  0.98076  1.0000
  H   H2057     1.0  0.66971  0.02648  0.90679  1.0000
  H   H2058     1.0  0.61210  0.05245  0.76361  1.0000
  H   H2059     1.0  0.67023  0.07306  0.97221  1.0000
  H   H2060     1.0  0.70011  0.05734  0.95909  1.0000
  H   H2061     1.0  0.60379  0.01262  0.79998  1.0000
  H   H2062     1.0  0.51117  0.13909  0.83252  1.0000
  H   H2063     1.0  0.57606  0.17483  0.97148  1.0000
  H   H2064     1.0  0.67109  0.00537  0.95443  1.0000
  H   H2065     1.0  0.51139  0.20025  0.98826  1.0000
  S   S455      1.0  0.53991  0.12493  0.98832  1.0000
  C   C1717     1.0  0.55596  0.32950  0.52389  1.0000
  C   C1718     1.0  0.55509  0.18852  0.98946  1.0000
  C   C1719     1.0  0.69311  0.01846  0.99116  1.0000
  S   S456      1.0  0.50128  0.08107  0.94845  1.0000
  C   C1720     1.0  0.50071  0.19086  0.96546  1.0000
  S   S457      1.0  0.50293  0.09995  0.98848  1.0000
  C   C1721     1.0  0.68290  0.00634  0.99153  1.0000
  H   H2066     1.0  0.49975  0.11110  0.91774  1.0000
  C   C1722     1.0  0.53689  0.19569  0.99389  1.0000
  C   C1723     1.0  0.64264  0.37555  0.36152  1.0000
  H   H2067     1.0  0.67231  0.56925  0.44481  1.0000
  C   C1724     1.0  0.73801  0.38989  0.32203  1.0000
  C   C1725     1.0  0.54432  0.53933  0.37042  1.0000
  C   C1726     1.0  0.50173  0.51121  0.34101  1.0000
  N   N116      1.0  0.73234  0.44589  0.48972  1.0000
  H   H2068     1.0  0.68734  0.43217  0.34734  1.0000
  Fe  Fe227     1.0  0.73458  0.40844  0.24512  1.0000
  C   C1727     1.0  0.73468  0.39499  0.42557  1.0000
  Fe  Fe228     1.0  0.60653  0.38170  0.42363  1.0000
  S   S458      1.0  0.58315  0.37998  0.44645  1.0000
  S   S459      1.0  0.61982  0.40503  0.41472  1.0000
  C   C1728     1.0  0.54089  0.36794  0.47436  1.0000
  H   H2069     1.0  0.51835  0.54613  0.44217  1.0000
  Fe  Fe229     1.0  0.57164  0.37095  0.42860  1.0000
  S   S460      1.0  0.54370  0.38373  0.42572  1.0000
  H   H2070     1.0  0.51537  0.56293  0.38261  1.0000
  S   S461      1.0  0.59383  0.37536  0.40483  1.0000
  Fe  Fe230     1.0  0.66033  0.44159  0.46763  1.0000
  S   S462      1.0  0.67492  0.44436  0.43921  1.0000
  S   S463      1.0  0.64234  0.42189  0.47783  1.0000
  Fe  Fe231     1.0  0.67841  0.46780  0.47493  1.0000
  S   S464      1.0  0.69428  0.47264  0.44672  1.0000
  C   C1729     1.0  0.51277  0.65804  0.47891  1.0000
  Fe  Fe232     1.0  0.66874  0.47346  0.43916  1.0000
  S   S465      1.0  0.65958  0.49205  0.41516  1.0000
  Fe  Fe233     1.0  0.69878  0.44290  0.44959  1.0000
  S   S466      1.0  0.65233  0.47100  0.46705  1.0000
  S   S467      1.0  0.68480  0.43786  0.47826  1.0000
  H   H2071     1.0  0.67081  0.39832  0.42735  1.0000
  H   H2072     1.0  0.67592  0.46463  0.34399  1.0000
  C   C1730     1.0  0.60757  0.39320  0.35243  1.0000
  Fe  Fe234     1.0  0.69627  0.41464  0.26603  1.0000
  S   S468      1.0  0.71227  0.39418  0.25010  1.0000
  S   S469      1.0  0.66689  0.42547  0.26806  1.0000
  Fe  Fe235     1.0  0.72625  0.41306  0.28305  1.0000
  C   C1731     1.0  0.50405  0.52874  0.33763  1.0000
  H   H2073     1.0  0.54329  0.35888  0.46504  1.0000
  H   H2074     1.0  0.65639  0.38795  0.42149  1.0000
  Fe  Fe236     1.0  0.72167  0.37941  0.27520  1.0000
  S   S470      1.0  0.72406  0.35011  0.28684  1.0000
  S   S471      1.0  0.71756  0.43068  0.25847  1.0000
  S   S472      1.0  0.70383  0.39865  0.29163  1.0000
  Fe  Fe237     1.0  0.61161  0.47302  0.34249  1.0000
  S   S473      1.0  0.59864  0.49731  0.35416  1.0000
  S   S474      1.0  0.64107  0.46674  0.33101  1.0000
  Fe  Fe238     1.0  0.57847  0.45754  0.35570  1.0000
  S   S475      1.0  0.56281  0.47986  0.36929  1.0000
  S   S476      1.0  0.56608  0.43616  0.35367  1.0000
  Fe  Fe239     1.0  0.57484  0.49718  0.34420  1.0000
  S   S477      1.0  0.55722  0.52211  0.33232  1.0000
  Fe  Fe240     1.0  0.58789  0.47793  0.37813  1.0000
  S   S478      1.0  0.58785  0.47811  0.40632  1.0000
  S   S479      1.0  0.58888  0.47496  0.32993  1.0000
  S   S480      1.0  0.60237  0.45363  0.36720  1.0000
  C   C1732     1.0  0.66263  0.52839  0.45433  1.0000
  H   H2075     1.0  0.55689  0.51137  0.39749  1.0000
  H   H2076     1.0  0.57340  0.46259  0.44508  1.0000
  C   C1733     1.0  0.70036  0.34080  0.25207  1.0000
  H   H2077     1.0  0.68337  0.47123  0.36780  1.0000
  H   H2078     1.0  0.63236  0.36969  0.37148  1.0000
  H   H2079     1.0  0.72451  0.46645  0.33218  1.0000
  C   C1734     1.0  0.55253  0.51627  0.42342  1.0000
  H   H2080     1.0  0.69968  0.43649  0.32466  1.0000
  C   C1735     1.0  0.66698  0.42718  0.40008  1.0000
  C   C1736     1.0  0.67780  0.38026  0.39133  1.0000
  C   C1737     1.0  0.65028  0.44723  0.37864  1.0000
  H   H2081     1.0  0.68481  0.36689  0.39769  1.0000
  C   C1738     1.0  0.53610  0.51793  0.33445  1.0000
  C   C1739     1.0  0.52123  0.53212  0.33408  1.0000
  H   H2082     1.0  0.72065  0.52044  0.47217  1.0000
  H   H2083     1.0  0.58457  0.40509  0.31087  1.0000
  C   C1740     1.0  0.51666  0.49709  0.34072  1.0000
  C   C1741     1.0  0.53380  0.50043  0.33768  1.0000
  H   H2084     1.0  0.52298  0.54568  0.33149  1.0000
  H   H2085     1.0  0.61204  0.38781  0.34011  1.0000
  H   H2086     1.0  0.51497  0.48351  0.34324  1.0000
  H   H2087     1.0  0.54524  0.48941  0.33777  1.0000
  C   C1742     1.0  0.65929  0.43725  0.28529  1.0000
  C   C1743     1.0  0.64099  0.44330  0.29153  1.0000
  C   C1744     1.0  0.63512  0.45240  0.30563  1.0000
  C   C1745     1.0  0.64757  0.45555  0.31334  1.0000
  C   C1746     1.0  0.66576  0.44952  0.30701  1.0000
  C   C1747     1.0  0.67163  0.44037  0.29308  1.0000
  H   H2088     1.0  0.63142  0.44117  0.28532  1.0000
  H   H2089     1.0  0.62104  0.45720  0.31027  1.0000
  H   H2090     1.0  0.67536  0.45214  0.31270  1.0000
  H   H2091     1.0  0.68576  0.43612  0.28814  1.0000
  H   H2092     1.0  0.52088  0.52025  0.37014  1.0000
  H   H2093     1.0  0.72037  0.45746  0.31550  1.0000
  H   H2094     1.0  0.55563  0.52758  0.36953  1.0000
  Fe  Fe241     1.0  0.59601  0.35105  0.45338  1.0000
  H   H2095     1.0  0.60094  0.41499  0.37428  1.0000
  C   C1748     1.0  0.66694  0.54455  0.44446  1.0000
  H   H2096     1.0  0.61702  0.39605  0.38200  1.0000
  H   H2097     1.0  0.54096  0.54366  0.35701  1.0000
  H   H2098     1.0  0.59423  0.34945  0.37783  1.0000
  N   N117      1.0  0.50495  0.65359  0.46613  1.0000
  C   C1749     1.0  0.70215  0.50275  0.48288  1.0000
  C   C1750     1.0  0.52675  0.53868  0.43222  1.0000
  C   C1751     1.0  0.56139  0.45788  0.44522  1.0000
  H   H2099     1.0  0.50189  0.40874  0.48121  1.0000
  H   H2100     1.0  0.70469  0.49808  0.47069  1.0000
  C   C1752     1.0  0.63969  0.48807  0.41278  1.0000
  C   C1753     1.0  0.63536  0.49287  0.39599  1.0000
  C   C1754     1.0  0.61968  0.48947  0.39388  1.0000
  C   C1755     1.0  0.60802  0.48165  0.40860  1.0000
  C   C1756     1.0  0.61234  0.47692  0.42541  1.0000
  C   C1757     1.0  0.62823  0.47994  0.42746  1.0000
  H   H2101     1.0  0.64417  0.49914  0.38457  1.0000
  H   H2102     1.0  0.61652  0.49324  0.38089  1.0000
  H   H2103     1.0  0.60352  0.47078  0.43688  1.0000
  H   H2104     1.0  0.63144  0.47620  0.44046  1.0000
  H   H2105     1.0  0.69874  0.40349  0.40630  1.0000
  H   H2106     1.0  0.65860  0.59022  0.46164  1.0000
  H   H2107     1.0  0.67162  0.34788  0.30994  1.0000
  H   H2108     1.0  0.65644  0.45519  0.39966  1.0000
  H   H2109     1.0  0.58755  0.34735  0.34969  1.0000
  C   C1758     1.0  0.72168  0.40515  0.43684  1.0000
  S   S481      1.0  0.72460  0.35234  0.38104  1.0000
  H   H2110     1.0  0.69006  0.57605  0.45988  1.0000
  H   H2111     1.0  0.64596  0.43561  0.35923  1.0000
  C   C1759     1.0  0.62495  0.40998  0.43274  1.0000
  C   C1760     1.0  0.62534  0.39743  0.44881  1.0000
  C   C1761     1.0  0.63073  0.40111  0.46263  1.0000
  C   C1762     1.0  0.63567  0.41734  0.46044  1.0000
  C   C1763     1.0  0.63481  0.43001  0.44454  1.0000
  C   C1764     1.0  0.62938  0.42637  0.43076  1.0000
  H   H2112     1.0  0.62181  0.38476  0.45051  1.0000
  H   H2113     1.0  0.63115  0.39134  0.47500  1.0000
  H   H2114     1.0  0.63803  0.44277  0.44297  1.0000
  H   H2115     1.0  0.62845  0.43634  0.41861  1.0000
  C   C1765     1.0  0.54716  0.40065  0.40676  1.0000
  C   C1766     1.0  0.53987  0.40209  0.39219  1.0000
  C   C1767     1.0  0.54538  0.41343  0.37593  1.0000
  C   C1768     1.0  0.55764  0.42379  0.37448  1.0000
  C   C1769     1.0  0.56408  0.42315  0.38937  1.0000
  C   C1770     1.0  0.55927  0.41118  0.40533  1.0000
  H   H2116     1.0  0.53081  0.39370  0.39313  1.0000
  H   H2117     1.0  0.54040  0.41393  0.36438  1.0000
  H   H2118     1.0  0.57347  0.43120  0.38834  1.0000
  H   H2119     1.0  0.56552  0.40953  0.41627  1.0000
  C   C1771     1.0  0.61516  0.40804  0.37121  1.0000
  C   C1772     1.0  0.65184  0.43313  0.37068  1.0000
  C   C1773     1.0  0.67052  0.38894  0.41933  1.0000
  C   C1774     1.0  0.71299  0.34043  0.27679  1.0000
  C   C1775     1.0  0.71066  0.34770  0.25932  1.0000
  C   C1776     1.0  0.74906  0.43242  0.48596  1.0000
  H   H2120     1.0  0.74675  0.42136  0.48126  1.0000
  S   S482      1.0  0.71255  0.35260  0.43105  1.0000
  H   H2121     1.0  0.71675  0.35863  0.25136  1.0000
  H   H2122     1.0  0.69784  0.34701  0.23887  1.0000
  N   N118      1.0  0.52164  0.37332  0.48220  1.0000
  C   C1777     1.0  0.74363  0.40608  0.31756  1.0000
  N   N119      1.0  0.52873  0.53518  0.38469  1.0000
  C   C1778     1.0  0.65788  0.44426  0.39328  1.0000
  H   H2123     1.0  0.64302  0.46046  0.37352  1.0000
  C   C1779     1.0  0.65780  0.33479  0.46986  1.0000
  H   H2124     1.0  0.69174  0.37802  0.45201  1.0000
  H   H2125     1.0  0.59338  0.44055  0.45830  1.0000
  S   S483      1.0  0.72491  0.42545  0.43922  1.0000
  H   H2126     1.0  0.65665  0.34133  0.48055  1.0000
  H   H2127     1.0  0.59378  0.40148  0.35261  1.0000
  C   C1780     1.0  0.72093  0.45478  0.32983  1.0000
  H   H2128     1.0  0.69601  0.40672  0.45491  1.0000
  S   S484      1.0  0.58275  0.34168  0.43699  1.0000
  C   C1781     1.0  0.72596  0.45413  0.47293  1.0000
  C   C1782     1.0  0.71664  0.37259  0.43323  1.0000
  H   H2129     1.0  0.51299  0.51499  0.39384  1.0000
  C   C1783     1.0  0.66634  0.55358  0.47189  1.0000
  H   H2130     1.0  0.68259  0.34201  0.45531  1.0000
  C   C1784     1.0  0.74880  0.46992  0.48660  1.0000
  C   C1785     1.0  0.70610  0.39906  0.44612  1.0000
  H   H2131     1.0  0.51060  0.55202  0.36799  1.0000
  H   H2132     1.0  0.74209  0.37110  0.41483  1.0000
  H   H2133     1.0  0.55092  0.41116  0.47122  1.0000
  C   C1786     1.0  0.70371  0.38275  0.44450  1.0000
  N   N120      1.0  0.67821  0.39446  0.40006  1.0000
  H   H2134     1.0  0.55111  0.46101  0.45716  1.0000
  N   N121      1.0  0.62016  0.40360  0.35339  1.0000
  C   C1787     1.0  0.54180  0.52591  0.43611  1.0000
  H   H2135     1.0  0.71092  0.42312  0.34156  1.0000
  C   C1788     1.0  0.61777  0.42059  0.33996  1.0000
  C   C1789     1.0  0.63863  0.39291  0.35082  1.0000
  H   H2136     1.0  0.53753  0.43746  0.45323  1.0000
  C   C1790     1.0  0.65318  0.39950  0.33839  1.0000
  H   H2137     1.0  0.66259  0.35211  0.36813  1.0000
  C   C1791     1.0  0.67056  0.38917  0.33683  1.0000
  C   C1792     1.0  0.67397  0.37211  0.34743  1.0000
  H   H2138     1.0  0.51640  0.34762  0.48360  1.0000
  C   C1793     1.0  0.51226  0.38152  0.46721  1.0000
  C   C1794     1.0  0.66205  0.53689  0.48155  1.0000
  C   C1795     1.0  0.69381  0.46023  0.37192  1.0000
  C   C1796     1.0  0.66002  0.36536  0.35979  1.0000
  H   H2139     1.0  0.50075  0.54720  0.39097  1.0000
  C   C1797     1.0  0.51323  0.55002  0.38153  1.0000
  H   H2140     1.0  0.60889  0.42139  0.29605  1.0000
  Fe  Fe242     1.0  0.72872  0.33906  0.40854  1.0000
  C   C1798     1.0  0.51532  0.63716  0.45966  1.0000
  H   H2141     1.0  0.65152  0.41262  0.32976  1.0000
  C   C1799     1.0  0.56805  0.40454  0.48923  1.0000
  H   H2142     1.0  0.68147  0.39445  0.32736  1.0000
  H   H2143     1.0  0.68745  0.36408  0.34608  1.0000
  N   N122      1.0  0.56543  0.43855  0.44520  1.0000
  C   C1800     1.0  0.58017  0.43500  0.42981  1.0000
  C   C1801     1.0  0.54933  0.43443  0.44243  1.0000
  H   H2144     1.0  0.67270  0.42561  0.41142  1.0000
  C   C1802     1.0  0.57095  0.42797  0.46194  1.0000
  C   C1803     1.0  0.58571  0.43089  0.46678  1.0000
  C   C1804     1.0  0.56219  0.41448  0.47372  1.0000
  H   H2145     1.0  0.71357  0.46454  0.47524  1.0000
  H   H2146     1.0  0.51727  0.39348  0.45862  1.0000
  C   C1805     1.0  0.59935  0.33888  0.35410  1.0000
  H   H2147     1.0  0.58425  0.42051  0.42979  1.0000
  H   H2148     1.0  0.57643  0.44216  0.41684  1.0000
  H   H2149     1.0  0.59226  0.43949  0.42985  1.0000
  H   H2150     1.0  0.55158  0.42018  0.44177  1.0000
  H   H2151     1.0  0.54574  0.44239  0.42958  1.0000
  H   H2152     1.0  0.70544  0.38169  0.40169  1.0000
  H   H2153     1.0  0.55652  0.46619  0.43309  1.0000
  H   H2154     1.0  0.72710  0.42548  0.35986  1.0000
  H   H2155     1.0  0.66101  0.40555  0.37098  1.0000
  H   H2156     1.0  0.60362  0.42800  0.34181  1.0000
  C   C1806     1.0  0.53303  0.53232  0.40235  1.0000
  H   H2157     1.0  0.54933  0.55026  0.37250  1.0000
  H   H2158     1.0  0.71005  0.44193  0.40961  1.0000
  H   H2159     1.0  0.68914  0.46858  0.32194  1.0000
  N   N123      1.0  0.65266  0.36815  0.29636  1.0000
  C   C1807     1.0  0.65369  0.35783  0.28300  1.0000
  C   C1808     1.0  0.66635  0.37928  0.28884  1.0000
  C   C1809     1.0  0.65756  0.35554  0.31265  1.0000
  C   C1810     1.0  0.63420  0.37861  0.30064  1.0000
  C   C1811     1.0  0.61984  0.36974  0.30893  1.0000
  C   C1812     1.0  0.62975  0.39758  0.29610  1.0000
  C   C1813     1.0  0.60219  0.37919  0.31256  1.0000
  C   C1814     1.0  0.61203  0.40693  0.29978  1.0000
  C   C1815     1.0  0.59828  0.39777  0.30804  1.0000
  H   H2160     1.0  0.65038  0.36682  0.27043  1.0000
  H   H2161     1.0  0.66729  0.34962  0.27950  1.0000
  H   H2162     1.0  0.64436  0.34853  0.28780  1.0000
  H   H2163     1.0  0.66447  0.38809  0.27572  1.0000
  H   H2164     1.0  0.68013  0.37096  0.28630  1.0000
  H   H2165     1.0  0.66610  0.38778  0.29800  1.0000
  H   H2166     1.0  0.65614  0.36276  0.32330  1.0000
  H   H2167     1.0  0.64919  0.34536  0.31825  1.0000
  C   C1816     1.0  0.70863  0.44373  0.39607  1.0000
  H   H2168     1.0  0.62210  0.35534  0.31238  1.0000
  H   H2169     1.0  0.63968  0.40551  0.28940  1.0000
  C   C1817     1.0  0.66062  0.41590  0.37757  1.0000
  H   H2170     1.0  0.70302  0.40065  0.38375  1.0000
  H   H2171     1.0  0.62347  0.41673  0.37236  1.0000
  S   S485      1.0  0.62075  0.35364  0.43208  1.0000
  S   S486      1.0  0.73487  0.42389  0.30185  1.0000
  H   H2172     1.0  0.74196  0.36264  0.33682  1.0000
  H   H2173     1.0  0.53589  0.50714  0.38401  1.0000
  H   H2174     1.0  0.68719  0.46665  0.39788  1.0000
  H   H2175     1.0  0.67793  0.37565  0.42532  1.0000
  H   H2176     1.0  0.68465  0.38262  0.37705  1.0000
  H   H2177     1.0  0.66383  0.37917  0.39250  1.0000
  H   H2178     1.0  0.50938  0.63443  0.44973  1.0000
  C   C1818     1.0  0.66879  0.55699  0.45305  1.0000
  H   H2179     1.0  0.72762  0.38855  0.31640  1.0000
  H   H2180     1.0  0.62556  0.42989  0.34097  1.0000
  H   H2181     1.0  0.51067  0.55216  0.41342  1.0000
  H   H2182     1.0  0.73216  0.44313  0.33175  1.0000
  H   H2183     1.0  0.56435  0.50640  0.42637  1.0000
  C   C1819     1.0  0.66835  0.41238  0.39266  1.0000
  N   N124      1.0  0.70376  0.45139  0.34171  1.0000
  C   C1820     1.0  0.68942  0.46666  0.33622  1.0000
  C   C1821     1.0  0.69577  0.45771  0.38940  1.0000
  H   H2184     1.0  0.51459  0.37216  0.45820  1.0000
  C   C1822     1.0  0.70497  0.44877  0.36050  1.0000
  C   C1823     1.0  0.71799  0.43463  0.36777  1.0000
  H   H2185     1.0  0.54518  0.52352  0.44898  1.0000
  C   C1824     1.0  0.52240  0.54197  0.41558  1.0000
  C   C1825     1.0  0.52446  0.51869  0.38312  1.0000
  Fe  Fe243     1.0  0.60632  0.34702  0.41472  1.0000
  H   H2186     1.0  0.59153  0.37196  0.31881  1.0000
  C   C1826     1.0  0.66016  0.52460  0.47281  1.0000
  C   C1827     1.0  0.71970  0.43217  0.38533  1.0000
  C   C1828     1.0  0.59118  0.42115  0.48252  1.0000
  C   C1829     1.0  0.73206  0.37884  0.42358  1.0000
  H   H2187     1.0  0.66129  0.51871  0.44764  1.0000
  C   C1830     1.0  0.67233  0.33525  0.45554  1.0000
  C   C1831     1.0  0.70023  0.43509  0.33880  1.0000
  H   H2188     1.0  0.62171  0.41821  0.32619  1.0000
  H   H2189     1.0  0.60612  0.38176  0.36393  1.0000
  H   H2190     1.0  0.69140  0.47948  0.33771  1.0000
  C   C1832     1.0  0.54819  0.51931  0.40683  1.0000
  C   C1833     1.0  0.69714  0.39517  0.39783  1.0000
  H   H2191     1.0  0.66894  0.54737  0.43006  1.0000
  H   H2192     1.0  0.65675  0.59423  0.48310  1.0000
  N   N125      1.0  0.66852  0.56694  0.48061  1.0000
  C   C1834     1.0  0.51469  0.35712  0.49228  1.0000
  H   H2193     1.0  0.54653  0.37979  0.46667  1.0000
  C   C1835     1.0  0.71111  0.51550  0.48372  1.0000
  C   C1836     1.0  0.68704  0.56989  0.47430  1.0000
  C   C1837     1.0  0.65591  0.58414  0.47610  1.0000
  H   H2194     1.0  0.60253  0.42361  0.48592  1.0000
  H   H2195     1.0  0.68967  0.57884  0.48152  1.0000
  C   C1838     1.0  0.60313  0.34011  0.37002  1.0000
  H   H2196     1.0  0.64187  0.58230  0.48006  1.0000
  H   H2197     1.0  0.73590  0.46060  0.46231  1.0000
  S   S487      1.0  0.59661  0.34009  0.48231  1.0000
  S   S488      1.0  0.74506  0.39210  0.26923  1.0000
  H   H2198     1.0  0.67174  0.33071  0.34839  1.0000
  C   C1839     1.0  0.52775  0.64670  0.48560  1.0000
  H   H2199     1.0  0.72296  0.44407  0.46736  1.0000
  H   H2200     1.0  0.53409  0.63394  0.48209  1.0000
  H   H2201     1.0  0.69693  0.55705  0.47645  1.0000
  H   H2202     1.0  0.54889  0.36073  0.48460  1.0000
  C   C1840     1.0  0.50884  0.40305  0.49201  1.0000
  H   H2203     1.0  0.72977  0.42137  0.39067  1.0000
  H   H2204     1.0  0.52933  0.63827  0.45308  1.0000
  H   H2205     1.0  0.51550  0.62512  0.47074  1.0000
  H   H2206     1.0  0.74677  0.39961  0.41836  1.0000
  C   C1841     1.0  0.74610  0.37524  0.33359  1.0000
  H   H2207     1.0  0.65704  0.51187  0.48043  1.0000
  C   C1842     1.0  0.58249  0.40789  0.49362  1.0000
  H   H2208     1.0  0.65299  0.33478  0.40976  1.0000
  H   H2209     1.0  0.50919  0.54385  0.67414  1.0000
  C   C1843     1.0  0.50364  0.59051  0.57358  1.0000
  H   H2210     1.0  0.59490  0.62401  0.54379  1.0000
  C   C1844     1.0  0.68684  0.50235  0.51354  1.0000
  N   N126      1.0  0.52421  0.51865  0.68661  1.0000
  S   S489      1.0  0.53248  0.41029  0.61446  1.0000
  S   S490      1.0  0.51305  0.46118  0.59331  1.0000
  H   H2211     1.0  0.57915  0.34079  0.51869  1.0000
  C   C1845     1.0  0.62270  0.61572  0.53179  1.0000
  S   S491      1.0  0.52029  0.34886  0.56181  1.0000
  Fe  Fe244     1.0  0.71741  0.60049  0.68598  1.0000
  S   S492      1.0  0.71227  0.58164  0.67271  1.0000
  S   S493      1.0  0.70748  0.62962  0.67586  1.0000
  Fe  Fe245     1.0  0.73706  0.57121  0.71162  1.0000
  S   S494      1.0  0.73262  0.54938  0.70090  1.0000
  H   H2212     1.0  0.58368  0.63140  0.63311  1.0000
  H   H2213     1.0  0.65852  0.59843  0.67379  1.0000
  H   H2214     1.0  0.72260  0.42968  0.51514  1.0000
  Fe  Fe246     1.0  0.70463  0.56582  0.70029  1.0000
  S   S495      1.0  0.67646  0.56079  0.70687  1.0000
  H   H2215     1.0  0.58246  0.64875  0.67360  1.0000
  S   S496      1.0  0.70843  0.58580  0.71376  1.0000
  Fe  Fe247     1.0  0.61524  0.52188  0.67163  1.0000
  S   S497      1.0  0.61482  0.51884  0.64449  1.0000
  S   S498      1.0  0.64209  0.51193  0.67970  1.0000
  Fe  Fe248     1.0  0.57627  0.54048  0.67771  1.0000
  S   S499      1.0  0.57287  0.53923  0.65105  1.0000
  S   S500      1.0  0.55207  0.55527  0.69378  1.0000
  Fe  Fe249     1.0  0.58825  0.51122  0.65665  1.0000
  S   S501      1.0  0.58093  0.48880  0.64917  1.0000
  Fe  Fe250     1.0  0.59935  0.54702  0.64149  1.0000
  S   S502      1.0  0.60560  0.56744  0.61687  1.0000
  S   S503      1.0  0.58988  0.51158  0.68440  1.0000
  S   S504      1.0  0.60155  0.55074  0.66751  1.0000
  S   S505      1.0  0.53674  0.61545  0.58518  1.0000
  H   H2216     1.0  0.67541  0.49934  0.65405  1.0000
  Fe  Fe251     1.0  0.53599  0.62393  0.61003  1.0000
  S   S506      1.0  0.51731  0.61510  0.63580  1.0000
  S   S507      1.0  0.69033  0.58672  0.55413  1.0000
  S   S508      1.0  0.72307  0.55250  0.54436  1.0000
  Fe  Fe252     1.0  0.69487  0.55695  0.55977  1.0000
  S   S509      1.0  0.68797  0.54298  0.58819  1.0000
  Fe  Fe253     1.0  0.71796  0.58257  0.53743  1.0000
  C   C1846     1.0  0.60438  0.59578  0.55242  1.0000
  C   C1847     1.0  0.61889  0.58140  0.55033  1.0000
  C   C1848     1.0  0.63552  0.58430  0.54005  1.0000
  C   C1849     1.0  0.63755  0.60149  0.53099  1.0000
  C   C1850     1.0  0.60617  0.61292  0.54274  1.0000
  H   H2217     1.0  0.61761  0.56806  0.55738  1.0000
  H   H2218     1.0  0.64676  0.57319  0.53929  1.0000
  C   C1851     1.0  0.54284  0.57344  0.67851  1.0000
  C   C1852     1.0  0.52476  0.58157  0.68246  1.0000
  C   C1853     1.0  0.51702  0.59459  0.66933  1.0000
  C   C1854     1.0  0.52737  0.59952  0.65230  1.0000
  C   C1855     1.0  0.54550  0.59168  0.64853  1.0000
  C   C1856     1.0  0.55323  0.57879  0.66166  1.0000
  H   H2219     1.0  0.51666  0.57750  0.69548  1.0000
  H   H2220     1.0  0.51486  0.50953  0.71470  1.0000
  H   H2221     1.0  0.55352  0.59520  0.63539  1.0000
  H   H2222     1.0  0.56724  0.57283  0.65858  1.0000
  C   C1857     1.0  0.62863  0.56174  0.60911  1.0000
  C   C1858     1.0  0.63968  0.55179  0.62090  1.0000
  C   C1859     1.0  0.65801  0.54636  0.61442  1.0000
  C   C1860     1.0  0.66526  0.55076  0.59622  1.0000
  C   C1861     1.0  0.65427  0.56118  0.58451  1.0000
  C   C1862     1.0  0.63594  0.56664  0.59101  1.0000
  H   H2223     1.0  0.63418  0.54838  0.63502  1.0000
  H   H2224     1.0  0.66665  0.53907  0.62352  1.0000
  H   H2225     1.0  0.65978  0.56484  0.57045  1.0000
  H   H2226     1.0  0.62733  0.57435  0.58203  1.0000
  H   H2227     1.0  0.52838  0.53377  0.65961  1.0000
  H   H2228     1.0  0.70723  0.64519  0.62962  1.0000
  C   C1863     1.0  0.50663  0.41385  0.50406  1.0000
  C   C1864     1.0  0.66783  0.54798  0.69738  1.0000
  C   C1865     1.0  0.67818  0.53249  0.69169  1.0000
  C   C1866     1.0  0.67023  0.52172  0.68598  1.0000
  C   C1867     1.0  0.65194  0.52648  0.68565  1.0000
  C   C1868     1.0  0.64175  0.54228  0.69077  1.0000
  C   C1869     1.0  0.64962  0.55284  0.69679  1.0000
  H   H2229     1.0  0.69212  0.52840  0.69244  1.0000
  H   H2230     1.0  0.67820  0.50944  0.68224  1.0000
  H   H2231     1.0  0.62763  0.54596  0.69088  1.0000
  H   H2232     1.0  0.64147  0.56462  0.70144  1.0000
  C   C1870     1.0  0.68513  0.63627  0.68627  1.0000
  C   C1871     1.0  0.67547  0.62372  0.69752  1.0000
  C   C1872     1.0  0.65786  0.62931  0.70640  1.0000
  C   C1873     1.0  0.73384  0.58692  0.60615  1.0000
  H   H2233     1.0  0.68135  0.60967  0.69916  1.0000
  H   H2234     1.0  0.65049  0.61953  0.71517  1.0000
  H   H2235     1.0  0.70535  0.44536  0.50458  1.0000
  C   C1874     1.0  0.52962  0.49351  0.63007  1.0000
  C   C1875     1.0  0.53346  0.50861  0.63305  1.0000
  C   C1876     1.0  0.54910  0.50734  0.63885  1.0000
  C   C1877     1.0  0.56105  0.49094  0.64186  1.0000
  C   C1878     1.0  0.55729  0.47586  0.63875  1.0000
  C   C1879     1.0  0.54166  0.47712  0.63288  1.0000
  H   H2236     1.0  0.52430  0.52136  0.63076  1.0000
  H   H2237     1.0  0.55197  0.51909  0.64081  1.0000
  H   H2238     1.0  0.56649  0.46311  0.64091  1.0000
  H   H2239     1.0  0.53892  0.46541  0.63056  1.0000
  C   C1880     1.0  0.52970  0.38957  0.61289  1.0000
  C   C1881     1.0  0.51754  0.38823  0.60366  1.0000
  C   C1882     1.0  0.51548  0.37130  0.60320  1.0000
  C   C1883     1.0  0.52534  0.35575  0.61224  1.0000
  C   C1884     1.0  0.53740  0.35719  0.62146  1.0000
  C   C1885     1.0  0.53980  0.37400  0.62151  1.0000
  H   H2240     1.0  0.73838  0.57499  0.57594  1.0000
  H   H2241     1.0  0.52482  0.46478  0.67224  1.0000
  H   H2242     1.0  0.50063  0.36085  0.66965  1.0000
  H   H2243     1.0  0.54936  0.37496  0.62848  1.0000
  C   C1886     1.0  0.56388  0.62554  0.66623  1.0000
  H   H2244     1.0  0.66861  0.65516  0.60828  1.0000
  H   H2245     1.0  0.71502  0.45831  0.52142  1.0000
  Fe  Fe254     1.0  0.68144  0.58553  0.53006  1.0000
  H   H2246     1.0  0.68187  0.46239  0.62976  1.0000
  C   C1887     1.0  0.64971  0.64742  0.70351  1.0000
  H   H2247     1.0  0.69132  0.46987  0.64396  1.0000
  H   H2248     1.0  0.54909  0.52106  0.69093  1.0000
  C   C1888     1.0  0.51059  0.64128  0.54228  1.0000
  C   C1889     1.0  0.73340  0.61360  0.55224  1.0000
  H   H2249     1.0  0.67488  0.54924  0.50479  1.0000
  C   C1890     1.0  0.74477  0.63552  0.68556  1.0000
  H   H2250     1.0  0.72071  0.56294  0.58438  1.0000
  C   C1891     1.0  0.50612  0.61938  0.52170  1.0000
  H   H2251     1.0  0.67971  0.62722  0.53660  1.0000
  H   H2252     1.0  0.68447  0.65547  0.54007  1.0000
  C   C1892     1.0  0.69853  0.55807  0.64987  1.0000
  C   C1893     1.0  0.64474  0.65382  0.56956  1.0000
  S   S510      1.0  0.58467  0.59192  0.56788  1.0000
  C   C1894     1.0  0.69710  0.65737  0.63224  1.0000
  H   H2253     1.0  0.58735  0.64536  0.64529  1.0000
  C   C1895     1.0  0.68128  0.65651  0.61069  1.0000
  S   S511      1.0  0.70880  0.58385  0.51255  1.0000
  S   S512      1.0  0.51345  0.65558  0.55451  1.0000
  H   H2254     1.0  0.69521  0.62189  0.62986  1.0000
  H   H2255     1.0  0.61529  0.62308  0.71155  1.0000
  C   C1896     1.0  0.64199  0.63721  0.56852  1.0000
  H   H2256     1.0  0.69982  0.55274  0.66361  1.0000
  C   C1897     1.0  0.51611  0.50642  0.68162  1.0000
  C   C1898     1.0  0.60888  0.62221  0.70146  1.0000
  H   H2257     1.0  0.73695  0.58515  0.61943  1.0000
  C   C1899     1.0  0.51736  0.47789  0.67435  1.0000
  H   H2258     1.0  0.65133  0.55925  0.50610  1.0000
  N   N127      1.0  0.66680  0.48686  0.63760  1.0000
  C   C1900     1.0  0.67047  0.50265  0.64148  1.0000
  C   C1901     1.0  0.68400  0.47442  0.63287  1.0000
  C   C1902     1.0  0.65766  0.49238  0.62243  1.0000
  C   C1903     1.0  0.66448  0.50375  0.60640  1.0000
  C   C1904     1.0  0.64234  0.48618  0.62276  1.0000
  C   C1905     1.0  0.65604  0.50924  0.59196  1.0000
  C   C1906     1.0  0.63413  0.49156  0.60813  1.0000
  C   C1907     1.0  0.64090  0.50315  0.59281  1.0000
  H   H2259     1.0  0.65808  0.51320  0.64308  1.0000
  H   H2260     1.0  0.68086  0.50856  0.63095  1.0000
  H   H2261     1.0  0.69296  0.48077  0.62094  1.0000
  H   H2262     1.0  0.67638  0.50861  0.60487  1.0000
  H   H2263     1.0  0.63625  0.47734  0.63423  1.0000
  H   H2264     1.0  0.66136  0.51829  0.58007  1.0000
  H   H2265     1.0  0.62241  0.48668  0.60878  1.0000
  H   H2266     1.0  0.63451  0.50733  0.58151  1.0000
  Fe  Fe255     1.0  0.51097  0.33471  0.58986  1.0000
  H   H2267     1.0  0.53086  0.38509  0.53310  1.0000
  H   H2268     1.0  0.62417  0.62903  0.52451  1.0000
  N   N128      1.0  0.72854  0.57102  0.60451  1.0000
  C   C1908     1.0  0.74392  0.63326  0.56434  1.0000
  C   C1909     1.0  0.68183  0.56196  0.64564  1.0000
  H   H2269     1.0  0.72434  0.61936  0.72026  1.0000
  H   H2270     1.0  0.55842  0.61730  0.67925  1.0000
  Fe  Fe256     1.0  0.53374  0.64441  0.57228  1.0000
  C   C1910     1.0  0.52320  0.62560  0.53990  1.0000
  H   H2271     1.0  0.66034  0.53281  0.49585  1.0000
  C   C1911     1.0  0.50852  0.58263  0.60355  1.0000
  H   H2272     1.0  0.68548  0.59556  0.64971  1.0000
  C   C1912     1.0  0.73567  0.45994  0.49669  1.0000
  H   H2273     1.0  0.72603  0.55868  0.64075  1.0000
  C   C1913     1.0  0.52502  0.39019  0.52139  1.0000
  H   H2274     1.0  0.58144  0.59173  0.66920  1.0000
  H   H2275     1.0  0.62829  0.60824  0.56709  1.0000
  Fe  Fe257     1.0  0.51037  0.43478  0.61189  1.0000
  H   H2276     1.0  0.73087  0.60200  0.74880  1.0000
  H   H2277     1.0  0.70496  0.61850  0.55523  1.0000
  Fe  Fe258     1.0  0.56599  0.61519  0.57865  1.0000
  H   H2278     1.0  0.53879  0.48334  0.68144  1.0000
  H   H2279     1.0  0.60828  0.62846  0.60466  1.0000
  S   S513      1.0  0.56324  0.64380  0.56426  1.0000
  C   C1914     1.0  0.72577  0.57404  0.58611  1.0000
  H   H2280     1.0  0.61459  0.63934  0.55479  1.0000
  H   H2281     1.0  0.66273  0.47501  0.66584  1.0000
  C   C1915     1.0  0.65623  0.47779  0.65432  1.0000
  Fe  Fe259     1.0  0.71082  0.55411  0.52133  1.0000
  N   N129      1.0  0.62536  0.63104  0.57843  1.0000
  C   C1916     1.0  0.71240  0.56797  0.61843  1.0000
  H   H2282     1.0  0.60492  0.59151  0.68139  1.0000
  H   H2283     1.0  0.53115  0.60297  0.52737  1.0000
  H   H2284     1.0  0.61898  0.59400  0.70386  1.0000
  H   H2285     1.0  0.53487  0.62198  0.54567  1.0000
  Fe  Fe260     1.0  0.74020  0.56711  0.67413  1.0000
  S   S514      1.0  0.67916  0.47915  0.49811  1.0000
  H   H2286     1.0  0.74194  0.64248  0.67214  1.0000
  C   C1917     1.0  0.67696  0.65437  0.68346  1.0000
  H   H2287     1.0  0.50139  0.40136  0.66458  1.0000
  N   N130      1.0  0.57956  0.53946  0.59423  1.0000
  C   C1918     1.0  0.56837  0.55490  0.60196  1.0000
  C   C1919     1.0  0.58933  0.52723  0.60782  1.0000
  C   C1920     1.0  0.59313  0.54589  0.57875  1.0000
  C   C1921     1.0  0.56822  0.53103  0.58839  1.0000
  C   C1922     1.0  0.55750  0.54128  0.57596  1.0000
  C   C1923     1.0  0.56736  0.51271  0.59470  1.0000
  C   C1924     1.0  0.54622  0.53380  0.57067  1.0000
  C   C1925     1.0  0.55601  0.50540  0.58932  1.0000
  C   C1926     1.0  0.54534  0.51593  0.57750  1.0000
  H   H2288     1.0  0.55747  0.55078  0.61317  1.0000
  H   H2289     1.0  0.57636  0.56119  0.60711  1.0000
  H   H2290     1.0  0.56228  0.56583  0.59197  1.0000
  H   H2291     1.0  0.58002  0.52203  0.62005  1.0000
  H   H2292     1.0  0.59758  0.53412  0.61195  1.0000
  H   H2293     1.0  0.59863  0.51570  0.60267  1.0000
  H   H2294     1.0  0.58701  0.55588  0.56817  1.0000
  H   H2295     1.0  0.60162  0.55262  0.58278  1.0000
  H   H2296     1.0  0.60195  0.53473  0.57260  1.0000
  H   H2297     1.0  0.55776  0.55521  0.57029  1.0000
  H   H2298     1.0  0.57504  0.50376  0.60408  1.0000
  H   H2299     1.0  0.53805  0.54189  0.56127  1.0000
  H   H2300     1.0  0.50996  0.40020  0.59666  1.0000
  H   H2301     1.0  0.72102  0.48191  0.53139  1.0000
  C   C1927     1.0  0.67009  0.63449  0.54609  1.0000
  C   C1928     1.0  0.50028  0.48406  0.67086  1.0000
  H   H2302     1.0  0.60826  0.65561  0.56826  1.0000
  H   H2303     1.0  0.55678  0.62466  0.65626  1.0000
  H   H2304     1.0  0.54514  0.49905  0.69794  1.0000
  H   H2305     1.0  0.60486  0.62711  0.63949  1.0000
  H   H2306     1.0  0.69277  0.57740  0.60125  1.0000
  C   C1929     1.0  0.54330  0.51145  0.68747  1.0000
  H   H2307     1.0  0.53539  0.36595  0.51225  1.0000
  H   H2308     1.0  0.55163  0.33112  0.53753  1.0000
  C   C1930     1.0  0.59017  0.63128  0.64396  1.0000
  H   H2309     1.0  0.52168  0.34955  0.50320  1.0000
  C   C1931     1.0  0.61097  0.64101  0.56880  1.0000
  H   H2310     1.0  0.71635  0.58686  0.58243  1.0000
  C   C1932     1.0  0.65218  0.62714  0.66653  1.0000
  H   H2311     1.0  0.61547  0.64873  0.59714  1.0000
  C   C1933     1.0  0.66225  0.61027  0.66454  1.0000
  C   C1934     1.0  0.51466  0.40742  0.51873  1.0000
  C   C1935     1.0  0.74219  0.63756  0.71589  1.0000
  S   S515      1.0  0.50974  0.49587  0.62277  1.0000
  C   C1936     1.0  0.67269  0.65049  0.54791  1.0000
  N   N131      1.0  0.67942  0.65718  0.62957  1.0000
  C   C1937     1.0  0.61098  0.60585  0.69705  1.0000
  H   H2312     1.0  0.58711  0.40008  0.50557  1.0000
  H   H2313     1.0  0.50631  0.37035  0.59581  1.0000
  S   S516      1.0  0.53083  0.65321  0.59783  1.0000
  S   S517      1.0  0.73852  0.59602  0.54064  1.0000
  C   C1938     1.0  0.72577  0.46459  0.51313  1.0000
  H   H2314     1.0  0.71125  0.64407  0.70391  1.0000
  H   H2315     1.0  0.50027  0.36062  0.49850  1.0000
  S   S518      1.0  0.65869  0.60547  0.51940  1.0000
  N   N132      1.0  0.73849  0.64764  0.69826  1.0000
  C   C1939     1.0  0.51927  0.38534  0.49440  1.0000
  C   C1940     1.0  0.52307  0.53590  0.67342  1.0000
  C   C1941     1.0  0.52106  0.61484  0.52951  1.0000
  H   H2316     1.0  0.56003  0.63971  0.66758  1.0000
  S   S519      1.0  0.50027  0.44649  0.63631  1.0000
  S   S520      1.0  0.74276  0.65249  0.61744  1.0000
  C   C1942     1.0  0.72904  0.47823  0.51907  1.0000
  C   C1943     1.0  0.65747  0.64247  0.65528  1.0000
  C   C1944     1.0  0.51441  0.52216  0.70439  1.0000
  H   H2317     1.0  0.60136  0.59585  0.65264  1.0000
  H   H2318     1.0  0.63492  0.66232  0.57767  1.0000
  H   H2319     1.0  0.51379  0.37474  0.65249  1.0000
  C   C1945     1.0  0.52738  0.37930  0.50943  1.0000
  H   H2320     1.0  0.53079  0.54463  0.67557  1.0000
  C   C1946     1.0  0.60280  0.60465  0.68400  1.0000
  C   C1947     1.0  0.58687  0.60126  0.65720  1.0000
  H   H2321     1.0  0.50297  0.60071  0.67231  1.0000
  C   C1948     1.0  0.59222  0.62002  0.67491  1.0000
  H   H2322     1.0  0.52002  0.56584  0.58444  1.0000
  H   H2323     1.0  0.73306  0.64676  0.95530  1.0000
  C   C1949     1.0  0.73716  0.61325  0.74199  1.0000
  H   H2324     1.0  0.65458  0.46470  0.65323  1.0000
  C   C1950     1.0  0.59037  0.63647  0.67979  1.0000
  C   C1951     1.0  0.62694  0.61163  0.58008  1.0000
  H   H2325     1.0  0.61478  0.60688  0.58862  1.0000
  H   H2326     1.0  0.51237  0.41557  0.52841  1.0000
  H   H2327     1.0  0.59823  0.63649  0.57528  1.0000
  Fe  Fe261     1.0  0.56073  0.64942  0.59136  1.0000
  H   H2328     1.0  0.69203  0.64527  0.60654  1.0000
  H   H2329     1.0  0.56149  0.39405  0.49787  1.0000
  N   N133      1.0  0.58350  0.61937  0.66087  1.0000
  C   C1952     1.0  0.74361  0.55538  0.60668  1.0000
  H   H2330     1.0  0.64281  0.48634  0.65809  1.0000
  C   C1953     1.0  0.65503  0.62788  0.55621  1.0000
  C   C1954     1.0  0.50066  0.37065  0.65674  1.0000
  C   C1955     1.0  0.68295  0.62387  0.63972  1.0000
  H   H2331     1.0  0.55519  0.49150  0.59465  1.0000
  H   H2332     1.0  0.63858  0.60352  0.58591  1.0000
  S   S521      1.0  0.74626  0.58765  0.68485  1.0000
  S   S522      1.0  0.68298  0.55598  0.53761  1.0000
  C   C1956     1.0  0.68007  0.56930  0.62810  1.0000
  Fe  Fe262     1.0  0.50079  0.47304  0.61758  1.0000
  C   C1957     1.0  0.71354  0.56134  0.63659  1.0000
  S   S523      1.0  0.56571  0.62055  0.60504  1.0000
  C   C1958     1.0  0.62000  0.63431  0.59683  1.0000
  H   H2333     1.0  0.73955  0.54281  0.60737  1.0000
  C   C1959     1.0  0.57156  0.33491  0.51323  1.0000
  H   H2334     1.0  0.69880  0.64413  0.56990  1.0000
  C   C1960     1.0  0.67750  0.60866  0.65105  1.0000
  C   C1961     1.0  0.73356  0.62329  0.72556  1.0000
  H   H2335     1.0  0.63115  0.62846  0.60400  1.0000
  C   C1962     1.0  0.59865  0.63749  0.69281  1.0000
  C   C1963     1.0  0.71870  0.43623  0.50214  1.0000
  H   H2336     1.0  0.74448  0.59635  0.64864  1.0000
  C   C1964     1.0  0.69507  0.57216  0.61460  1.0000
  S   S524      1.0  0.72010  0.53719  0.50026  1.0000
  C   C1965     1.0  0.72641  0.64265  0.56916  1.0000
  H   H2337     1.0  0.67023  0.55945  0.65604  1.0000
  H   H2338     1.0  0.59713  0.65023  0.69623  1.0000
  H   H2339     1.0  0.67758  0.49714  0.52523  1.0000
  C   C1966     1.0  0.69563  0.51523  0.51432  1.0000
  C   C1967     1.0  0.69011  0.49595  0.49789  1.0000
  H   H2340     1.0  0.69322  0.51975  0.52657  1.0000
  S   S525      1.0  0.52243  0.33440  0.61277  1.0000
  C   C1968     1.0  0.51151  0.57843  0.58696  1.0000
  H   H2341     1.0  0.66702  0.57257  0.62488  1.0000
  C   C1969     1.0  0.71582  0.62251  0.55778  1.0000
  S   S526      1.0  0.50493  0.60586  0.50779  1.0000
  C   C1970     1.0  0.67313  0.64128  0.64152  1.0000
  H   H2342     1.0  0.54516  0.34526  0.62832  1.0000
  H   H2343     1.0  0.53634  0.51018  0.57370  1.0000
  C   C1971     1.0  0.71237  0.63703  0.56609  1.0000
  H   H2344     1.0  0.72303  0.59906  0.60440  1.0000
  H   H2345     1.0  0.58034  0.60132  0.64642  1.0000
  H   H2346     1.0  0.64061  0.62842  0.67735  1.0000
  H   H2347     1.0  0.50019  0.36361  0.64659  1.0000
  H   H2348     1.0  0.52026  0.53129  0.70858  1.0000
  H   H2349     1.0  0.55153  0.50857  0.67447  1.0000
  H   H2350     1.0  0.65376  0.61558  0.55383  1.0000
  C   C1972     1.0  0.52528  0.48883  0.67961  1.0000
  C   C1973     1.0  0.70795  0.52176  0.49945  1.0000
  H   H2351     1.0  0.71674  0.42556  0.49663  1.0000
  H   H2352     1.0  0.73797  0.62410  0.69006  1.0000
  C   C1974     1.0  0.71900  0.65477  0.69971  1.0000
  H   H2353     1.0  0.74876  0.55379  0.61881  1.0000
  H   H2354     1.0  0.74927  0.65557  0.92299  1.0000
  S   S527      1.0  0.62751  0.65430  0.71405  1.0000
  H   H2355     1.0  0.54573  0.64222  0.50314  1.0000
  H   H2356     1.0  0.69642  0.65804  0.64617  1.0000
  H   H2357     1.0  0.66654  0.57201  0.50643  1.0000
  C   C1975     1.0  0.57730  0.33284  0.49552  1.0000
  H   H2358     1.0  0.74596  0.58977  0.59591  1.0000
  C   C1976     1.0  0.74739  0.61889  0.55580  1.0000
  H   H2359     1.0  0.59230  0.65873  0.76690  1.0000
  H   H2360     1.0  0.61017  0.66115  0.77488  1.0000
  C   C1977     1.0  0.53463  0.65128  0.49781  1.0000
  C   C1978     1.0  0.74198  0.48777  0.50881  1.0000
  C   C1979     1.0  0.74640  0.64018  0.95850  1.0000
  H   H2361     1.0  0.74557  0.64034  0.97264  1.0000
  H   H2362     1.0  0.74395  0.49880  0.51315  1.0000
  H   H2363     1.0  0.51488  0.57337  0.61388  1.0000
  C   C1980     1.0  0.65919  0.65996  0.69186  1.0000
  C   C1981     1.0  0.66513  0.56150  0.50034  1.0000
  H   H2364     1.0  0.50618  0.58736  0.56056  1.0000
  C   C1982     1.0  0.66003  0.66015  0.55960  1.0000
  H   H2365     1.0  0.64939  0.65506  0.65810  1.0000
  H   H2366     1.0  0.50012  0.52857  0.70461  1.0000
  H   H2367     1.0  0.74884  0.62600  0.95755  1.0000
  S   S528      1.0  0.72153  0.66189  0.57834  1.0000
  H   H2368     1.0  0.71583  0.66246  0.68662  1.0000
  H   H2369     1.0  0.49973  0.64114  0.59060  1.0000
  C   C1983     1.0  0.74744  0.66300  0.69050  1.0000
  H   H2370     1.0  0.53764  0.89953  0.06359  1.0000
  C   C1984     1.0  0.54276  0.98521  0.13900  1.0000
  H   H2371     1.0  0.53794  0.86192  0.06317  1.0000
  H   H2372     1.0  0.54923  0.90552  0.04071  1.0000
  C   C1985     1.0  0.69658  0.98825  0.03334  1.0000
  H   H2373     1.0  0.67212  0.96612  0.04846  1.0000
  H   H2374     1.0  0.69264  0.96768  0.02177  1.0000
  S   S529      1.0  0.52231  0.92199  0.09103  1.0000
  C   C1986     1.0  0.71839  0.97303  0.01092  1.0000
  H   H2375     1.0  0.50466  0.76683  0.15177  1.0000
  H   H2376     1.0  0.66420  0.98345  0.03068  1.0000
  C   C1987     1.0  0.51429  0.88891  0.10463  1.0000
  H   H2377     1.0  0.55608  0.88406  0.05417  1.0000
  C   C1988     1.0  0.51139  0.99454  0.18395  1.0000
  N   N134      1.0  0.67881  0.99152  0.04539  1.0000
  S   S530      1.0  0.53465  0.83506  0.04132  1.0000
  C   C1989     1.0  0.52143  0.83712  0.99484  1.0000
  C   C1990     1.0  0.66664  0.98067  0.04441  1.0000
  H   H2378     1.0  0.51770  0.98846  0.19526  1.0000
  H   H2379     1.0  0.52115  0.92365  0.04770  1.0000
  H   H2380     1.0  0.68884  0.99591  0.06624  1.0000
  S   S531      1.0  0.50956  0.82670  0.09029  1.0000
  H   H2381     1.0  0.51732  0.67160  0.44387  1.0000
  C   C1991     1.0  0.51575  0.90078  0.04090  1.0000
  H   H2382     1.0  0.56083  0.84447  0.01005  1.0000
  C   C1992     1.0  0.54974  0.84254  0.00584  1.0000
  C   C1993     1.0  0.50352  0.87649  0.10790  1.0000
  Fe  Fe263     1.0  0.50355  0.94837  0.09348  1.0000
  H   H2383     1.0  0.52473  0.97637  0.12874  1.0000
  H   H2384     1.0  0.54628  0.89071  0.01790  1.0000
  C   C1994     1.0  0.70160  0.97551  0.02233  1.0000
  C   C1995     1.0  0.50394  0.66844  0.45026  1.0000
  H   H2385     1.0  0.51873  0.87743  0.07194  1.0000
  N   N135      1.0  0.53180  0.88733  0.04518  1.0000
  H   H2386     1.0  0.50668  0.86354  0.11648  1.0000
  H   H2387     1.0  0.53417  0.87305  0.02473  1.0000
  C   C1996     1.0  0.54200  0.88000  0.02924  1.0000
  H   H2388     1.0  0.51758  0.86576  0.05616  1.0000
  H   H2389     1.0  0.68811  0.97319  0.06791  1.0000
  H   H2390     1.0  0.50082  0.96461  0.15254  1.0000
  C   C1997     1.0  0.50981  0.90592  0.09407  1.0000
  C   C1998     1.0  0.54417  0.89451  0.05112  1.0000
  H   H2391     1.0  0.54550  0.97283  0.14854  1.0000
  H   H2392     1.0  0.52574  0.88556  0.11071  1.0000
  H   H2393     1.0  0.50435  0.88245  0.03335  1.0000
  H   H2394     1.0  0.55417  0.86979  0.03202  1.0000
  H   H2395     1.0  0.65334  0.98363  0.05343  1.0000
  C   C1999     1.0  0.52627  0.87252  0.05971  1.0000
  H   H2396     1.0  0.50938  0.83100  0.02290  1.0000
  C   C2000     1.0  0.52076  0.83494  0.01310  1.0000
  C   C2001     1.0  0.53498  0.83755  0.01862  1.0000
  Fe  Fe264     1.0  0.50976  0.82936  0.06142  1.0000
  H   H2397     1.0  0.66793  0.98936  0.07363  1.0000
  C   C2002     1.0  0.73062  0.98309  0.01005  1.0000
  C   C2003     1.0  0.72622  0.99549  0.02081  1.0000
  C   C2004     1.0  0.53093  0.98721  0.12784  1.0000
  C   C2005     1.0  0.68101  0.98728  0.06408  1.0000
  C   C2006     1.0  0.51234  0.91877  0.04277  1.0000
  S   S532      1.0  0.50718  0.97451  0.07504  1.0000
  C   C2007     1.0  0.50278  0.89595  0.03484  1.0000
  C   C2008     1.0  0.50502  0.67395  0.48548  1.0000
  H   H2398     1.0  0.74335  0.98162  0.00070  1.0000
  H   H2399     1.0  0.72167  0.96372  0.00217  1.0000
  S   S533      1.0  0.49973  0.78025  0.11610  1.0000
  S   S534      1.0  0.56483  0.99670  0.15306  1.0000
  H   H2400     1.0  0.56670  0.95102  0.90325  1.0000
  S   S535      1.0  0.57817  0.66561  0.59596  1.0000
  C   C2009     1.0  0.67869  0.97601  0.71901  1.0000
  Fe  Fe265     1.0  0.71206  0.89437  0.75894  1.0000
  S   S536      1.0  0.72687  0.87045  0.74734  1.0000
  S   S537      1.0  0.69811  0.89350  0.78741  1.0000
  Fe  Fe266     1.0  0.71439  0.91964  0.72371  1.0000
  S   S538      1.0  0.72918  0.89829  0.70841  1.0000
  S   S539      1.0  0.70569  0.94819  0.71076  1.0000
  Fe  Fe267     1.0  0.71010  0.88193  0.72690  1.0000
  S   S540      1.0  0.70067  0.86212  0.71811  1.0000
  Fe  Fe268     1.0  0.73976  0.67841  0.62494  1.0000
  S   S541      1.0  0.69359  0.90430  0.74003  1.0000
  S   S542      1.0  0.73195  0.91131  0.74358  1.0000
  S   S543      1.0  0.61367  0.92139  0.82232  1.0000
  S   S544      1.0  0.70321  0.80159  0.91228  1.0000
  S   S545      1.0  0.69621  0.82745  0.87403  1.0000
  Fe  Fe269     1.0  0.70193  0.83048  0.89910  1.0000
  S   S546      1.0  0.68353  0.85069  0.91459  1.0000
  Fe  Fe270     1.0  0.70031  0.79824  0.88620  1.0000
  S   S547      1.0  0.68217  0.78172  0.88449  1.0000
  H   H2401     1.0  0.72523  0.76389  0.91695  1.0000
  Fe  Fe271     1.0  0.67479  0.96294  0.96427  1.0000
  S   S548      1.0  0.69196  0.96269  0.93684  1.0000
  N   N136      1.0  0.72676  0.74481  0.61792  1.0000
  Fe  Fe272     1.0  0.64787  0.94524  0.95753  1.0000
  S   S549      1.0  0.66271  0.94392  0.92970  1.0000
  S   S550      1.0  0.62070  0.93848  0.96580  1.0000
  Fe  Fe273     1.0  0.68711  0.93490  0.94136  1.0000
  Fe  Fe274     1.0  0.66602  0.97144  0.92773  1.0000
  C   C2010     1.0  0.72836  0.88687  0.83867  1.0000
  S   S551      1.0  0.67203  0.93424  0.96975  1.0000
  S   S552      1.0  0.64908  0.97366  0.95466  1.0000
  Fe  Fe275     1.0  0.62944  0.77649  0.78174  1.0000
  S   S553      1.0  0.60749  0.80037  0.78722  1.0000
  S   S554      1.0  0.63269  0.75535  0.76576  1.0000
  Fe  Fe276     1.0  0.65385  0.78585  0.80028  1.0000
  S   S555      1.0  0.63407  0.81017  0.80703  1.0000
  S   S556      1.0  0.68136  0.78089  0.80570  1.0000
  Fe  Fe277     1.0  0.61379  0.79329  0.81459  1.0000
  S   S557      1.0  0.59222  0.79752  0.83916  1.0000
  Fe  Fe278     1.0  0.62957  0.81548  0.77947  1.0000
  S   S558      1.0  0.62751  0.84446  0.76586  1.0000
  S   S559      1.0  0.63398  0.76811  0.80997  1.0000
  S   S560      1.0  0.65104  0.79244  0.77193  1.0000
  Fe  Fe279     1.0  0.57232  0.88682  0.91425  1.0000
  S   S561      1.0  0.60119  0.87364  0.91082  1.0000
  S   S562      1.0  0.56405  0.91463  0.89894  1.0000
  Fe  Fe280     1.0  0.56075  0.85536  0.94116  1.0000
  S   S563      1.0  0.58869  0.83912  0.93988  1.0000
  S   S564      1.0  0.53641  0.84589  0.95920  1.0000
  Fe  Fe281     1.0  0.59553  0.86460  0.94034  1.0000
  S   S565      1.0  0.61727  0.86421  0.95369  1.0000
  Fe  Fe282     1.0  0.59238  0.84932  0.91022  1.0000
  S   S566      1.0  0.61235  0.83449  0.89013  1.0000
  S   S567      1.0  0.56725  0.88012  0.94408  1.0000
  S   S568      1.0  0.56366  0.86335  0.91129  1.0000
  Fe  Fe283     1.0  0.59608  0.71845  0.70313  1.0000
  S   S569      1.0  0.58751  0.69272  0.70666  1.0000
  S   S570      1.0  0.58489  0.73712  0.72272  1.0000
  Fe  Fe284     1.0  0.62300  0.71269  0.66919  1.0000
  S   S571      1.0  0.61757  0.68618  0.66988  1.0000
  S   S572      1.0  0.64299  0.72556  0.64725  1.0000
  Fe  Fe285     1.0  0.58872  0.69928  0.67709  1.0000
  S   S573      1.0  0.56761  0.69112  0.66826  1.0000
  Fe  Fe286     1.0  0.61664  0.68127  0.69906  1.0000
  C   C2011     1.0  0.60974  0.78179  0.92656  1.0000
  S   S574      1.0  0.59408  0.72655  0.67419  1.0000
  S   S575      1.0  0.62528  0.70625  0.69772  1.0000
  H   H2402     1.0  0.67998  0.82290  0.77945  1.0000
  C   C2012     1.0  0.65487  0.98085  0.85990  1.0000
  C   C2013     1.0  0.72083  0.81645  0.94071  1.0000
  H   H2403     1.0  0.70191  0.93194  0.80118  1.0000
  C   C2014     1.0  0.58203  0.87406  0.83064  1.0000
  C   C2015     1.0  0.63110  0.77965  0.66681  1.0000
  H   H2404     1.0  0.61773  0.79193  0.69679  1.0000
  C   C2016     1.0  0.56741  0.90550  0.83050  1.0000
  H   H2405     1.0  0.62789  0.90520  0.74445  1.0000
  C   C2017     1.0  0.69945  0.74815  0.60531  1.0000
  C   C2018     1.0  0.73878  0.75767  0.61194  1.0000
  C   C2019     1.0  0.62133  0.70391  0.78449  1.0000
  C   C2020     1.0  0.57093  0.68393  0.64813  1.0000
  C   C2021     1.0  0.55760  0.67694  0.64543  1.0000
  H   H2406     1.0  0.54551  0.67617  0.65559  1.0000
  H   H2407     1.0  0.73978  0.74012  0.82701  1.0000
  H   H2408     1.0  0.68442  0.66404  0.67481  1.0000
  C   C2022     1.0  0.58645  0.68497  0.63486  1.0000
  C   C2023     1.0  0.70084  0.89359  0.86788  1.0000
  S   S576      1.0  0.72226  0.68480  0.65078  1.0000
  H   H2409     1.0  0.62363  0.77977  0.89980  1.0000
  H   H2410     1.0  0.59676  0.69040  0.63673  1.0000
  C   C2024     1.0  0.66511  0.71489  0.64841  1.0000
  C   C2025     1.0  0.67807  0.71435  0.63266  1.0000
  C   C2026     1.0  0.69562  0.70504  0.63325  1.0000
  C   C2027     1.0  0.59617  0.96409  0.93186  1.0000
  C   C2028     1.0  0.73670  0.85005  0.95564  1.0000
  C   C2029     1.0  0.66993  0.70686  0.66480  1.0000
  H   H2411     1.0  0.67438  0.72053  0.61995  1.0000
  H   H2412     1.0  0.70530  0.70421  0.62100  1.0000
  C   C2030     1.0  0.57957  0.89242  0.82205  1.0000
  H   H2413     1.0  0.66009  0.70740  0.67704  1.0000
  H   H2414     1.0  0.70535  0.83908  0.80298  1.0000
  C   C2031     1.0  0.61681  0.75525  0.68335  1.0000
  C   C2032     1.0  0.73768  0.73681  0.91462  1.0000
  H   H2415     1.0  0.71663  0.72956  0.87397  1.0000
  H   H2416     1.0  0.52568  0.87979  0.97274  1.0000
  H   H2417     1.0  0.74532  0.85214  0.69378  1.0000
  H   H2418     1.0  0.72521  0.73320  0.91557  1.0000
  H   H2419     1.0  0.54847  0.91101  0.85435  1.0000
  H   H2420     1.0  0.74499  0.75805  0.62281  1.0000
  C   C2033     1.0  0.61900  0.75113  0.75366  1.0000
  C   C2034     1.0  0.62607  0.73735  0.74418  1.0000
  C   C2035     1.0  0.61594  0.73320  0.73442  1.0000
  C   C2036     1.0  0.59828  0.74238  0.73449  1.0000
  C   C2037     1.0  0.59109  0.75612  0.74407  1.0000
  C   C2038     1.0  0.60146  0.76064  0.75346  1.0000
  H   H2421     1.0  0.63957  0.72983  0.74435  1.0000
  H   H2422     1.0  0.62185  0.72277  0.72704  1.0000
  H   H2423     1.0  0.57745  0.76335  0.74422  1.0000
  H   H2424     1.0  0.59579  0.77121  0.76080  1.0000
  C   C2039     1.0  0.59786  0.80578  0.85499  1.0000
  C   C2040     1.0  0.58431  0.81410  0.86739  1.0000
  C   C2041     1.0  0.58853  0.82234  0.87890  1.0000
  C   C2042     1.0  0.60637  0.82207  0.87818  1.0000
  C   C2043     1.0  0.61992  0.81294  0.86643  1.0000
  C   C2044     1.0  0.61569  0.80494  0.85481  1.0000
  H   H2425     1.0  0.57048  0.81461  0.86774  1.0000
  H   H2426     1.0  0.57800  0.82926  0.88799  1.0000
  H   H2427     1.0  0.63377  0.81232  0.86604  1.0000
  H   H2428     1.0  0.62624  0.79812  0.84571  1.0000
  C   C2045     1.0  0.61999  0.91782  0.96233  1.0000
  C   C2046     1.0  0.60434  0.91556  0.95906  1.0000
  C   C2047     1.0  0.60354  0.89924  0.95603  1.0000
  C   C2048     1.0  0.61817  0.88489  0.95694  1.0000
  C   C2049     1.0  0.63372  0.88703  0.96052  1.0000
  C   C2050     1.0  0.63477  0.90359  0.96284  1.0000
  H   H2429     1.0  0.59276  0.92639  0.95898  1.0000
  H   H2430     1.0  0.59146  0.89761  0.95348  1.0000
  H   H2431     1.0  0.64499  0.87589  0.96142  1.0000
  H   H2432     1.0  0.64683  0.90521  0.96552  1.0000
  C   C2051     1.0  0.68158  0.78246  0.86245  1.0000
  C   C2052     1.0  0.69615  0.78581  0.84859  1.0000
  C   C2053     1.0  0.69605  0.78510  0.83121  1.0000
  C   C2054     1.0  0.68113  0.78175  0.82752  1.0000
  C   C2055     1.0  0.66632  0.77901  0.84126  1.0000
  C   C2056     1.0  0.66665  0.77910  0.85877  1.0000
  H   H2433     1.0  0.70770  0.78844  0.85133  1.0000
  H   H2434     1.0  0.70755  0.78713  0.82060  1.0000
  H   H2435     1.0  0.65482  0.77629  0.83849  1.0000
  H   H2436     1.0  0.65534  0.77654  0.86945  1.0000
  Fe  Fe287     1.0  0.72599  0.82186  0.86468  1.0000
  C   C2057     1.0  0.67834  0.88063  0.92746  1.0000
  C   C2058     1.0  0.68360  0.89448  0.93131  1.0000
  H   H2437     1.0  0.66452  0.87953  0.93149  1.0000
  H   H2438     1.0  0.67384  0.90396  0.93835  1.0000
  C   C2059     1.0  0.57649  0.91612  0.87701  1.0000
  C   C2060     1.0  0.57606  0.93278  0.86541  1.0000
  C   C2061     1.0  0.58733  0.93437  0.84847  1.0000
  C   C2062     1.0  0.59868  0.91917  0.84294  1.0000
  C   C2063     1.0  0.59847  0.90236  0.85417  1.0000
  C   C2064     1.0  0.58740  0.90085  0.87123  1.0000
  H   H2439     1.0  0.56710  0.94446  0.86958  1.0000
  H   H2440     1.0  0.58717  0.94735  0.83965  1.0000
  H   H2441     1.0  0.60705  0.89056  0.84986  1.0000
  H   H2442     1.0  0.58723  0.88783  0.87979  1.0000
  H   H2443     1.0  0.67260  0.86295  0.77420  1.0000
  C   C2065     1.0  0.71001  0.87615  0.80119  1.0000
  C   C2066     1.0  0.71134  0.85639  0.83001  1.0000
  C   C2067     1.0  0.70202  0.87057  0.81903  1.0000
  H   H2444     1.0  0.70519  0.85235  0.84377  1.0000
  H   H2445     1.0  0.68863  0.87717  0.82437  1.0000
  C   C2068     1.0  0.68971  0.96010  0.72573  1.0000
  H   H2446     1.0  0.69575  0.94120  0.74947  1.0000
  C   C2069     1.0  0.68025  0.85735  0.73120  1.0000
  C   C2070     1.0  0.66754  0.87015  0.73957  1.0000
  C   C2071     1.0  0.65131  0.86610  0.75005  1.0000
  C   C2072     1.0  0.64780  0.84921  0.75237  1.0000
  C   C2073     1.0  0.66051  0.83639  0.74404  1.0000
  C   C2074     1.0  0.67665  0.84051  0.73334  1.0000
  H   H2447     1.0  0.67013  0.88324  0.73776  1.0000
  H   H2448     1.0  0.64154  0.87590  0.75658  1.0000
  H   H2449     1.0  0.65777  0.82345  0.74544  1.0000
  H   H2450     1.0  0.68639  0.83059  0.72680  1.0000
  H   H2451     1.0  0.65861  0.94488  0.73867  1.0000
  C   C2075     1.0  0.57500  0.67254  0.61618  1.0000
  H   H2452     1.0  0.72882  0.71665  0.62782  1.0000
  C   C2076     1.0  0.61666  0.69320  0.77585  1.0000
  C   C2077     1.0  0.70119  0.92244  0.81432  1.0000
  H   H2453     1.0  0.59189  0.95583  0.87821  1.0000
  H   H2454     1.0  0.70512  0.73923  0.64022  1.0000
  C   C2078     1.0  0.69090  0.86793  0.91880  1.0000
  N   N137      1.0  0.57453  0.97637  0.89148  1.0000
  H   H2455     1.0  0.50090  0.89084  0.99400  1.0000
  H   H2456     1.0  0.65294  0.67396  0.68951  1.0000
  C   C2079     1.0  0.66965  0.84875  0.81032  1.0000
  C   C2080     1.0  0.58654  0.97513  0.90332  1.0000
  C   C2081     1.0  0.59635  0.66763  0.77310  1.0000
  C   C2082     1.0  0.58476  0.96464  0.92097  1.0000
  C   C2083     1.0  0.71381  0.74918  0.63425  1.0000
  H   H2457     1.0  0.60020  0.78705  0.68998  1.0000
  H   H2458     1.0  0.50564  0.69034  0.50291  1.0000
  H   H2459     1.0  0.56178  0.84877  0.97787  1.0000
  H   H2460     1.0  0.62197  0.67976  0.74613  1.0000
  H   H2461     1.0  0.74221  0.67490  0.94266  1.0000
  C   C2084     1.0  0.60790  0.68522  0.74471  1.0000
  C   C2085     1.0  0.54629  0.99431  0.83468  1.0000
  H   H2462     1.0  0.73277  0.93142  0.83017  1.0000
  H   H2463     1.0  0.57579  0.85195  0.81372  1.0000
  H   H2464     1.0  0.58011  0.83917  0.83492  1.0000
  C   C2086     1.0  0.65575  0.92360  0.70848  1.0000
  H   H2465     1.0  0.58759  0.66771  0.78658  1.0000
  H   H2466     1.0  0.69132  0.69202  0.67815  1.0000
  H   H2467     1.0  0.69379  0.91971  0.85259  1.0000
  H   H2468     1.0  0.67761  0.74981  0.59327  1.0000
  H   H2469     1.0  0.70735  0.82497  0.78795  1.0000
  N   N138      1.0  0.63340  0.92017  0.90004  1.0000
  C   C2087     1.0  0.61487  0.91739  0.90710  1.0000
  C   C2088     1.0  0.64214  0.91681  0.91524  1.0000
  C   C2089     1.0  0.63249  0.93924  0.89109  1.0000
  C   C2090     1.0  0.64333  0.90763  0.88816  1.0000
  C   C2091     1.0  0.65006  0.91342  0.86962  1.0000
  C   C2092     1.0  0.64638  0.88891  0.89504  1.0000
  C   C2093     1.0  0.65596  0.87683  0.88417  1.0000
  C   C2094     1.0  0.66268  0.88295  0.86616  1.0000
  H   H2470     1.0  0.61449  0.90382  0.91558  1.0000
  H   H2471     1.0  0.60679  0.92694  0.91569  1.0000
  H   H2472     1.0  0.60801  0.91891  0.89611  1.0000
  H   H2473     1.0  0.64143  0.90355  0.92410  1.0000
  H   H2474     1.0  0.63563  0.92663  0.92397  1.0000
  H   H2475     1.0  0.65649  0.91754  0.91052  1.0000
  H   H2476     1.0  0.62550  0.94826  0.90051  1.0000
  H   H2477     1.0  0.64609  0.94216  0.88562  1.0000
  H   H2478     1.0  0.62512  0.94315  0.88014  1.0000
  H   H2479     1.0  0.64835  0.92734  0.86309  1.0000
  H   H2480     1.0  0.64150  0.88344  0.90897  1.0000
  H   H2481     1.0  0.65839  0.86264  0.88986  1.0000
  H   H2482     1.0  0.71951  0.75251  0.83879  1.0000
  H   H2483     1.0  0.54923  0.66591  0.62768  1.0000
  C   C2095     1.0  0.64174  0.75983  0.69243  1.0000
  C   C2096     1.0  0.65534  0.74716  0.68408  1.0000
  C   C2097     1.0  0.64440  0.76324  0.70808  1.0000
  C   C2098     1.0  0.67048  0.73828  0.69111  1.0000
  C   C2099     1.0  0.65958  0.75429  0.71499  1.0000
  C   C2100     1.0  0.67256  0.74180  0.70657  1.0000
  H   H2484     1.0  0.66011  0.90520  0.77035  1.0000
  H   H2485     1.0  0.63016  0.89906  0.77371  1.0000
  H   H2486     1.0  0.68396  0.96129  0.89555  1.0000
  H   H2487     1.0  0.65424  0.74387  0.67214  1.0000
  H   H2488     1.0  0.68053  0.72845  0.68465  1.0000
  H   H2489     1.0  0.66101  0.75677  0.72727  1.0000
  H   H2490     1.0  0.68416  0.73475  0.71217  1.0000
  C   C2101     1.0  0.63708  0.91374  0.73709  1.0000
  H   H2491     1.0  0.51811  0.91277  0.93285  1.0000
  H   H2492     1.0  0.67210  0.68595  0.62308  1.0000
  C   C2102     1.0  0.66765  0.96496  0.85906  1.0000
  C   C2103     1.0  0.57691  0.69226  0.75825  1.0000
  H   H2493     1.0  0.52546  0.88463  0.94970  1.0000
  H   H2494     1.0  0.64675  0.98630  0.84999  1.0000
  H   H2495     1.0  0.61490  0.85532  0.79867  1.0000
  C   C2104     1.0  0.60880  0.85147  0.83365  1.0000
  C   C2105     1.0  0.66486  0.83738  0.82714  1.0000
  C   C2106     1.0  0.66299  0.86741  0.80920  1.0000
  C   C2107     1.0  0.65424  0.84427  0.84188  1.0000
  C   C2108     1.0  0.65219  0.87414  0.82399  1.0000
  C   C2109     1.0  0.64790  0.86259  0.84030  1.0000
  H   H2496     1.0  0.66936  0.82303  0.82907  1.0000
  H   H2497     1.0  0.65090  0.83531  0.85461  1.0000
  H   H2498     1.0  0.64730  0.88844  0.82288  1.0000
  H   H2499     1.0  0.63955  0.86783  0.85176  1.0000
  N   N139      1.0  0.64556  0.81519  0.92421  1.0000
  C   C2110     1.0  0.65756  0.80595  0.93674  1.0000
  C   C2111     1.0  0.65675  0.82012  0.90625  1.0000
  C   C2112     1.0  0.63510  0.83214  0.92942  1.0000
  C   C2113     1.0  0.63356  0.80350  0.92485  1.0000
  C   C2114     1.0  0.62050  0.79926  0.94050  1.0000
  C   C2115     1.0  0.63472  0.79563  0.91039  1.0000
  C   C2116     1.0  0.60866  0.78872  0.94122  1.0000
  C   C2117     1.0  0.62284  0.78510  0.91125  1.0000
  H   H2500     1.0  0.66122  0.92278  0.69465  1.0000
  H   H2501     1.0  0.66562  0.79306  0.93329  1.0000
  H   H2502     1.0  0.66693  0.81429  0.93648  1.0000
  H   H2503     1.0  0.64999  0.80295  0.95072  1.0000
  H   H2504     1.0  0.66631  0.80831  0.90207  1.0000
  H   H2505     1.0  0.66489  0.82961  0.90593  1.0000
  H   H2506     1.0  0.64842  0.82660  0.89610  1.0000
  H   H2507     1.0  0.62553  0.83916  0.92061  1.0000
  H   H2508     1.0  0.62750  0.83015  0.94341  1.0000
  H   H2509     1.0  0.64379  0.84144  0.92846  1.0000
  H   H2510     1.0  0.61915  0.80428  0.95223  1.0000
  H   H2511     1.0  0.64435  0.79779  0.89801  1.0000
  H   H2512     1.0  0.49963  0.86771  0.97858  1.0000
  H   H2513     1.0  0.69707  0.74419  0.56452  1.0000
  C   C2118     1.0  0.58839  0.67943  0.61891  1.0000
  Fe  Fe288     1.0  0.61161  0.98461  0.82572  1.0000
  H   H2514     1.0  0.57486  0.71811  0.77229  1.0000
  H   H2515     1.0  0.62653  0.68158  0.77263  1.0000
  H   H2516     1.0  0.74767  0.72235  0.61153  1.0000
  C   C2119     1.0  0.59973  0.69756  0.77120  1.0000
  H   H2517     1.0  0.61314  0.72774  0.79509  1.0000
  C   C2120     1.0  0.58780  0.71332  0.77574  1.0000
  H   H2518     1.0  0.66194  0.67281  0.56065  1.0000
  Fe  Fe289     1.0  0.74506  0.88837  0.72980  1.0000
  S   S577      1.0  0.63893  0.98997  0.81275  1.0000
  C   C2121     1.0  0.66483  0.98498  0.73058  1.0000
  H   H2519     1.0  0.69793  0.91022  0.81298  1.0000
  C   C2122     1.0  0.73288  0.91276  0.80609  1.0000
  C   C2123     1.0  0.72523  0.73939  0.87120  1.0000
  S   S578      1.0  0.74101  0.83068  0.83688  1.0000
  H   H2520     1.0  0.59440  0.95640  0.94542  1.0000
  C   C2124     1.0  0.71087  0.87173  0.96619  1.0000
  C   C2125     1.0  0.72895  0.74225  0.58656  1.0000
  H   H2521     1.0  0.60026  0.68066  0.60857  1.0000
  N   N140      1.0  0.50057  0.89520  0.96616  1.0000
  C   C2126     1.0  0.66313  0.98273  0.88649  1.0000
  Fe  Fe290     1.0  0.64864  0.96223  0.82724  1.0000
  H   H2522     1.0  0.74385  0.70957  0.85814  1.0000
  N   N141      1.0  0.59533  0.85989  0.82251  1.0000
  C   C2127     1.0  0.65415  0.93590  0.73367  1.0000
  H   H2523     1.0  0.72815  0.88353  0.91449  1.0000
  H   H2524     1.0  0.60495  0.67646  0.73754  1.0000
  H   H2525     1.0  0.68514  0.66874  0.60136  1.0000
  H   H2526     1.0  0.68803  0.94568  0.87130  1.0000
  H   H2527     1.0  0.71370  0.82653  0.93085  1.0000
  H   H2528     1.0  0.64915  0.91818  0.78711  1.0000
  S   S579      1.0  0.67052  0.95330  0.84238  1.0000
  H   H2529     1.0  0.73909  0.88316  0.82786  1.0000
  H   H2530     1.0  0.58349  0.73604  0.78748  1.0000
  H   H2531     1.0  0.60370  0.76133  0.67944  1.0000
  C   C2128     1.0  0.67578  0.96677  0.88567  1.0000
  H   H2532     1.0  0.59584  0.87250  0.79486  1.0000
  S   S580      1.0  0.73146  0.82750  0.88867  1.0000
  S   S581      1.0  0.60921  0.97359  0.80351  1.0000
  C   C2129     1.0  0.69197  0.74784  0.59139  1.0000
  H   H2533     1.0  0.61165  0.91745  0.76895  1.0000
  C   C2130     1.0  0.55953  0.88291  0.85641  1.0000
  C   C2131     1.0  0.72744  0.86783  0.79442  1.0000
  C   C2132     1.0  0.55747  0.90077  0.84765  1.0000
  H   H2534     1.0  0.74338  0.67263  0.69946  1.0000
  S   S582      1.0  0.73669  0.69474  0.59790  1.0000
  C   C2133     1.0  0.56522  0.99523  0.88642  1.0000
  C   C2134     1.0  0.70685  0.99235  0.97054  1.0000
  C   C2135     1.0  0.70158  0.89559  0.92663  1.0000
  C   C2136     1.0  0.72879  0.84801  0.82327  1.0000
  H   H2535     1.0  0.65879  0.83638  0.78752  1.0000
  C   C2137     1.0  0.65954  0.90119  0.85885  1.0000
  H   H2536     1.0  0.66943  0.81780  0.80228  1.0000
  H   H2537     1.0  0.66625  0.87712  0.79714  1.0000
  C   C2138     1.0  0.68717  0.95344  0.74420  1.0000
  C   C2139     1.0  0.70888  0.86904  0.91408  1.0000
  H   H2538     1.0  0.70244  0.66900  0.62329  1.0000
  C   C2140     1.0  0.62410  0.91329  0.77423  1.0000
  H   H2539     1.0  0.67045  0.87352  0.85790  1.0000
  C   C2141     1.0  0.65280  0.91876  0.77248  1.0000
  H   H2540     1.0  0.69667  0.81916  0.81070  1.0000
  H   H2541     1.0  0.69748  0.84003  0.95526  1.0000
  H   H2542     1.0  0.57288  0.85609  0.85556  1.0000
  H   H2543     1.0  0.71869  0.85927  0.90751  1.0000
  N   N142      1.0  0.68099  0.84107  0.79494  1.0000
  C   C2142     1.0  0.67189  0.82907  0.79090  1.0000
  C   C2143     1.0  0.71421  0.88281  0.91801  1.0000
  C   C2144     1.0  0.61228  0.78082  0.69576  1.0000
  S   S583      1.0  0.65965  0.99311  0.90434  1.0000
  H   H2544     1.0  0.61862  0.97298  0.93408  1.0000
  H   H2545     1.0  0.66472  0.90595  0.84480  1.0000
  C   C2145     1.0  0.69831  0.83063  0.79935  1.0000
  H   H2546     1.0  0.67147  0.95742  0.77002  1.0000
  S   S584      1.0  0.70871  0.91223  0.93219  1.0000
  N   N143      1.0  0.63687  0.92502  0.76433  1.0000
  H   H2547     1.0  0.61546  0.86152  0.83499  1.0000
  C   C2146     1.0  0.71206  0.87680  0.86848  1.0000
  C   C2147     1.0  0.64381  0.91304  0.71910  1.0000
  H   H2548     1.0  0.60749  0.77333  0.70944  1.0000
  H   H2549     1.0  0.62288  0.94369  0.78136  1.0000
  C   C2148     1.0  0.68499  0.85461  0.77837  1.0000
  H   H2550     1.0  0.69293  0.86339  0.77998  1.0000
  Fe  Fe291     1.0  0.62179  0.94721  0.81851  1.0000
  H   H2551     1.0  0.61687  0.94912  0.75999  1.0000
  H   H2552     1.0  0.66251  0.92767  0.76675  1.0000
  C   C2149     1.0  0.67815  0.95798  0.87188  1.0000
  H   H2553     1.0  0.58709  0.89710  0.80896  1.0000
  H   H2554     1.0  0.55204  0.87930  0.86990  1.0000
  C   C2150     1.0  0.58516  0.97014  0.87510  1.0000
  C   C2151     1.0  0.72135  0.74189  0.57279  1.0000
  H   H2555     1.0  0.53177  0.67016  0.51385  1.0000
  S   S585      1.0  0.62155  0.95779  0.84196  1.0000
  H   H2556     1.0  0.71637  0.75295  0.87039  1.0000
  H   H2557     1.0  0.61288  0.87624  0.80401  1.0000
  H   H2558     1.0  0.70530  0.76277  0.63142  1.0000
  H   H2559     1.0  0.63476  0.77240  0.71562  1.0000
  H   H2560     1.0  0.63754  0.95267  0.76195  1.0000
  H   H2561     1.0  0.69302  0.84832  0.76696  1.0000
  C   C2152     1.0  0.70045  0.69683  0.64963  1.0000
  N   N144      1.0  0.73396  0.82379  0.94530  1.0000
  H   H2562     1.0  0.67015  0.94335  0.70748  1.0000
  H   H2563     1.0  0.62000  0.91382  0.78860  1.0000
  C   C2153     1.0  0.67335  0.96257  0.75584  1.0000
  C   C2154     1.0  0.64246  0.92493  0.74505  1.0000
  C   C2155     1.0  0.60508  0.86644  0.80421  1.0000
  C   C2156     1.0  0.72063  0.93436  0.82457  1.0000
  H   H2564     1.0  0.59600  0.83530  0.81526  1.0000
  S   S586      1.0  0.64989  0.94921  0.80508  1.0000
  C   C2157     1.0  0.62816  0.94339  0.76698  1.0000
  H   H2565     1.0  0.68538  0.86696  0.96679  1.0000
  C   C2158     1.0  0.74260  0.80976  0.95865  1.0000
  C   C2159     1.0  0.66724  0.67435  0.63263  1.0000
  C   C2160     1.0  0.57156  0.86973  0.84807  1.0000
  C   C2161     1.0  0.71670  0.90398  0.83731  1.0000
  C   C2162     1.0  0.74774  0.82754  0.92882  1.0000
  H   H2566     1.0  0.64001  0.90398  0.71343  1.0000
  H   H2567     1.0  0.70982  0.86622  0.88003  1.0000
  S   S587      1.0  0.72957  0.79235  0.87508  1.0000
  C   C2163     1.0  0.72930  0.86573  0.96211  1.0000
  H   H2568     1.0  0.63837  0.78965  0.66727  1.0000
  H   H2569     1.0  0.61922  0.84070  0.82811  1.0000
  N   N145      1.0  0.62571  0.76882  0.68485  1.0000
  H   H2570     1.0  0.54265  0.98418  0.83041  1.0000
  C   C2164     1.0  0.66198  0.97821  0.74898  1.0000
  Fe  Fe292     1.0  0.63751  0.97661  0.79184  1.0000
  C   C2165     1.0  0.68766  0.69821  0.66541  1.0000
  N   N146      1.0  0.71799  0.91805  0.82082  1.0000
  C   C2166     1.0  0.60929  0.71917  0.78886  1.0000
  H   H2571     1.0  0.63448  0.70062  0.78754  1.0000
  Fe  Fe293     1.0  0.74178  0.66837  0.58988  1.0000
  H   H2572     1.0  0.60038  0.77387  0.92702  1.0000
  H   H2573     1.0  0.60274  0.84521  0.84730  1.0000
  H   H2574     1.0  0.73147  0.77143  0.60714  1.0000
  H   H2575     1.0  0.60720  0.69873  0.73595  1.0000
  H   H2576     1.0  0.73115  0.73665  0.88303  1.0000
  N   N147      1.0  0.73915  0.73828  0.85469  1.0000
  C   C2167     1.0  0.70306  0.90701  0.85254  1.0000
  H   H2577     1.0  0.73120  0.90105  0.80201  1.0000
  C   C2168     1.0  0.66076  0.93516  0.71571  1.0000
  H   H2578     1.0  0.57458  0.95688  0.92680  1.0000
  C   C2169     1.0  0.58640  0.84607  0.82157  1.0000
  H   H2579     1.0  0.72312  0.72901  0.84237  1.0000
  H   H2580     1.0  0.68063  0.98120  0.70477  1.0000
  H   H2581     1.0  0.55201  0.96669  0.89025  1.0000
  H   H2582     1.0  0.52645  0.90192  0.96015  1.0000
  C   C2170     1.0  0.71826  0.74533  0.60330  1.0000
  H   H2583     1.0  0.68959  0.92856  0.82357  1.0000
  Fe  Fe294     1.0  0.73234  0.79836  0.89992  1.0000
  H   H2584     1.0  0.56608  0.91948  0.82396  1.0000
  H   H2585     1.0  0.69020  0.89610  0.87930  1.0000
  C   C2171     1.0  0.68983  0.99298  0.98160  1.0000
  H   H2586     1.0  0.72741  0.80455  0.93473  1.0000
  H   H2587     1.0  0.57449  0.98311  0.82867  1.0000
  H   H2588     1.0  0.73385  0.87236  0.78075  1.0000
  N   N148      1.0  0.59516  0.68598  0.76201  1.0000
  H   H2589     1.0  0.71363  0.66363  0.70945  1.0000
  S   S588      1.0  0.67746  0.97633  0.98515  1.0000
  H   H2590     1.0  0.55162  0.96994  0.91169  1.0000
  H   H2591     1.0  0.61429  0.74570  0.69627  1.0000
  C   C2172     1.0  0.52038  0.89031  0.96193  1.0000
  H   H2592     1.0  0.61931  0.78696  0.66085  1.0000
  C   C2173     1.0  0.56065  0.96552  0.89964  1.0000
  C   C2174     1.0  0.72578  0.84012  0.95260  1.0000
  H   H2593     1.0  0.71244  0.98199  0.96294  1.0000
  H   H2594     1.0  0.57534  0.70576  0.74929  1.0000
  C   C2175     1.0  0.59257  0.72383  0.78453  1.0000
  H   H2595     1.0  0.73787  0.87353  0.96368  1.0000
  H   H2596     1.0  0.57668  0.97170  0.86547  1.0000
  C   C2176     1.0  0.69973  0.86201  0.96394  1.0000
  H   H2597     1.0  0.63997  0.77127  0.65738  1.0000
  C   C2177     1.0  0.73768  0.75419  0.91541  1.0000
  H   H2598     1.0  0.62488  0.74735  0.67324  1.0000
  S   S589      1.0  0.64350  0.98921  0.76279  1.0000
  H   H2599     1.0  0.70916  0.94022  0.83429  1.0000
  H   H2600     1.0  0.70519  0.88421  0.97064  1.0000
  H   H2601     1.0  0.74222  0.83915  0.91903  1.0000
  H   H2602     1.0  0.74338  0.73960  0.58411  1.0000
  C   C2178     1.0  0.70289  0.74467  0.57519  1.0000
  H   H2603     1.0  0.72205  0.94510  0.81234  1.0000
  C   C2179     1.0  0.55031  0.84494  0.98761  1.0000
  C   C2180     1.0  0.73684  0.85379  0.80547  1.0000
  H   H2604     1.0  0.72990  0.73914  0.56027  1.0000
  H   H2605     1.0  0.72074  0.74895  0.64479  1.0000
  C   C2181     1.0  0.53619  0.84218  0.98206  1.0000
  H   H2606     1.0  0.74390  0.67052  0.67750  1.0000
  H   H2607     1.0  0.66628  0.67636  0.64621  1.0000
  H   H2608     1.0  0.73348  0.92363  0.79391  1.0000
  H   H2609     1.0  0.74877  0.79717  0.95366  1.0000
  C   C2182     1.0  0.50373  0.91694  0.93600  1.0000
  H   H2610     1.0  0.56650  0.69274  0.77072  1.0000
  C   C2183     1.0  0.52676  0.66703  0.50388  1.0000
  C   C2184     1.0  0.70697  0.84646  0.95721  1.0000
  C   C2185     1.0  0.60977  0.97360  0.92554  1.0000
  H   H2611     1.0  0.69020  0.75030  0.61759  1.0000
  H   H2612     1.0  0.71084  0.81189  0.95268  1.0000
  H   H2613     1.0  0.59560  0.97788  0.86783  1.0000
  C   C2186     1.0  0.73741  0.72661  0.62297  1.0000
  H   H2614     1.0  0.74605  0.90953  0.80990  1.0000
  H   H2615     1.0  0.73274  0.80658  0.97128  1.0000
  C   C2187     1.0  0.55966  0.67114  0.62961  1.0000
  C   C2188     1.0  0.65281  0.98990  0.87348  1.0000
  H   H2616     1.0  0.57394  0.68333  0.75126  1.0000
  C   C2189     1.0  0.72605  0.87359  0.85412  1.0000
  H   H2617     1.0  0.65360  0.67517  0.63089  1.0000
  H   H2618     1.0  0.59846  0.78612  0.95314  1.0000
  H   H2619     1.0  0.73486  0.86051  0.85472  1.0000
  C   C2190     1.0  0.73009  0.74013  0.84001  1.0000
  H   H2620     1.0  0.55507  0.99657  0.87858  1.0000
  H   H2621     1.0  0.74446  0.72554  0.63368  1.0000
  H   H2622     1.0  0.51053  0.83483  0.99062  1.0000
  H   H2623     1.0  0.62240  0.99151  0.90358  1.0000
  H   H2624     1.0  0.50449  0.93561  0.91072  1.0000
  C   C2191     1.0  0.56432  0.99376  0.83357  1.0000
  C   C2192     1.0  0.61189  0.98398  0.90834  1.0000
  C   C2193     1.0  0.60045  0.98482  0.89736  1.0000
  C   C2194     1.0  0.51197  0.67833  0.49776  1.0000
  H   H2625     1.0  0.73964  0.77003  0.82826  1.0000
  C   C2195     1.0  0.74821  0.76763  0.83748  1.0000
  H   H2626     1.0  0.60256  0.99325  0.88416  1.0000
  H   H2627     1.0  0.49947  0.91370  0.98200  1.0000
  H   H2628     1.0  0.82693  0.20313  0.31966  1.0000
  S   S590      1.0  0.81275  0.19551  0.36904  1.0000
  C   C2196     1.0  0.93582  0.09732  0.45853  1.0000
  C   C2197     1.0  0.80228  0.18736  0.45107  1.0000
  H   H2629     1.0  0.76391  0.06027  0.19097  1.0000
  S   S591      1.0  0.77597  0.22379  0.05268  1.0000
  H   H2630     1.0  0.81116  0.20525  0.41716  1.0000
  C   C2198     1.0  0.88855  0.21432  0.25486  1.0000
  H   H2631     1.0  0.81097  0.21402  0.46053  1.0000
  C   C2199     1.0  0.92950  0.15696  0.40228  1.0000
  S   S592      1.0  0.77457  0.17429  0.05975  1.0000
  Fe  Fe295     1.0  0.94386  0.25276  0.17167  1.0000
  S   S593      1.0  0.95944  0.27405  0.15787  1.0000
  S   S594      1.0  0.92918  0.24954  0.20040  1.0000
  Fe  Fe296     1.0  0.94828  0.24033  0.13771  1.0000
  S   S595      1.0  0.96440  0.26028  0.12050  1.0000
  S   S596      1.0  0.94174  0.21889  0.12883  1.0000
  Fe  Fe297     1.0  0.97816  0.25351  0.14333  1.0000
  Fe  Fe298     1.0  0.94457  0.27938  0.13608  1.0000
  S   S597      1.0  0.93285  0.30708  0.12274  1.0000
  S   S598      1.0  0.96396  0.23151  0.15921  1.0000
  S   S599      1.0  0.92704  0.26004  0.15123  1.0000
  Fe  Fe299     1.0  0.83403  0.29495  0.11777  1.0000
  S   S600      1.0  0.86004  0.29169  0.09803  1.0000
  S   S601      1.0  0.83114  0.30430  0.14310  1.0000
  Fe  Fe300     1.0  0.81514  0.28045  0.09689  1.0000
  S   S602      1.0  0.83963  0.27703  0.07523  1.0000
  S   S603      1.0  0.78993  0.27026  0.09999  1.0000
  Fe  Fe301     1.0  0.85442  0.26572  0.09743  1.0000
  S   S604      1.0  0.87238  0.23868  0.09741  1.0000
  Fe  Fe302     1.0  0.84284  0.30345  0.07781  1.0000
  S   S605      1.0  0.82990  0.26771  0.11909  1.0000
  S   S606      1.0  0.81685  0.30823  0.09760  1.0000
  C   C2200     1.0  0.86553  0.20854  0.28895  1.0000
  Fe  Fe303     1.0  0.95007  0.16092  0.32211  1.0000
  S   S607      1.0  0.94836  0.18930  0.30708  1.0000
  S   S608      1.0  0.96834  0.14466  0.34081  1.0000
  Fe  Fe304     1.0  0.92114  0.15553  0.30597  1.0000
  S   S609      1.0  0.91666  0.18355  0.29003  1.0000
  S   S610      1.0  0.90827  0.13338  0.30607  1.0000
  Fe  Fe305     1.0  0.94655  0.17957  0.28370  1.0000
  S   S611      1.0  0.96314  0.18506  0.25580  1.0000
  Fe  Fe306     1.0  0.91876  0.19076  0.31475  1.0000
  S   S612      1.0  0.90093  0.21404  0.32581  1.0000
  S   S613      1.0  0.95090  0.15095  0.29809  1.0000
  S   S614      1.0  0.92060  0.16300  0.33138  1.0000
  H   H2632     1.0  0.99128  0.31754  0.17651  1.0000
  H   H2633     1.0  0.86326  0.31714  0.18210  1.0000
  H   H2634     1.0  0.94228  0.10184  0.46638  1.0000
  Fe  Fe307     1.0  0.98497  0.11355  0.44072  1.0000
  S   S615      1.0  0.96074  0.13528  0.43748  1.0000
  C   C2201     1.0  0.84786  0.12678  0.43980  1.0000
  H   H2635     1.0  0.95639  0.07889  0.28863  1.0000
  S   S616      1.0  0.86127  0.05653  0.48730  1.0000
  Fe  Fe308     1.0  0.95948  0.13736  0.46515  1.0000
  H   H2636     1.0  0.79098  0.07286  0.14997  1.0000
  H   H2637     1.0  0.93550  0.16613  0.40621  1.0000
  H   H2638     1.0  0.84440  0.21344  0.33182  1.0000
  Fe  Fe309     1.0  0.84604  0.11459  0.26158  1.0000
  S   S617      1.0  0.83985  0.10296  0.29082  1.0000
  S   S618      1.0  0.86160  0.13665  0.25178  1.0000
  Fe  Fe310     1.0  0.82149  0.09467  0.25358  1.0000
  S   S619      1.0  0.81355  0.08167  0.28244  1.0000
  S   S620      1.0  0.80857  0.09537  0.23093  1.0000
  Fe  Fe311     1.0  0.81158  0.10847  0.28780  1.0000
  S   S621      1.0  0.78894  0.12230  0.30649  1.0000
  Fe  Fe312     1.0  0.84275  0.07739  0.28269  1.0000
  S   S622      1.0  0.85672  0.05333  0.30006  1.0000
  S   S623      1.0  0.81744  0.12189  0.25917  1.0000
  S   S624      1.0  0.85112  0.08843  0.25325  1.0000
  Fe  Fe313     1.0  0.92142  0.03760  0.37903  1.0000
  S   S625      1.0  0.91783  0.06531  0.36248  1.0000
  S   S626      1.0  0.89615  0.03172  0.39784  1.0000
  Fe  Fe314     1.0  0.96076  0.02878  0.36265  1.0000
  S   S627      1.0  0.96017  0.05571  0.34438  1.0000
  Fe  Fe315     1.0  0.94350  0.06583  0.36849  1.0000
  S   S628      1.0  0.94510  0.09113  0.37457  1.0000
  Fe  Fe316     1.0  0.93458  0.05252  0.34003  1.0000
  S   S629      1.0  0.92886  0.06288  0.31248  1.0000
  S   S630      1.0  0.94575  0.03926  0.38720  1.0000
  S   S631      1.0  0.93652  0.02450  0.35608  1.0000
  S   S632      1.0  0.90695  0.02068  0.47573  1.0000
  Fe  Fe317     1.0  0.80968  0.14912  0.39986  1.0000
  H   H2639     1.0  0.94334  0.06437  0.43650  1.0000
  Fe  Fe318     1.0  0.82788  0.18018  0.39035  1.0000
  S   S633      1.0  0.84731  0.19147  0.39756  1.0000
  S   S634      1.0  0.80393  0.17361  0.41094  1.0000
  S   S635      1.0  0.83486  0.15467  0.38087  1.0000
  H   H2640     1.0  0.84252  0.04474  0.33981  1.0000
  H   H2641     1.0  0.95731  0.07497  0.45406  1.0000
  S   S636      1.0  0.85237  0.32388  0.05392  1.0000
  H   H2642     1.0  0.91670  0.09983  0.40455  1.0000
  C   C2202     1.0  0.91997  0.17960  0.37770  1.0000
  H   H2643     1.0  0.82447  0.07003  0.32237  1.0000
  C   C2203     1.0  0.84023  0.09813  0.45429  1.0000
  C   C2204     1.0  0.82833  0.10120  0.44300  1.0000
  H   H2644     1.0  0.88567  0.06975  0.43157  1.0000
  H   H2645     1.0  0.84160  0.08600  0.46439  1.0000
  H   H2646     1.0  0.82069  0.09134  0.44435  1.0000
  C   C2205     1.0  0.89868  0.02712  0.41985  1.0000
  C   C2206     1.0  0.91526  0.01860  0.42412  1.0000
  Fe  Fe319     1.0  0.75233  0.30549  0.39632  1.0000
  C   C2207     1.0  0.90338  0.02253  0.45452  1.0000
  C   C2208     1.0  0.88666  0.03064  0.45038  1.0000
  C   C2209     1.0  0.88427  0.03280  0.43306  1.0000
  C   C2210     1.0  0.97322  0.12383  0.27199  1.0000
  H   H2647     1.0  0.96859  0.07038  0.30594  1.0000
  H   H2648     1.0  0.89799  0.23182  0.26498  1.0000
  N   N149      1.0  0.75816  0.12262  0.26297  1.0000
  C   C2211     1.0  0.79745  0.13784  0.31204  1.0000
  C   C2212     1.0  0.78881  0.14512  0.32708  1.0000
  C   C2213     1.0  0.79750  0.15475  0.33330  1.0000
  H   H2649     1.0  0.78650  0.14864  0.46231  1.0000
  H   H2650     1.0  0.87916  0.15957  0.40572  1.0000
  C   C2214     1.0  0.81394  0.14163  0.30235  1.0000
  H   H2651     1.0  0.77576  0.14275  0.33429  1.0000
  C   C2215     1.0  0.93840  0.32765  0.16140  1.0000
  H   H2652     1.0  0.77312  0.30402  0.31157  1.0000
  H   H2653     1.0  0.82013  0.13720  0.29004  1.0000
  C   C2216     1.0  0.87667  0.05607  0.30363  1.0000
  C   C2217     1.0  0.88298  0.04623  0.31901  1.0000
  C   C2218     1.0  0.89882  0.04845  0.32204  1.0000
  C   C2219     1.0  0.90875  0.06003  0.30935  1.0000
  C   C2220     1.0  0.90258  0.06962  0.29388  1.0000
  C   C2221     1.0  0.88641  0.06793  0.29119  1.0000
  H   H2654     1.0  0.87562  0.03687  0.32859  1.0000
  H   H2655     1.0  0.90355  0.04088  0.33396  1.0000
  H   H2656     1.0  0.91037  0.07831  0.28385  1.0000
  H   H2657     1.0  0.88175  0.07539  0.27920  1.0000
  H   H2658     1.0  0.77726  0.18039  0.45114  1.0000
  C   C2222     1.0  0.96719  0.08101  0.29378  1.0000
  C   C2223     1.0  0.79553  0.15736  0.46057  1.0000
  C   C2224     1.0  0.76874  0.10639  0.27270  1.0000
  H   H2659     1.0  0.87139  0.03927  0.42980  1.0000
  C   C2225     1.0  0.74960  0.10915  0.04514  1.0000
  C   C2226     1.0  0.95694  0.08946  0.39086  1.0000
  S   S637      1.0  0.86400  0.10832  0.46728  1.0000
  S   S638      1.0  0.77185  0.27986  0.40362  1.0000
  H   H2660     1.0  0.81602  0.10686  0.16405  1.0000
  H   H2661     1.0  0.85599  0.18258  0.33010  1.0000
  C   C2227     1.0  0.89676  0.13516  0.28940  1.0000
  C   C2228     1.0  0.88682  0.15147  0.28189  1.0000
  C   C2229     1.0  0.87619  0.15193  0.27011  1.0000
  C   C2230     1.0  0.87508  0.13608  0.26627  1.0000
  C   C2231     1.0  0.88516  0.11988  0.27365  1.0000
  C   C2232     1.0  0.89620  0.11950  0.28487  1.0000
  H   H2662     1.0  0.88721  0.16361  0.28530  1.0000
  H   H2663     1.0  0.86848  0.16447  0.26424  1.0000
  H   H2664     1.0  0.88466  0.10765  0.27045  1.0000
  H   H2665     1.0  0.90430  0.10696  0.29008  1.0000
  C   C2233     1.0  0.96989  0.15355  0.35831  1.0000
  C   C2234     1.0  0.97527  0.14177  0.37336  1.0000
  C   C2235     1.0  0.84038  0.32246  0.14233  1.0000
  C   C2236     1.0  0.97397  0.16650  0.38644  1.0000
  C   C2237     1.0  0.96855  0.17841  0.37138  1.0000
  C   C2238     1.0  0.96645  0.17196  0.35736  1.0000
  H   H2666     1.0  0.76079  0.09629  0.15580  1.0000
  H   H2667     1.0  0.81631  0.13579  0.46942  1.0000
  H   H2668     1.0  0.96606  0.19264  0.37052  1.0000
  H   H2669     1.0  0.96245  0.18121  0.34572  1.0000
  C   C2239     1.0  0.88691  0.20721  0.34625  1.0000
  C   C2240     1.0  0.88069  0.21823  0.35865  1.0000
  C   C2241     1.0  0.86895  0.21310  0.37475  1.0000
  C   C2242     1.0  0.86290  0.19730  0.37810  1.0000
  C   C2243     1.0  0.86904  0.18635  0.36568  1.0000
  C   C2244     1.0  0.88129  0.19114  0.34995  1.0000
  H   H2670     1.0  0.88498  0.23071  0.35582  1.0000
  H   H2671     1.0  0.86413  0.22165  0.38432  1.0000
  H   H2672     1.0  0.86452  0.17407  0.36828  1.0000
  H   H2673     1.0  0.88597  0.18259  0.34049  1.0000
  H   H2674     1.0  0.99470  0.28515  0.15057  1.0000
  H   H2675     1.0  0.89441  0.10550  0.41721  1.0000
  C   C2245     1.0  0.83646  0.32954  0.15764  1.0000
  C   C2246     1.0  0.93972  0.23270  0.21592  1.0000
  C   C2247     1.0  0.93072  0.22945  0.23376  1.0000
  C   C2248     1.0  0.93801  0.21514  0.24624  1.0000
  C   C2249     1.0  0.95445  0.20406  0.24089  1.0000
  C   C2250     1.0  0.96376  0.20766  0.22313  1.0000
  C   C2251     1.0  0.95643  0.22200  0.21067  1.0000
  H   H2676     1.0  0.91803  0.23804  0.23783  1.0000
  H   H2677     1.0  0.93092  0.21260  0.25997  1.0000
  H   H2678     1.0  0.97657  0.19923  0.21897  1.0000
  H   H2679     1.0  0.96368  0.22462  0.19702  1.0000
  C   C2252     1.0  0.79042  0.17573  0.45408  1.0000
  H   H2680     1.0  0.93227  0.12846  0.25212  1.0000
  Fe  Fe320     1.0  0.78910  0.18704  0.38903  1.0000
  H   H2681     1.0  0.96968  0.32249  0.02699  1.0000
  H   H2682     1.0  0.98171  0.13889  0.39876  1.0000
  H   H2683     1.0  0.98984  0.09812  0.37377  1.0000
  C   C2253     1.0  0.75226  0.25784  0.39969  1.0000
  H   H2684     1.0  0.87698  0.18456  0.31488  1.0000
  S   S639      1.0  0.74970  0.31614  0.36781  1.0000
  H   H2685     1.0  0.95541  0.31049  0.14398  1.0000
  C   C2254     1.0  0.89141  0.23389  0.10638  1.0000
  C   C2255     1.0  0.89660  0.24697  0.11146  1.0000
  C   C2256     1.0  0.91213  0.24259  0.11836  1.0000
  C   C2257     1.0  0.92233  0.22510  0.12022  1.0000
  C   C2258     1.0  0.91702  0.21210  0.11521  1.0000
  C   C2259     1.0  0.90163  0.21648  0.10828  1.0000
  H   H2686     1.0  0.88889  0.26050  0.10973  1.0000
  H   H2687     1.0  0.91630  0.25277  0.12195  1.0000
  H   H2688     1.0  0.92493  0.19862  0.11651  1.0000
  H   H2689     1.0  0.89772  0.20638  0.10424  1.0000
  C   C2260     1.0  0.91316  0.16822  0.23814  1.0000
  C   C2261     1.0  0.91350  0.31401  0.07477  1.0000
  C   C2262     1.0  0.78861  0.06881  0.24361  1.0000
  C   C2263     1.0  0.79127  0.08480  0.23164  1.0000
  C   C2264     1.0  0.89308  0.07427  0.43899  1.0000
  H   H2690     1.0  0.91902  0.26265  0.07851  1.0000
  C   C2265     1.0  0.98214  0.31575  0.03101  1.0000
  H   H2691     1.0  0.79695  0.06276  0.25330  1.0000
  H   H2692     1.0  0.78231  0.10474  0.20979  1.0000
  C   C2266     1.0  0.91892  0.08546  0.43793  1.0000
  C   C2267     1.0  0.77936  0.23697  0.06586  1.0000
  C   C2268     1.0  0.76893  0.23787  0.08292  1.0000
  C   C2269     1.0  0.77212  0.24841  0.09299  1.0000
  C   C2270     1.0  0.78596  0.25793  0.08630  1.0000
  C   C2271     1.0  0.79636  0.25705  0.06922  1.0000
  C   C2272     1.0  0.79301  0.24671  0.05905  1.0000
  H   H2693     1.0  0.75759  0.13668  0.28296  1.0000
  C   C2273     1.0  0.98944  0.02441  0.31339  1.0000
  H   H2694     1.0  0.80693  0.26443  0.06380  1.0000
  H   H2695     1.0  0.80109  0.24621  0.04583  1.0000
  H   H2696     1.0  0.85527  0.13680  0.43861  1.0000
  H   H2697     1.0  0.89646  0.16830  0.41977  1.0000
  H   H2698     1.0  0.90730  0.18668  0.40995  1.0000
  H   H2699     1.0  0.89754  0.21632  0.24194  1.0000
  H   H2700     1.0  0.93030  0.17300  0.36766  1.0000
  C   C2274     1.0  0.83585  0.12995  0.42872  1.0000
  H   H2701     1.0  0.86898  0.01235  0.49354  1.0000
  H   H2702     1.0  0.84816  0.23070  0.31221  1.0000
  H   H2703     1.0  0.88929  0.18526  0.40131  1.0000
  N   N150      1.0  0.91395  0.16669  0.39409  1.0000
  H   H2704     1.0  0.92597  0.18942  0.38056  1.0000
  H   H2705     1.0  0.86793  0.26656  0.13784  1.0000
  C   C2275     1.0  0.88876  0.22308  0.26777  1.0000
  C   C2276     1.0  0.75818  0.12068  0.10722  1.0000
  H   H2706     1.0  0.90866  0.18718  0.37117  1.0000
  H   H2707     1.0  0.80594  0.05947  0.20149  1.0000
  H   H2708     1.0  0.93090  0.18218  0.24222  1.0000
  N   N151      1.0  0.80398  0.10128  0.36850  1.0000
  C   C2277     1.0  0.78545  0.10603  0.36556  1.0000
  C   C2278     1.0  0.80272  0.09867  0.38795  1.0000
  C   C2279     1.0  0.81272  0.11651  0.35935  1.0000
  C   C2280     1.0  0.81436  0.08548  0.36106  1.0000
  C   C2281     1.0  0.81462  0.08488  0.34332  1.0000
  C   C2282     1.0  0.82522  0.07083  0.37064  1.0000
  C   C2283     1.0  0.82456  0.07026  0.33592  1.0000
  C   C2284     1.0  0.83526  0.05633  0.36300  1.0000
  C   C2285     1.0  0.83481  0.05600  0.34573  1.0000
  H   H2709     1.0  0.77890  0.09439  0.37097  1.0000
  H   H2710     1.0  0.77705  0.11717  0.37205  1.0000
  H   H2711     1.0  0.78485  0.11076  0.35123  1.0000
  H   H2712     1.0  0.79689  0.08691  0.39560  1.0000
  H   H2713     1.0  0.79413  0.11047  0.39331  1.0000
  H   H2714     1.0  0.81593  0.09707  0.39117  1.0000
  H   H2715     1.0  0.81399  0.11936  0.34467  1.0000
  H   H2716     1.0  0.80516  0.12891  0.36409  1.0000
  H   H2717     1.0  0.82636  0.11379  0.36179  1.0000
  H   H2718     1.0  0.80738  0.09581  0.33485  1.0000
  H   H2719     1.0  0.82626  0.07026  0.38402  1.0000
  H   H2720     1.0  0.84344  0.04525  0.37050  1.0000
  C   C2286     1.0  0.99826  0.32199  0.02306  1.0000
  N   N152      1.0  0.79439  0.19006  0.00521  1.0000
  H   H2721     1.0  0.75781  0.12724  0.09354  1.0000
  C   C2287     1.0  0.78230  0.23018  0.39470  1.0000
  H   H2722     1.0  0.83406  0.14240  0.41914  1.0000
  H   H2723     1.0  0.97848  0.09045  0.31822  1.0000
  H   H2724     1.0  0.79608  0.04295  0.15353  1.0000
  C   C2288     1.0  0.97809  0.07310  0.40970  1.0000
  H   H2725     1.0  0.83732  0.15522  0.46498  1.0000
  C   C2289     1.0  0.90664  0.29501  0.17721  1.0000
  H   H2726     1.0  0.88154  0.32265  0.16464  1.0000
  Fe  Fe321     1.0  0.75947  0.16558  0.08740  1.0000
  H   H2727     1.0  0.94247  0.11492  0.31409  1.0000
  C   C2290     1.0  0.76543  0.22745  0.39551  1.0000
  H   H2728     1.0  0.89944  0.08987  0.40325  1.0000
  C   C2291     1.0  0.76236  0.27708  0.34096  1.0000
  H   H2729     1.0  0.75415  0.12994  0.05516  1.0000
  C   C2292     1.0  0.92045  0.06398  0.41969  1.0000
  H   H2730     1.0  0.92376  0.05201  0.43024  1.0000
  Fe  Fe322     1.0  0.88956  0.04287  0.48886  1.0000
  C   C2293     1.0  0.97038  0.13675  0.25663  1.0000
  C   C2294     1.0  0.74973  0.14608  0.16938  1.0000
  C   C2295     1.0  0.87756  0.22021  0.28461  1.0000
  C   C2296     1.0  0.91076  0.10091  0.44519  1.0000
  H   H2731     1.0  0.77834  0.12398  0.23880  1.0000
  N   N153      1.0  0.87092  0.10112  0.33877  1.0000
  C   C2297     1.0  0.86235  0.09181  0.33056  1.0000
  C   C2298     1.0  0.86619  0.12052  0.33092  1.0000
  C   C2299     1.0  0.89052  0.09514  0.33366  1.0000
  C   C2300     1.0  0.86545  0.09668  0.35844  1.0000
  C   C2301     1.0  0.85848  0.10995  0.36889  1.0000
  C   C2302     1.0  0.86795  0.07860  0.36783  1.0000
  C   C2303     1.0  0.85374  0.10527  0.38749  1.0000
  C   C2304     1.0  0.86325  0.07411  0.38644  1.0000
  C   C2305     1.0  0.85605  0.08742  0.39625  1.0000
  H   H2732     1.0  0.86605  0.07706  0.33460  1.0000
  H   H2733     1.0  0.84759  0.09588  0.33403  1.0000
  H   H2734     1.0  0.86650  0.09484  0.31572  1.0000
  H   H2735     1.0  0.85163  0.12608  0.33476  1.0000
  H   H2736     1.0  0.86948  0.12323  0.31610  1.0000
  H   H2737     1.0  0.87379  0.12834  0.33471  1.0000
  H   H2738     1.0  0.89489  0.08043  0.33754  1.0000
  H   H2739     1.0  0.89542  0.09853  0.31907  1.0000
  H   H2740     1.0  0.89763  0.10149  0.33975  1.0000
  H   H2741     1.0  0.85652  0.12405  0.36301  1.0000
  H   H2742     1.0  0.87392  0.06775  0.36089  1.0000
  H   H2743     1.0  0.84823  0.11555  0.39524  1.0000
  H   H2744     1.0  0.86543  0.06019  0.39328  1.0000
  H   H2745     1.0  0.85237  0.08392  0.41068  1.0000
  C   C2306     1.0  0.94643  0.10119  0.31149  1.0000
  H   H2746     1.0  0.93046  0.00968  0.44473  1.0000
  H   H2747     1.0  0.94782  0.09182  0.32441  1.0000
  H   H2748     1.0  0.93499  0.09858  0.30781  1.0000
  N   N154      1.0  0.82736  0.21479  0.10828  1.0000
  C   C2307     1.0  0.84199  0.20861  0.11826  1.0000
  C   C2308     1.0  0.83336  0.22760  0.09180  1.0000
  C   C2309     1.0  0.81162  0.22437  0.11950  1.0000
  C   C2310     1.0  0.82233  0.20018  0.10368  1.0000
  C   C2311     1.0  0.83027  0.18185  0.10897  1.0000
  C   C2312     1.0  0.80863  0.20411  0.09403  1.0000
  C   C2313     1.0  0.82444  0.16843  0.10509  1.0000
  C   C2314     1.0  0.80293  0.19065  0.09019  1.0000
  C   C2315     1.0  0.81072  0.17282  0.09584  1.0000
  H   H2749     1.0  0.83825  0.19942  0.13121  1.0000
  H   H2750     1.0  0.85456  0.20198  0.11027  1.0000
  Fe  Fe323     1.0  0.75980  0.20198  0.06324  1.0000
  H   H2751     1.0  0.82289  0.23382  0.08392  1.0000
  H   H2752     1.0  0.84532  0.22106  0.08302  1.0000
  H   H2753     1.0  0.83699  0.23887  0.09485  1.0000
  H   H2754     1.0  0.80645  0.21518  0.13190  1.0000
  H   H2755     1.0  0.81481  0.23545  0.12335  1.0000
  H   H2756     1.0  0.80045  0.23069  0.11249  1.0000
  H   H2757     1.0  0.84089  0.17752  0.11622  1.0000
  H   H2758     1.0  0.80202  0.21770  0.08959  1.0000
  H   H2759     1.0  0.83043  0.15451  0.10946  1.0000
  H   H2760     1.0  0.79223  0.19409  0.08298  1.0000
  H   H2761     1.0  0.80601  0.16240  0.09314  1.0000
  N   N155      1.0  0.88705  0.29641  0.18152  1.0000
  C   C2316     1.0  0.88205  0.28851  0.20082  1.0000
  H   H2762     1.0  0.86903  0.26801  0.19055  1.0000
  C   C2317     1.0  0.87803  0.31554  0.17870  1.0000
  C   C2318     1.0  0.88214  0.28765  0.16979  1.0000
  C   C2319     1.0  0.88634  0.29359  0.15097  1.0000
  C   C2320     1.0  0.87282  0.27346  0.17650  1.0000
  C   C2321     1.0  0.88145  0.28590  0.13962  1.0000
  C   C2322     1.0  0.86786  0.26596  0.16501  1.0000
  C   C2323     1.0  0.87211  0.27220  0.14664  1.0000
  H   H2763     1.0  0.88886  0.27418  0.20393  1.0000
  H   H2764     1.0  0.88620  0.29534  0.20910  1.0000
  H   H2765     1.0  0.86735  0.28974  0.20537  1.0000
  H   H2766     1.0  0.78821  0.21235  0.47040  1.0000
  H   H2767     1.0  0.88962  0.31594  0.06503  1.0000
  S   S640      1.0  0.98621  0.00790  0.36341  1.0000
  H   H2768     1.0  0.99652  0.27970  0.06206  1.0000
  S   S641      1.0  0.89867  0.06819  0.48479  1.0000
  C   C2324     1.0  0.91756  0.01612  0.44151  1.0000
  H   H2769     1.0  0.89341  0.30431  0.14481  1.0000
  H   H2770     1.0  0.99469  0.30424  0.12247  1.0000
  H   H2771     1.0  0.88473  0.29075  0.12532  1.0000
  C   C2325     1.0  0.76501  0.25987  0.35162  1.0000
  N   N156      1.0  0.96314  0.09907  0.29763  1.0000
  S   S642      1.0  0.93308  0.14071  0.48445  1.0000
  H   H2772     1.0  0.78580  0.16550  0.00893  1.0000
  H   H2773     1.0  0.83012  0.21758  0.29794  1.0000
  H   H2774     1.0  0.95349  0.14866  0.23774  1.0000
  H   H2775     1.0  0.98410  0.32479  0.12959  1.0000
  H   H2776     1.0  0.93082  0.14368  0.37138  1.0000
  C   C2326     1.0  0.90112  0.17713  0.40685  1.0000
  C   C2327     1.0  0.90635  0.15384  0.38946  1.0000
  C   C2328     1.0  0.91703  0.14293  0.37737  1.0000
  C   C2329     1.0  0.88842  0.15176  0.39658  1.0000
  H   H2777     1.0  0.81926  0.20150  0.04679  1.0000
  C   C2330     1.0  0.98879  0.03299  0.28217  1.0000
  C   C2331     1.0  0.91015  0.13090  0.37254  1.0000
  C   C2332     1.0  0.88173  0.13956  0.39175  1.0000
  C   C2333     1.0  0.89254  0.12924  0.37967  1.0000
  H   H2778     1.0  0.91864  0.12284  0.36316  1.0000
  H   H2779     1.0  0.86800  0.13827  0.39735  1.0000
  H   H2780     1.0  0.88738  0.11983  0.37589  1.0000
  H   H2781     1.0  0.92133  0.19673  0.15670  1.0000
  C   C2334     1.0  0.96095  0.11251  0.28100  1.0000
  H   H2782     1.0  0.76922  0.19023  0.02373  1.0000
  H   H2783     1.0  0.79716  0.24852  0.39634  1.0000
  H   H2784     1.0  0.91319  0.05997  0.41171  1.0000
  C   C2335     1.0  0.79692  0.07517  0.15967  1.0000
  H   H2785     1.0  0.76869  0.21023  0.45147  1.0000
  H   H2786     1.0  0.90252  0.19409  0.17455  1.0000
  C   C2336     1.0  0.81243  0.16580  0.02565  1.0000
  H   H2787     1.0  0.98120  0.03849  0.27175  1.0000
  C   C2337     1.0  0.82276  0.15086  0.30873  1.0000
  N   N157      1.0  0.90963  0.07952  0.42742  1.0000
  S   S643      1.0  0.81077  0.12140  0.41655  1.0000
  H   H2788     1.0  0.94041  0.14996  0.39299  1.0000
  C   C2338     1.0  0.84982  0.11104  0.45283  1.0000
  H   H2789     1.0  0.77858  0.20628  0.42922  1.0000
  H   H2790     1.0  0.77271  0.12370  0.14253  1.0000
  C   C2339     1.0  0.91910  0.10668  0.45536  1.0000
  S   S644      1.0  0.76299  0.20669  0.39374  1.0000
  C   C2340     1.0  0.94421  0.08211  0.45165  1.0000
  H   H2791     1.0  0.80726  0.22688  0.42201  1.0000
  C   C2341     1.0  0.91730  0.18984  0.17084  1.0000
  H   H2792     1.0  0.92100  0.17530  0.17095  1.0000
  C   C2342     1.0  0.94639  0.11429  0.27306  1.0000
  S   S645      1.0  0.99015  0.08827  0.43031  1.0000
  C   C2343     1.0  0.76679  0.11851  0.13476  1.0000
  H   H2793     1.0  0.82902  0.18736  0.45351  1.0000
  C   C2344     1.0  0.92971  0.32125  0.13718  1.0000
  C   C2345     1.0  0.94376  0.12715  0.25763  1.0000
  H   H2794     1.0  0.93678  0.10585  0.27885  1.0000
  C   C2346     1.0  0.75957  0.31130  0.31708  1.0000
  C   C2347     1.0  0.78410  0.24652  0.39678  1.0000
  H   H2795     1.0  0.79394  0.21961  0.39279  1.0000
  C   C2348     1.0  0.79910  0.03597  0.16682  1.0000
  C   C2349     1.0  0.79757  0.06304  0.17630  1.0000
  C   C2350     1.0  0.81188  0.08313  0.18381  1.0000
  C   C2351     1.0  0.85331  0.21662  0.31849  1.0000
  C   C2352     1.0  0.83587  0.20472  0.30617  1.0000
  H   H2796     1.0  0.89374  0.28408  0.06693  1.0000
  H   H2797     1.0  0.83596  0.15287  0.30160  1.0000
  H   H2798     1.0  0.75918  0.09007  0.20847  1.0000
  C   C2353     1.0  0.82595  0.11724  0.43038  1.0000
  H   H2799     1.0  0.80702  0.03050  0.19883  1.0000
  H   H2800     1.0  0.79329  0.23125  0.45310  1.0000
  N   N158      1.0  0.79025  0.04674  0.18061  1.0000
  C   C2354     1.0  0.80522  0.06754  0.18833  1.0000
  C   C2355     1.0  0.81061  0.21230  0.42766  1.0000
  C   C2356     1.0  0.92782  0.30127  0.08144  1.0000
  C   C2357     1.0  0.95567  0.13846  0.24951  1.0000
  C   C2358     1.0  0.76569  0.12748  0.11731  1.0000
  H   H2801     1.0  0.75962  0.31422  0.32996  1.0000
  C   C2359     1.0  0.93598  0.07618  0.44149  1.0000
  H   H2802     1.0  0.90273  0.17056  0.19912  1.0000
  H   H2803     1.0  0.96467  0.11642  0.41317  1.0000
  C   C2360     1.0  0.81485  0.15682  0.32457  1.0000
  Fe  Fe324     1.0  0.81705  0.16913  0.36175  1.0000
  H   H2804     1.0  0.79101  0.16001  0.34512  1.0000
  C   C2361     1.0  0.97688  0.08863  0.41558  1.0000
  C   C2362     1.0  0.75361  0.16292  0.16578  1.0000
  H   H2805     1.0  0.75831  0.23057  0.08832  1.0000
  C   C2363     1.0  0.77950  0.21288  0.43956  1.0000
  C   C2364     1.0  0.97722  0.14817  0.38739  1.0000
  S   S646      1.0  0.77340  0.14736  0.10858  1.0000
  H   H2806     1.0  0.82729  0.14669  0.04413  1.0000
  H   H2807     1.0  0.77704  0.09739  0.26364  1.0000
  H   H2808     1.0  0.93763  0.30504  0.08602  1.0000
  S   S647      1.0  0.79217  0.16165  0.38002  1.0000
  C   C2365     1.0  0.79266  0.03507  0.19817  1.0000
  S   S648      1.0  0.97625  0.15805  0.45668  1.0000
  H   H2809     1.0  0.81386  0.03277  0.16534  1.0000
  H   H2810     1.0  0.76391  0.24908  0.10613  1.0000
  N   N159      1.0  0.92620  0.19437  0.18275  1.0000
  C   C2366     1.0  0.90924  0.17361  0.20788  1.0000
  H   H2811     1.0  0.94988  0.19509  0.16172  1.0000
  H   H2812     1.0  0.95354  0.19380  0.18313  1.0000
  H   H2813     1.0  0.92396  0.22116  0.16679  1.0000
  H   H2814     1.0  0.90683  0.21851  0.18670  1.0000
  H   H2815     1.0  0.89611  0.15610  0.23035  1.0000
  H   H2816     1.0  0.83486  0.19364  0.30069  1.0000
  C   C2367     1.0  0.81103  0.09471  0.16737  1.0000
  H   H2817     1.0  0.76464  0.04006  0.18464  1.0000
  H   H2818     1.0  0.78547  0.04203  0.20930  1.0000
  C   C2368     1.0  0.91754  0.27684  0.07740  1.0000
  C   C2369     1.0  0.96815  0.07350  0.39732  1.0000
  C   C2370     1.0  0.81930  0.17943  0.45535  1.0000
  H   H2819     1.0  0.86646  0.21568  0.32136  1.0000
  C   C2371     1.0  0.94578  0.18916  0.17617  1.0000
  C   C2372     1.0  0.92124  0.21402  0.18100  1.0000
  C   C2373     1.0  0.92130  0.18544  0.20171  1.0000
  H   H2820     1.0  0.91173  0.30051  0.16307  1.0000
  H   H2821     1.0  0.92895  0.21882  0.18787  1.0000
  H   H2822     1.0  0.98469  0.12354  0.27693  1.0000
  C   C2374     1.0  0.82419  0.16107  0.46198  1.0000
  C   C2375     1.0  0.90118  0.30721  0.06972  1.0000
  C   C2376     1.0  0.75041  0.24134  0.39788  1.0000
  H   H2823     1.0  0.75693  0.32456  0.30789  1.0000
  C   C2377     1.0  0.90529  0.16516  0.22587  1.0000
  S   S649      1.0  0.82765  0.16542  0.33368  1.0000
  C   C2378     1.0  0.76484  0.06775  0.22984  1.0000
  C   C2379     1.0  0.92968  0.28299  0.08279  1.0000
  C   C2380     1.0  0.87705  0.20267  0.25873  1.0000
  C   C2381     1.0  0.90333  0.28893  0.07088  1.0000
  H   H2824     1.0  0.94050  0.27348  0.08825  1.0000
  H   H2825     1.0  0.81742  0.08640  0.19333  1.0000
  C   C2382     1.0  0.99697  0.29130  0.05119  1.0000
  H   H2826     1.0  0.88376  0.08543  0.44468  1.0000
  H   H2827     1.0  0.91246  0.11832  0.46107  1.0000
  H   H2828     1.0  0.95026  0.17441  0.17793  1.0000
  C   C2383     1.0  0.92882  0.18838  0.21468  1.0000
  C   C2384     1.0  0.97770  0.10030  0.30540  1.0000
  H   H2829     1.0  0.85753  0.19010  0.27814  1.0000
  H   H2830     1.0  0.93802  0.19720  0.21101  1.0000
  H   H2831     1.0  0.96542  0.03598  0.30332  1.0000
  H   H2832     1.0  0.80278  0.09984  0.14256  1.0000
  H   H2833     1.0  0.79455  0.02315  0.17017  1.0000
  C   C2385     1.0  0.86573  0.19975  0.27553  1.0000
  H   H2834     1.0  0.87902  0.22691  0.29413  1.0000
  C   C2386     1.0  0.77553  0.06028  0.24262  1.0000
  C   C2387     1.0  0.81234  0.15006  0.46454  1.0000
  C   C2388     1.0  0.96552  0.10437  0.40915  1.0000
  N   N160      1.0  0.85445  0.20417  0.30704  1.0000
  C   C2389     1.0  0.77085  0.05190  0.18096  1.0000
  H   H2835     1.0  0.89769  0.10847  0.44335  1.0000
  C   C2390     1.0  0.78042  0.09236  0.21909  1.0000
  H   H2836     1.0  0.89617  0.06316  0.45036  1.0000
  C   C2391     1.0  0.75983  0.10312  0.14235  1.0000
  H   H2837     1.0  0.77819  0.10979  0.27876  1.0000
  C   C2392     1.0  0.98159  0.30066  0.04492  1.0000
  C   C2393     1.0  0.92480  0.17988  0.23259  1.0000
  H   H2838     1.0  0.81068  0.15513  0.02070  1.0000
  C   C2394     1.0  0.99868  0.32677  0.16681  1.0000
  C   C2395     1.0  0.86249  0.18595  0.31575  1.0000
  H   H2839     1.0  0.87558  0.03527  0.46047  1.0000
  H   H2840     1.0  0.87714  0.19559  0.24880  1.0000
  Fe  Fe325     1.0  0.86986  0.08165  0.48594  1.0000
  C   C2396     1.0  0.75055  0.12679  0.04436  1.0000
  H   H2841     1.0  0.91038  0.16147  0.25198  1.0000
  C   C2397     1.0  0.76910  0.26030  0.39944  1.0000
  H   H2842     1.0  0.85362  0.32535  0.11468  1.0000
  H   H2843     1.0  0.86125  0.17556  0.30942  1.0000
  S   S650      1.0  0.97666  0.17457  0.40397  1.0000
  H   H2844     1.0  0.99302  0.04379  0.35305  1.0000
  H   H2845     1.0  0.93303  0.06706  0.41062  1.0000
  C   C2398     1.0  0.90481  0.09433  0.41250  1.0000
  H   H2846     1.0  0.77378  0.04776  0.25172  1.0000
  C   C2399     1.0  0.99715  0.31539  0.12677  1.0000
  H   H2847     1.0  0.96940  0.06159  0.39259  1.0000
  C   C2400     1.0  0.77611  0.19937  0.01249  1.0000
  C   C2401     1.0  0.95553  0.10477  0.39697  1.0000
  H   H2848     1.0  0.92569  0.14673  0.41438  1.0000
  H   H2849     1.0  0.75093  0.08953  0.26335  1.0000
  H   H2850     1.0  0.94701  0.11715  0.39192  1.0000
  Fe  Fe326     1.0  0.97996  0.15346  0.42902  1.0000
  H   H2851     1.0  0.75253  0.09880  0.05656  1.0000
  C   C2402     1.0  0.97985  0.03161  0.29994  1.0000
  H   H2852     1.0  0.84534  0.22002  0.12144  1.0000
  H   H2853     1.0  0.76778  0.05965  0.16788  1.0000
  H   H2854     1.0  0.92631  0.01382  0.41404  1.0000
  C   C2403     1.0  0.80358  0.09074  0.15531  1.0000
  C   C2404     1.0  0.79750  0.21652  0.45762  1.0000
  S   S651      1.0  0.98193  0.11388  0.46949  1.0000
  H   H2855     1.0  0.97807  0.12762  0.37413  1.0000
  C   C2405     1.0  0.76730  0.08395  0.21822  1.0000
  H   H2856     1.0  0.78707  0.02293  0.20103  1.0000
  H   H2857     1.0  0.98245  0.02315  0.32723  1.0000
  H   H2858     1.0  0.91080  0.30223  0.18513  1.0000
  N   N161      1.0  0.79743  0.20686  0.44408  1.0000
  H   H2859     1.0  0.86042  0.25541  0.17034  1.0000
  H   H2860     1.0  0.82440  0.20940  0.42987  1.0000
  H   H2861     1.0  0.78108  0.13481  0.25471  1.0000
  H   H2862     1.0  0.91383  0.28089  0.17989  1.0000
  C   C2406     1.0  0.80816  0.19676  0.02704  1.0000
  H   H2863     1.0  0.88178  0.32276  0.18690  1.0000
  C   C2407     1.0  0.75454  0.24808  0.35230  1.0000
  H   H2864     1.0  0.99619  0.27870  0.11123  1.0000
  C   C2408     1.0  0.94249  0.31905  0.14713  1.0000
  C   C2409     1.0  0.75148  0.10506  0.11474  1.0000
  H   H2865     1.0  0.96914  0.29624  0.05096  1.0000
  H   H2866     1.0  0.97974  0.07882  0.28358  1.0000
  H   H2867     1.0  0.94805  0.32547  0.16949  1.0000
  H   H2868     1.0  0.77639  0.22754  0.43399  1.0000
  C   C2410     1.0  0.77099  0.13209  0.24900  1.0000
  H   H2869     1.0  0.75756  0.29102  0.29508  1.0000
  H   H2870     1.0  0.97542  0.11375  0.30843  1.0000
  H   H2871     1.0  0.77501  0.25573  0.35971  1.0000
  H   H2872     1.0  0.80281  0.21087  0.02305  1.0000
  H   H2873     1.0  0.77600  0.21114  0.01760  1.0000
  H   H2874     1.0  0.77069  0.28560  0.34141  1.0000
  C   C2411     1.0  0.99499  0.29663  0.15598  1.0000
  H   H2875     1.0  0.76372  0.16490  0.17143  1.0000
  Fe  Fe327     1.0  0.75061  0.17217  0.05107  1.0000
  H   H2876     1.0  0.76443  0.14521  0.24195  1.0000
  H   H2877     1.0  0.75673  0.13497  0.17796  1.0000
  H   H2878     1.0  0.99100  0.09749  0.29640  1.0000
  H   H2879     1.0  0.82877  0.32315  0.16993  1.0000
  H   H2880     1.0  0.98684  0.06081  0.41461  1.0000
  C   C2412     1.0  0.81766  0.19151  0.04068  1.0000
  H   H2881     1.0  0.83182  0.16950  0.05744  1.0000
  C   C2413     1.0  0.82460  0.17352  0.04675  1.0000
  H   H2882     1.0  0.97937  0.14590  0.25047  1.0000
  H   H2883     1.0  0.75652  0.23481  0.36071  1.0000
  H   H2884     1.0  0.76004  0.09883  0.28385  1.0000
  H   H2885     1.0  0.76767  0.20418  0.00234  1.0000
  S   S652      1.0  0.75010  0.16215  0.02708  1.0000
  C   C2414     1.0  0.80506  0.18408  0.01921  1.0000
  H   H2886     1.0  0.98086  0.30343  0.16020  1.0000
  C   C2415     1.0  0.82205  0.16071  0.03922  1.0000
  C   C2416     1.0  0.79260  0.17520  0.99821  1.0000
  C   C2417     1.0  0.75201  0.09646  0.13244  1.0000
  H   H2887     1.0  0.99702  0.10266  0.35018  1.0000
  Fe  Fe328     1.0  0.99907  0.13440  0.45999  1.0000
  Fe  Fe329     1.0  0.89153  0.06407  0.51442  1.0000
  H   H2888     1.0  0.80566  0.02507  0.55422  1.0000
  S   S653      1.0  0.86337  0.07953  0.51553  1.0000
  C   C2418     1.0  0.96824  0.14694  0.50216  1.0000
  C   C2419     1.0  0.92538  0.01617  0.52866  1.0000
  C   C2420     1.0  0.80285  0.20263  0.98997  1.0000
  Fe  Fe330     1.0  0.85716  0.05315  0.51694  1.0000
  S   S654      1.0  0.83238  0.04487  0.53490  1.0000
  H   H2889     1.0  0.93890  0.14989  0.52797  1.0000
  H   H2890     1.0  0.95391  0.10712  0.50010  1.0000
  H   H2891     1.0  0.89213  0.03048  0.57343  1.0000
  C   C2421     1.0  0.99103  0.15441  0.54820  1.0000
  C   C2422     1.0  0.85075  0.01111  0.54800  1.0000
  C   C2423     1.0  0.96880  0.17910  0.53720  1.0000
  C   C2424     1.0  0.93158  0.00893  0.51341  1.0000
  H   H2892     1.0  0.97445  0.11231  0.51518  1.0000
  C   C2425     1.0  0.81944  0.99829  0.56372  1.0000
  C   C2426     1.0  0.90965  0.11856  0.49982  1.0000
  C   C2427     1.0  0.93536  0.08982  0.51265  1.0000
  S   S655      1.0  0.88481  0.03750  0.51851  1.0000
  S   S656      1.0  0.91169  0.06766  0.52744  1.0000
  H   H2893     1.0  0.94215  0.01635  0.56181  1.0000
  C   C2428     1.0  0.97253  0.14985  0.53020  1.0000
  H   H2894     1.0  0.81699  0.19648  0.98479  1.0000
  C   C2429     1.0  0.83416  0.02261  0.54681  1.0000
  C   C2430     1.0  0.91769  0.08799  0.51578  1.0000
  H   H2895     1.0  0.93310  0.01770  0.50030  1.0000
  C   C2431     1.0  0.82664  0.00812  0.51333  1.0000
  H   H2896     1.0  0.89124  0.10097  0.51151  1.0000
  H   H2897     1.0  0.86283  0.01596  0.54199  1.0000
  H   H2898     1.0  0.92247  0.03055  0.52672  1.0000
  H   H2899     1.0  0.88867  0.01728  0.55997  1.0000
  H   H2900     1.0  0.92882  0.03590  0.55057  1.0000
  N   N162      1.0  0.96717  0.13856  0.52131  1.0000
  H   H2901     1.0  0.92400  0.03023  0.57421  1.0000
  C   C2432     1.0  0.89806  0.02481  0.56128  1.0000
  H   H2902     1.0  0.94403  0.12821  0.52341  1.0000
  H   H2903     1.0  0.79571  0.20668  0.97878  1.0000
  H   H2904     1.0  0.99387  0.12973  0.54147  1.0000
  C   C2433     1.0  0.91454  0.99995  0.57906  1.0000
  H   H2905     1.0  0.97767  0.11269  0.53635  1.0000
  H   H2906     1.0  0.94531  0.07870  0.51757  1.0000
  C   C2434     1.0  0.90489  0.10231  0.50918  1.0000
  H   H2907     1.0  0.89841  0.03649  0.54990  1.0000
  C   C2435     1.0  0.94849  0.13681  0.52962  1.0000
  N   N163      1.0  0.91603  0.01327  0.56192  1.0000
  C   C2436     1.0  0.96376  0.16805  0.52923  1.0000
  C   C2437     1.0  0.97857  0.12030  0.52235  1.0000
  H   H2908     1.0  0.95305  0.17393  0.52213  1.0000
  C   C2438     1.0  0.92275  0.00518  0.54600  1.0000
  H   H2909     1.0  0.78425  0.18006  0.98796  1.0000
  C   C2439     1.0  0.81852  0.01622  0.55500  1.0000
  H   H2910     1.0  0.81320  0.01619  0.51494  1.0000
  H   H2911     1.0  0.90954  0.00643  0.59075  1.0000
  H   H2912     1.0  0.94694  0.13092  0.54413  1.0000
  H   H2913     1.0  0.89181  0.99960  0.50822  1.0000
  C   C2440     1.0  0.98248  0.17230  0.54658  1.0000
  C   C2441     1.0  0.92829  0.02438  0.56213  1.0000
  H   H2914     1.0  0.99279  0.12077  0.51595  1.0000
  C   C2442     1.0  0.98628  0.14328  0.54009  1.0000
  H   H2915     1.0  0.95833  0.15968  0.49983  1.0000
  H   H2916     1.0  0.96222  0.19306  0.53594  1.0000
  H   H2917     1.0  0.98672  0.18096  0.55237  1.0000
  H   H2918     1.0  0.83836  0.02977  0.49651  1.0000
  C   C2443     1.0  0.94025  0.10587  0.50268  1.0000
  C   C2444     1.0  0.85836  0.00570  0.50153  1.0000
  C   C2445     1.0  0.84089  0.01578  0.50298  1.0000
  C   C2446     1.0  0.92736  0.12031  0.49638  1.0000
  H   H2919     1.0  0.80279  0.21518  0.99368  1.0000
  H   H2920     1.0  0.98176  0.14961  0.49562  1.0000
  H   H2921     1.0  0.80581  0.16793  0.99191  1.0000
  H   H2922     1.0  0.89963  0.12967  0.49496  1.0000
  H   H2923     1.0  0.96544  0.13818  0.49491  1.0000
  C   C2447     1.0  0.85036  0.33078  0.12651  1.0000
  H   H2924     1.0  0.99419  0.40562  0.03288  1.0000
  H   H2925     1.0  0.95486  0.48772  0.15500  1.0000
  N   N164      1.0  0.96422  0.48328  0.17924  1.0000
  H   H2926     1.0  0.77636  0.39403  0.34122  1.0000
  H   H2927     1.0  0.99462  0.34265  0.18626  1.0000
  H   H2928     1.0  0.92127  0.33914  0.04529  1.0000
  C   C2448     1.0  0.81336  0.38981  0.06966  1.0000
  C   C2449     1.0  0.95957  0.49495  0.16246  1.0000
  C   C2450     1.0  0.81469  0.36969  0.28584  1.0000
  C   C2451     1.0  0.95008  0.36288  0.12271  1.0000
  Fe  Fe331     1.0  0.92399  0.39452  0.04233  1.0000
  S   S657      1.0  0.90706  0.39432  0.06962  1.0000
  S   S658      1.0  0.94491  0.36956  0.03989  1.0000
  Fe  Fe332     1.0  0.90457  0.43139  0.02759  1.0000
  S   S659      1.0  0.88586  0.43413  0.05380  1.0000
  C   C2452     1.0  0.90917  0.34155  0.15490  1.0000
  Fe  Fe333     1.0  0.91049  0.42231  0.06505  1.0000
  S   S660      1.0  0.91475  0.43006  0.08852  1.0000
  Fe  Fe334     1.0  0.88417  0.40586  0.05597  1.0000
  S   S661      1.0  0.85917  0.39536  0.06984  1.0000
  S   S662      1.0  0.92944  0.42167  0.03868  1.0000
  S   S663      1.0  0.90083  0.40392  0.02871  1.0000
  H   H2929     1.0  0.77101  0.41076  0.24634  1.0000
  Fe  Fe335     1.0  0.89055  0.36840  0.18266  1.0000
  S   S664      1.0  0.88950  0.38604  0.15585  1.0000
  Fe  Fe336     1.0  0.85387  0.38675  0.19908  1.0000
  S   S665      1.0  0.84973  0.40590  0.17334  1.0000
  S   S666      1.0  0.83432  0.38843  0.22511  1.0000
  Fe  Fe337     1.0  0.86174  0.38158  0.16138  1.0000
  S   S667      1.0  0.85396  0.37589  0.13855  1.0000
  Fe  Fe338     1.0  0.87804  0.40822  0.17040  1.0000
  S   S668      1.0  0.88821  0.43369  0.15864  1.0000
  S   S669      1.0  0.86355  0.36222  0.18737  1.0000
  S   S670      1.0  0.88124  0.39093  0.19703  1.0000
  H   H2930     1.0  0.95180  0.46513  0.20151  1.0000
  S   S671      1.0  0.97821  0.46768  0.12738  1.0000
  S   S672      1.0  0.96695  0.42769  0.16687  1.0000
  C   C2453     1.0  0.90406  0.47435  0.00549  1.0000
  H   H2931     1.0  0.83887  0.48896  0.17175  1.0000
  H   H2932     1.0  0.98079  0.37264  0.12612  1.0000
  S   S673      1.0  0.98359  0.46014  0.07871  1.0000
  H   H2933     1.0  0.82296  0.36920  0.11953  1.0000
  H   H2934     1.0  0.82764  0.42942  0.20520  1.0000
  H   H2935     1.0  0.85137  0.51733  0.02787  1.0000
  H   H2936     1.0  0.96501  0.38732  0.08439  1.0000
  C   C2454     1.0  0.85545  0.34664  0.12579  1.0000
  C   C2455     1.0  0.86348  0.49285  0.99581  1.0000
  H   H2937     1.0  0.76953  0.38142  0.29617  1.0000
  C   C2456     1.0  0.96617  0.37680  0.07762  1.0000
  H   H2938     1.0  0.79728  0.35799  0.31772  1.0000
  S   S674      1.0  0.90382  0.45314  0.00283  1.0000
  H   H2939     1.0  0.85809  0.43366  0.19268  1.0000
  H   H2940     1.0  0.94881  0.48907  0.21411  1.0000
  H   H2941     1.0  0.75654  0.46748  0.47377  1.0000
  H   H2942     1.0  0.80820  0.48584  0.18404  1.0000
  C   C2457     1.0  0.85483  0.34337  0.05860  1.0000
  H   H2943     1.0  0.84173  0.33761  0.08620  1.0000
  H   H2944     1.0  0.99489  0.35520  0.02735  1.0000
  C   C2458     1.0  0.81193  0.39355  0.22349  1.0000
  C   C2459     1.0  0.79884  0.39982  0.23734  1.0000
  C   C2460     1.0  0.78091  0.40506  0.23600  1.0000
  C   C2461     1.0  0.77596  0.40378  0.22090  1.0000
  C   C2462     1.0  0.78904  0.39721  0.20711  1.0000
  C   C2463     1.0  0.80706  0.39207  0.20841  1.0000
  H   H2945     1.0  0.80266  0.40122  0.24885  1.0000
  C   C2464     1.0  0.85843  0.49676  0.01278  1.0000
  H   H2946     1.0  0.78525  0.39629  0.19537  1.0000
  H   H2947     1.0  0.81716  0.38714  0.19770  1.0000
  C   C2465     1.0  0.90993  0.43241  0.16118  1.0000
  C   C2466     1.0  0.91676  0.42015  0.17521  1.0000
  C   C2467     1.0  0.93409  0.41918  0.17705  1.0000
  C   C2468     1.0  0.94489  0.43015  0.16466  1.0000
  C   C2469     1.0  0.93805  0.44255  0.15069  1.0000
  C   C2470     1.0  0.92052  0.44381  0.14908  1.0000
  H   H2948     1.0  0.90867  0.41148  0.18476  1.0000
  H   H2949     1.0  0.93923  0.40966  0.18798  1.0000
  H   H2950     1.0  0.94622  0.45114  0.14108  1.0000
  H   H2951     1.0  0.91533  0.45337  0.13821  1.0000
  H   H2952     1.0  0.85253  0.54182  0.00131  1.0000
  H   H2953     1.0  0.97998  0.37657  0.14746  1.0000
  C   C2471     1.0  0.85071  0.35422  0.14084  1.0000
  C   C2472     1.0  0.79314  0.35905  0.27579  1.0000
  C   C2473     1.0  0.96908  0.34969  0.06008  1.0000
  H   H2954     1.0  0.86265  0.35338  0.11340  1.0000
  H   H2955     1.0  0.77577  0.36487  0.13826  1.0000
  C   C2474     1.0  0.93380  0.43862  0.08546  1.0000
  C   C2475     1.0  0.93959  0.43899  0.10045  1.0000
  C   C2476     1.0  0.95496  0.44544  0.09850  1.0000
  C   C2477     1.0  0.96418  0.45221  0.08149  1.0000
  C   C2478     1.0  0.95804  0.45239  0.06649  1.0000
  C   C2479     1.0  0.94305  0.44533  0.06844  1.0000
  H   H2956     1.0  0.93211  0.43431  0.11359  1.0000
  H   H2957     1.0  0.95950  0.44543  0.11013  1.0000
  H   H2958     1.0  0.96477  0.45814  0.05335  1.0000
  H   H2959     1.0  0.93835  0.44557  0.05683  1.0000
  C   C2480     1.0  0.85852  0.37499  0.06551  1.0000
  C   C2481     1.0  0.85009  0.36276  0.07907  1.0000
  C   C2482     1.0  0.84838  0.34691  0.07570  1.0000
  H   H2960     1.0  0.81687  0.37466  0.29676  1.0000
  C   C2483     1.0  0.86334  0.35556  0.04502  1.0000
  C   C2484     1.0  0.86540  0.37123  0.04851  1.0000
  H   H2961     1.0  0.84462  0.36572  0.09214  1.0000
  H   H2962     1.0  0.96196  0.35317  0.12524  1.0000
  H   H2963     1.0  0.86831  0.35288  0.03175  1.0000
  H   H2964     1.0  0.87176  0.38068  0.03790  1.0000
  C   C2485     1.0  0.95747  0.36610  0.05602  1.0000
  H   H2965     1.0  0.97742  0.33798  0.99774  1.0000
  C   C2486     1.0  0.95577  0.37954  0.06506  1.0000
  H   H2966     1.0  0.79622  0.45639  0.22995  1.0000
  H   H2967     1.0  0.94666  0.39217  0.06226  1.0000
  H   H2968     1.0  0.81578  0.38223  0.04499  1.0000
  C   C2487     1.0  0.89900  0.47872  0.02230  1.0000
  C   C2488     1.0  0.89705  0.49644  0.02371  1.0000
  C   C2489     1.0  0.81166  0.37891  0.05938  1.0000
  H   H2969     1.0  0.75946  0.43813  0.47527  1.0000
  H   H2970     1.0  0.76848  0.46818  0.20677  1.0000
  H   H2971     1.0  0.81712  0.38012  0.27349  1.0000
  H   H2972     1.0  0.89267  0.49990  0.03666  1.0000
  H   H2973     1.0  0.80299  0.43410  0.22632  1.0000
  H   H2974     1.0  0.81891  0.40157  0.06317  1.0000
  S   S675      1.0  0.77204  0.35793  0.35253  1.0000
  H   H2975     1.0  0.78002  0.44467  0.22907  1.0000
  H   H2976     1.0  0.81102  0.35155  0.23345  1.0000
  H   H2977     1.0  0.92376  0.35322  0.07578  1.0000
  C   C2490     1.0  0.77660  0.35425  0.27796  1.0000
  C   C2491     1.0  0.80563  0.35751  0.25945  1.0000
  H   H2978     1.0  0.89508  0.33224  0.10025  1.0000
  H   H2979     1.0  0.91677  0.36695  0.10171  1.0000
  C   C2492     1.0  0.92867  0.39071  0.12467  1.0000
  C   C2493     1.0  0.94889  0.47472  0.18908  1.0000
  H   H2980     1.0  0.95070  0.38525  0.16720  1.0000
  C   C2494     1.0  0.85032  0.46155  0.18151  1.0000
  C   C2495     1.0  0.97932  0.34688  0.07277  1.0000
  H   H2981     1.0  0.78246  0.47665  0.18638  1.0000
  C   C2496     1.0  0.83613  0.47607  0.17921  1.0000
  C   C2497     1.0  0.95989  0.49539  0.20706  1.0000
  C   C2498     1.0  0.91885  0.38634  0.11490  1.0000
  C   C2499     1.0  0.92455  0.37035  0.10907  1.0000
  C   C2500     1.0  0.97261  0.37217  0.13990  1.0000
  N   N165      1.0  0.79644  0.36619  0.28973  1.0000
  C   C2501     1.0  0.84697  0.44494  0.19101  1.0000
  C   C2502     1.0  0.98331  0.50283  0.18159  1.0000
  H   H2982     1.0  0.80225  0.42834  0.19734  1.0000
  H   H2983     1.0  0.80710  0.36544  0.14005  1.0000
  C   C2503     1.0  0.81462  0.45721  0.19610  1.0000
  C   C2504     1.0  0.81850  0.47404  0.18638  1.0000
  H   H2984     1.0  0.77496  0.38364  0.11966  1.0000
  H   H2985     1.0  0.93045  0.39011  0.15929  1.0000
  C   C2505     1.0  0.90016  0.50979  0.00836  1.0000
  C   C2506     1.0  0.95682  0.40242  0.13315  1.0000
  H   H2986     1.0  0.78602  0.38958  0.30118  1.0000
  Fe  Fe339     1.0  0.98607  0.44011  0.14335  1.0000
  H   H2987     1.0  0.88644  0.64318  0.99551  1.0000
  H   H2988     1.0  0.93650  0.48483  0.19241  1.0000
  H   H2989     1.0  0.89606  0.46862  0.03413  1.0000
  H   H2990     1.0  0.82510  0.35733  0.28436  1.0000
  C   C2507     1.0  0.82944  0.44271  0.19816  1.0000
  H   H2991     1.0  0.99139  0.47414  0.16584  1.0000
  H   H2992     1.0  0.79529  0.33638  0.12012  1.0000
  N   N166      1.0  0.95453  0.38368  0.13978  1.0000
  H   H2993     1.0  0.93269  0.54268  0.01515  1.0000
  C   C2508     1.0  0.78352  0.38326  0.29144  1.0000
  H   H2994     1.0  0.94248  0.36758  0.16395  1.0000
  H   H2995     1.0  0.76622  0.35553  0.28979  1.0000
  C   C2509     1.0  0.77268  0.34864  0.26448  1.0000
  C   C2510     1.0  0.78214  0.47089  0.20079  1.0000
  H   H2996     1.0  0.81848  0.36106  0.25635  1.0000
  H   H2997     1.0  0.97650  0.46012  0.16778  1.0000
  H   H2998     1.0  0.94407  0.41219  0.13570  1.0000
  H   H2999     1.0  0.96257  0.40513  0.11856  1.0000
  C   C2511     1.0  0.80302  0.36898  0.09715  1.0000
  Fe  Fe340     1.0  0.75367  0.34139  0.37211  1.0000
  H   H3000     1.0  0.80263  0.34000  0.30622  1.0000
  N   N167      1.0  0.86195  0.43095  0.11130  1.0000
  C   C2512     1.0  0.87221  0.43048  0.12456  1.0000
  C   C2513     1.0  0.84355  0.42940  0.12123  1.0000
  C   C2514     1.0  0.87021  0.41515  0.10323  1.0000
  C   C2515     1.0  0.86169  0.44727  0.09695  1.0000
  C   C2516     1.0  0.85049  0.45105  0.08461  1.0000
  C   C2517     1.0  0.87331  0.45911  0.09398  1.0000
  C   C2518     1.0  0.85060  0.46596  0.07049  1.0000
  C   C2519     1.0  0.87349  0.47383  0.07969  1.0000
  C   C2520     1.0  0.86213  0.47730  0.06801  1.0000
  H   H3001     1.0  0.86726  0.44255  0.13046  1.0000
  H   H3002     1.0  0.87132  0.41871  0.13573  1.0000
  H   H3003     1.0  0.88673  0.42935  0.11872  1.0000
  H   H3004     1.0  0.84365  0.41766  0.13263  1.0000
  H   H3005     1.0  0.83550  0.42716  0.11291  1.0000
  H   H3006     1.0  0.83644  0.44157  0.12657  1.0000
  H   H3007     1.0  0.88381  0.41608  0.09518  1.0000
  H   H3008     1.0  0.87142  0.40251  0.11348  1.0000
  H   H3009     1.0  0.86236  0.41380  0.09421  1.0000
  H   H3010     1.0  0.84213  0.44207  0.08530  1.0000
  H   H3011     1.0  0.88290  0.45696  0.10214  1.0000
  H   H3012     1.0  0.84218  0.46835  0.06105  1.0000
  H   H3013     1.0  0.88288  0.48233  0.07741  1.0000
  H   H3014     1.0  0.86263  0.48853  0.05677  1.0000
  C   C2521     1.0  0.97819  0.36057  0.08122  1.0000
  S   S676      1.0  0.89567  0.53226  0.01020  1.0000
  C   C2522     1.0  0.85451  0.51437  0.01473  1.0000
  H   H3015     1.0  0.79475  0.44634  0.18030  1.0000
  C   C2523     1.0  0.97975  0.46885  0.17477  1.0000
  H   H3016     1.0  0.94882  0.50675  0.16517  1.0000
  H   H3017     1.0  0.77918  0.43885  0.20021  1.0000
  N   N168      1.0  0.79896  0.36334  0.11685  1.0000
  S   S677      1.0  0.91565  0.34775  0.18449  1.0000
  C   C2524     1.0  0.78506  0.34764  0.24851  1.0000
  C   C2525     1.0  0.99386  0.41109  0.06396  1.0000
  N   N169      1.0  0.79616  0.45439  0.20355  1.0000
  C   C2526     1.0  0.80897  0.38508  0.08827  1.0000
  C   C2527     1.0  0.94471  0.37915  0.12877  1.0000
  H   H3018     1.0  0.97203  0.35806  0.14648  1.0000
  C   C2528     1.0  0.79398  0.35340  0.30715  1.0000
  C   C2529     1.0  0.94021  0.35872  0.11283  1.0000
  C   C2530     1.0  0.84164  0.34535  0.15693  1.0000
  H   H3019     1.0  0.92336  0.40312  0.12919  1.0000
  C   C2531     1.0  0.80841  0.37136  0.12553  1.0000
  C   C2532     1.0  0.94105  0.54458  0.00185  1.0000
  C   C2533     1.0  0.90915  0.34345  0.05528  1.0000
  H   H3020     1.0  0.81107  0.39390  0.09536  1.0000
  C   C2534     1.0  0.94414  0.38160  0.15837  1.0000
  H   H3021     1.0  0.78353  0.48117  0.20719  1.0000
  C   C2535     1.0  0.80038  0.35880  0.08624  1.0000
  C   C2536     1.0  0.79376  0.44711  0.22303  1.0000
  C   C2537     1.0  0.98214  0.34705  0.00310  1.0000
  H   H3022     1.0  0.90672  0.39544  0.11188  1.0000
  C   C2538     1.0  0.79294  0.44146  0.19499  1.0000
  H   H3023     1.0  0.89602  0.34963  0.15820  1.0000
  H   H3024     1.0  0.90746  0.35810  0.05390  1.0000
  H   H3025     1.0  0.86398  0.46309  0.17581  1.0000
  C   C2539     1.0  0.80153  0.35197  0.24604  1.0000
  H   H3026     1.0  0.97013  0.33913  0.05350  1.0000
  H   H3027     1.0  0.93697  0.52099  0.99658  1.0000
  H   H3028     1.0  0.95802  0.50622  0.22978  1.0000
  C   C2540     1.0  0.89424  0.33934  0.08630  1.0000
  H   H3029     1.0  0.90338  0.33482  0.13290  1.0000
  H   H3030     1.0  0.96575  0.40567  0.13995  1.0000
  C   C2541     1.0  0.76551  0.39295  0.33603  1.0000
  H   H3031     1.0  0.83780  0.35115  0.16858  1.0000
  H   H3032     1.0  0.76158  0.49141  0.48449  1.0000
  H   H3033     1.0  0.94480  0.34638  0.10805  1.0000
  C   C2542     1.0  0.97932  0.51374  0.20825  1.0000
  C   C2543     1.0  0.76013  0.37669  0.34024  1.0000
  H   H3034     1.0  0.98086  0.41089  0.06131  1.0000
  H   H3035     1.0  0.92678  0.33290  0.09190  1.0000
  C   C2544     1.0  0.75704  0.40775  0.32493  1.0000
  H   H3036     1.0  0.98634  0.43683  0.03579  1.0000
  H   H3037     1.0  0.76147  0.42021  0.32142  1.0000
  H   H3038     1.0  0.78413  0.39298  0.27845  1.0000
  H   H3039     1.0  0.98420  0.46018  0.18695  1.0000
  H   H3040     1.0  0.75974  0.34562  0.26618  1.0000
  H   H3041     1.0  0.94589  0.46675  0.18104  1.0000
  H   H3042     1.0  0.80380  0.35503  0.05960  1.0000
  Fe  Fe341     1.0  0.99323  0.45520  0.10405  1.0000
  C   C2545     1.0  0.96896  0.49386  0.18937  1.0000
  H   H3043     1.0  0.78175  0.34380  0.23790  1.0000
  H   H3044     1.0  0.97118  0.50002  0.15312  1.0000
  C   C2546     1.0  0.75183  0.48364  0.49260  1.0000
  C   C2547     1.0  0.85527  0.52817  0.99972  1.0000
  H   H3045     1.0  0.99080  0.50232  0.16819  1.0000
  H   H3046     1.0  0.77994  0.35177  0.31236  1.0000
  C   C2548     1.0  0.98844  0.51252  0.19093  1.0000
  S   S678      1.0  0.75376  0.41178  0.21852  1.0000
  H   H3047     1.0  0.94612  0.56866  0.00385  1.0000
  H   H3048     1.0  0.93863  0.33397  0.06898  1.0000
  H   H3049     1.0  0.81810  0.33853  0.11567  1.0000
  H   H3050     1.0  0.85835  0.48598  0.02445  1.0000
  H   H3051     1.0  0.89151  0.35397  0.08569  1.0000
  H   H3052     1.0  0.80305  0.38592  0.12458  1.0000
  N   N170      1.0  0.91082  0.33343  0.07358  1.0000
  C   C2549     1.0  0.96506  0.50524  0.21628  1.0000
  H   H3053     1.0  0.97154  0.35159  0.01429  1.0000
  H   H3054     1.0  0.79508  0.34687  0.09186  1.0000
  C   C2550     1.0  0.92567  0.33849  0.07779  1.0000
  C   C2551     1.0  0.77952  0.36890  0.12347  1.0000
  H   H3055     1.0  0.99046  0.42033  0.07322  1.0000
  C   C2552     1.0  0.80499  0.36355  0.06765  1.0000
  C   C2553     1.0  0.80425  0.34362  0.12261  1.0000
  H   H3056     1.0  0.77182  0.36276  0.11780  1.0000
  C   C2554     1.0  0.92155  0.33857  0.16554  1.0000
  C   C2555     1.0  0.94879  0.55957  0.99508  1.0000
  H   H3057     1.0  0.89742  0.34175  0.05139  1.0000
  H   H3058     1.0  0.88236  0.33664  0.08352  1.0000
  C   C2556     1.0  0.91331  0.33306  0.14058  1.0000
  H   H3059     1.0  0.99768  0.44465  0.04785  1.0000
  H   H3060     1.0  0.98336  0.52127  0.21545  1.0000
  H   H3061     1.0  0.80380  0.33923  0.13719  1.0000
  H   H3062     1.0  0.98811  0.33407  0.07603  1.0000
  S   S679      1.0  0.99290  0.35784  0.09504  1.0000
  H   H3063     1.0  0.99928  0.39746  0.07122  1.0000
  N   N171      1.0  0.99928  0.33830  0.00883  1.0000
  S   S680      1.0  0.75831  0.33028  0.39981  1.0000
  H   H3064     1.0  0.86697  0.47885  0.99540  1.0000
  C   C2557     1.0  0.81911  0.59041  0.91494  1.0000
  H   H3065     1.0  0.82716  0.60248  0.66220  1.0000
  H   H3066     1.0  0.91563  0.61376  0.95490  1.0000
  Fe  Fe342     1.0  0.98593  0.58494  0.82772  1.0000
  S   S681      1.0  0.98909  0.55550  0.83900  1.0000
  H   H3067     1.0  0.77595  0.56465  0.75620  1.0000
  Fe  Fe343     1.0  0.96216  0.58472  0.80302  1.0000
  S   S682      1.0  0.96395  0.55531  0.81206  1.0000
  S   S683      1.0  0.94577  0.60208  0.78309  1.0000
  Fe  Fe344     1.0  0.95970  0.56063  0.83917  1.0000
  S   S684      1.0  0.93615  0.55253  0.85938  1.0000
  Fe  Fe345     1.0  0.99290  0.55332  0.81062  1.0000
  S   S685      1.0  0.95640  0.59029  0.83029  1.0000
  S   S686      1.0  0.99157  0.58252  0.79923  1.0000
  Fe  Fe346     1.0  0.84820  0.63464  0.75086  1.0000
  S   S687      1.0  0.85136  0.61809  0.77770  1.0000
  C   C2558     1.0  0.92985  0.64009  0.97342  1.0000
  Fe  Fe347     1.0  0.82828  0.60954  0.74455  1.0000
  S   S688      1.0  0.83046  0.59073  0.77100  1.0000
  S   S689      1.0  0.81456  0.60767  0.72344  1.0000
  Fe  Fe348     1.0  0.82319  0.61577  0.78157  1.0000
  S   S690      1.0  0.80610  0.61677  0.80887  1.0000
  Fe  Fe349     1.0  0.85866  0.59468  0.76507  1.0000
  S   S691      1.0  0.88134  0.57370  0.77499  1.0000
  S   S692      1.0  0.81903  0.63452  0.75574  1.0000
  S   S693      1.0  0.85745  0.61119  0.73755  1.0000
  H   H3068     1.0  0.75487  0.63741  0.56664  1.0000
  C   C2559     1.0  0.97775  0.53490  0.76983  1.0000
  S   S694      1.0  0.94222  0.56752  0.93082  1.0000
  H   H3069     1.0  0.75840  0.62237  0.63736  1.0000
  S   S695      1.0  0.75215  0.56700  0.73357  1.0000
  Fe  Fe350     1.0  0.77201  0.65214  0.60962  1.0000
  S   S696      1.0  0.79271  0.62705  0.61550  1.0000
  H   H3070     1.0  0.96158  0.62620  0.79930  1.0000
  H   H3071     1.0  0.96124  0.63491  0.77063  1.0000
  H   H3072     1.0  0.75536  0.55667  0.59543  1.0000
  C   C2560     1.0  0.76896  0.57894  0.73109  1.0000
  S   S697      1.0  0.89252  0.59100  0.94169  1.0000
  H   H3073     1.0  0.99196  0.56421  0.95643  1.0000
  C   C2561     1.0  0.76160  0.64799  0.92789  1.0000
  H   H3074     1.0  0.88694  0.65204  0.90860  1.0000
  Fe  Fe351     1.0  0.91568  0.56982  0.94928  1.0000
  C   C2562     1.0  0.78276  0.60842  0.62309  1.0000
  C   C2563     1.0  0.79237  0.59175  0.61956  1.0000
  C   C2564     1.0  0.78481  0.57659  0.62688  1.0000
  H   H3075     1.0  0.80573  0.59052  0.61140  1.0000
  H   H3076     1.0  0.79244  0.56363  0.62462  1.0000
  C   C2565     1.0  0.81978  0.60819  0.91314  1.0000
  H   H3077     1.0  0.86302  0.59607  0.81077  1.0000
  C   C2566     1.0  0.83341  0.61220  0.91852  1.0000
  H   H3078     1.0  0.85616  0.60126  0.93103  1.0000
  H   H3079     1.0  0.83388  0.62597  0.91722  1.0000
  C   C2567     1.0  0.79644  0.59706  0.72742  1.0000
  C   C2568     1.0  0.78627  0.60141  0.71432  1.0000
  C   C2569     1.0  0.77268  0.59238  0.71609  1.0000
  C   C2570     1.0  0.96165  0.58788  0.95221  1.0000
  H   H3080     1.0  0.89018  0.50827  0.93793  1.0000
  C   C2571     1.0  0.79249  0.58392  0.74266  1.0000
  H   H3081     1.0  0.78887  0.61193  0.70280  1.0000
  C   C2572     1.0  0.96354  0.64834  0.76595  1.0000
  H   H3082     1.0  0.80019  0.58045  0.75287  1.0000
  H   H3083     1.0  0.98990  0.62037  0.77826  1.0000
  H   H3084     1.0  0.85022  0.52503  0.95170  1.0000
  C   C2573     1.0  0.84595  0.59825  0.92636  1.0000
  C   C2574     1.0  0.80726  0.63569  0.81553  1.0000
  C   C2575     1.0  0.80348  0.63596  0.83367  1.0000
  C   C2576     1.0  0.86348  0.66162  0.78983  1.0000
  H   H3085     1.0  0.90180  0.63996  0.83011  1.0000
  C   C2577     1.0  0.75484  0.64095  0.72360  1.0000
  H   H3086     1.0  0.79959  0.62462  0.84356  1.0000
  Fe  Fe352     1.0  0.89467  0.55338  0.98478  1.0000
  C   C2578     1.0  0.92793  0.59407  0.78076  1.0000
  C   C2579     1.0  0.92524  0.57696  0.78958  1.0000
  C   C2580     1.0  0.91093  0.57089  0.78773  1.0000
  C   C2581     1.0  0.89884  0.58203  0.77742  1.0000
  C   C2582     1.0  0.90122  0.59932  0.76889  1.0000
  C   C2583     1.0  0.91585  0.60523  0.77038  1.0000
  H   H3087     1.0  0.93422  0.56825  0.79771  1.0000
  H   H3088     1.0  0.90933  0.55743  0.79415  1.0000
  H   H3089     1.0  0.89204  0.60802  0.76079  1.0000
  H   H3090     1.0  0.91767  0.61856  0.76359  1.0000
  C   C2584     1.0  0.93771  0.55559  0.87975  1.0000
  C   C2585     1.0  0.92237  0.55866  0.89302  1.0000
  C   C2586     1.0  0.92370  0.56206  0.90895  1.0000
  C   C2587     1.0  0.94039  0.56215  0.91161  1.0000
  C   C2588     1.0  0.95569  0.55869  0.89849  1.0000
  C   C2589     1.0  0.95433  0.55557  0.88251  1.0000
  H   H3091     1.0  0.90949  0.55867  0.89091  1.0000
  H   H3092     1.0  0.91181  0.56469  0.91907  1.0000
  H   H3093     1.0  0.96860  0.55828  0.90071  1.0000
  H   H3094     1.0  0.96623  0.55281  0.87250  1.0000
  H   H3095     1.0  0.83954  0.55896  0.82735  1.0000
  H   H3096     1.0  0.81831  0.59380  0.83896  1.0000
  H   H3097     1.0  0.91280  0.48396  0.97739  1.0000
  H   H3098     1.0  0.88746  0.64353  0.94171  1.0000
  C   C2590     1.0  0.96136  0.59206  0.98096  1.0000
  H   H3099     1.0  0.82383  0.61596  0.96498  1.0000
  H   H3100     1.0  0.84039  0.60766  0.81625  1.0000
  H   H3101     1.0  0.95496  0.64032  0.89564  1.0000
  H   H3102     1.0  0.96951  0.55096  0.95382  1.0000
  H   H3103     1.0  0.75474  0.42645  0.49811  1.0000
  H   H3104     1.0  0.80725  0.59972  0.95481  1.0000
  N   N172      1.0  0.76057  0.64924  0.94641  1.0000
  H   H3105     1.0  0.93985  0.65368  0.88224  1.0000
  C   C2591     1.0  0.96637  0.63590  0.80368  1.0000
  Fe  Fe353     1.0  0.80513  0.65334  0.89618  1.0000
  C   C2592     1.0  0.95380  0.53476  0.97417  1.0000
  C   C2593     1.0  0.93038  0.62902  0.96216  1.0000
  H   H3106     1.0  0.77291  0.65348  0.91861  1.0000
  C   C2594     1.0  0.91397  0.64514  0.98539  1.0000
  H   H3107     1.0  0.94866  0.65362  0.74542  1.0000
  H   H3108     1.0  0.90628  0.66072  0.94701  1.0000
  N   N173      1.0  0.96698  0.57874  0.96943  1.0000
  H   H3109     1.0  0.83511  0.58154  0.67592  1.0000
  H   H3110     1.0  0.85786  0.50756  0.93954  1.0000
  Fe  Fe354     1.0  0.88674  0.59345  0.97010  1.0000
  H   H3111     1.0  0.81079  0.57093  0.64744  1.0000
  H   H3112     1.0  0.75286  0.60866  0.76157  1.0000
  C   C2595     1.0  0.94410  0.61038  0.90400  1.0000
  Fe  Fe355     1.0  0.97258  0.64502  0.95071  1.0000
  H   H3113     1.0  0.83050  0.58031  0.81466  1.0000
  C   C2596     1.0  0.76770  0.57815  0.63780  1.0000
  H   H3114     1.0  0.85513  0.60516  0.83055  1.0000
  H   H3115     1.0  0.94250  0.62544  0.95264  1.0000
  S   S698      1.0  0.90132  0.54745  0.95756  1.0000
  H   H3116     1.0  0.97108  0.62856  0.81616  1.0000
  H   H3117     1.0  0.91188  0.62206  0.84593  1.0000
  C   C2597     1.0  0.85459  0.51026  0.95318  1.0000
  H   H3118     1.0  0.98735  0.57827  0.86666  1.0000
  S   S699      1.0  0.80274  0.62473  0.90486  1.0000
  C   C2598     1.0  0.89284  0.61768  0.89278  1.0000
  C   C2599     1.0  0.92101  0.62771  0.88659  1.0000
  C   C2600     1.0  0.78777  0.64934  0.95764  1.0000
  N   N174      1.0  0.93930  0.62544  0.88924  1.0000
  H   H3119     1.0  0.98341  0.35923  0.99239  1.0000
  S   S700      1.0  0.86929  0.57329  0.98055  1.0000
  C   C2601     1.0  0.86121  0.56993  0.84086  1.0000
  C   C2602     1.0  0.87778  0.56336  0.83006  1.0000
  C   C2603     1.0  0.86019  0.56586  0.85958  1.0000
  C   C2604     1.0  0.89236  0.55329  0.83751  1.0000
  C   C2605     1.0  0.87492  0.55589  0.86687  1.0000
  C   C2606     1.0  0.89097  0.54964  0.85586  1.0000
  H   H3120     1.0  0.87961  0.56615  0.81571  1.0000
  H   H3121     1.0  0.84823  0.57038  0.86888  1.0000
  H   H3122     1.0  0.90493  0.54846  0.82899  1.0000
  H   H3123     1.0  0.87394  0.55304  0.88117  1.0000
  H   H3124     1.0  0.90241  0.54201  0.86155  1.0000
  H   H3125     1.0  0.92237  0.62541  0.82264  1.0000
  N   N175      1.0  0.89920  0.61379  0.82972  1.0000
  C   C2607     1.0  0.89674  0.61908  0.81102  1.0000
  C   C2608     1.0  0.90925  0.62582  0.83224  1.0000
  C   C2609     1.0  0.91032  0.59538  0.83193  1.0000
  C   C2610     1.0  0.88179  0.61522  0.84256  1.0000
  C   C2611     1.0  0.86776  0.63037  0.83979  1.0000
  C   C2612     1.0  0.87851  0.60221  0.85858  1.0000
  C   C2613     1.0  0.85102  0.63159  0.85131  1.0000
  C   C2614     1.0  0.86185  0.60389  0.87039  1.0000
  C   C2615     1.0  0.84804  0.61838  0.86658  1.0000
  H   H3126     1.0  0.93446  0.61158  0.91685  1.0000
  H   H3127     1.0  0.90976  0.61818  0.80136  1.0000
  H   H3128     1.0  0.88914  0.61053  0.80836  1.0000
  H   H3129     1.0  0.98159  0.57795  0.75352  1.0000
  C   C2616     1.0  0.80164  0.61352  0.95586  1.0000
  H   H3130     1.0  0.96628  0.60066  0.94654  1.0000
  H   H3131     1.0  0.90280  0.58557  0.83165  1.0000
  H   H3132     1.0  0.92240  0.59416  0.82098  1.0000
  H   H3133     1.0  0.91536  0.59115  0.84451  1.0000
  H   H3134     1.0  0.86949  0.64149  0.82871  1.0000
  H   H3135     1.0  0.88865  0.59067  0.86230  1.0000
  H   H3136     1.0  0.99242  0.64487  0.81099  1.0000
  H   H3137     1.0  0.85960  0.59390  0.88261  1.0000
  H   H3138     1.0  0.83507  0.61955  0.87559  1.0000
  N   N176      1.0  0.81027  0.58338  0.66868  1.0000
  C   C2617     1.0  0.82281  0.59153  0.67324  1.0000
  C   C2618     1.0  0.81961  0.57636  0.65237  1.0000
  C   C2619     1.0  0.79477  0.59779  0.66458  1.0000
  C   C2620     1.0  0.80395  0.56884  0.68304  1.0000
  C   C2621     1.0  0.80944  0.56323  0.69962  1.0000
  C   C2622     1.0  0.79169  0.55994  0.68071  1.0000
  C   C2623     1.0  0.80271  0.54983  0.71305  1.0000
  C   C2624     1.0  0.78499  0.54666  0.69426  1.0000
  C   C2625     1.0  0.79039  0.54169  0.71045  1.0000
  C   C2626     1.0  0.80463  0.65096  0.83906  1.0000
  H   H3139     1.0  0.99137  0.56609  0.97858  1.0000
  H   H3140     1.0  0.81653  0.59752  0.68517  1.0000
  H   H3141     1.0  0.94721  0.53454  0.76573  1.0000
  H   H3142     1.0  0.82440  0.58700  0.64118  1.0000
  H   H3143     1.0  0.95545  0.52530  0.96595  1.0000
  H   H3144     1.0  0.79892  0.60907  0.65384  1.0000
  H   H3145     1.0  0.78529  0.59305  0.65987  1.0000
  H   H3146     1.0  0.78713  0.60315  0.67656  1.0000
  H   H3147     1.0  0.81841  0.56937  0.70287  1.0000
  H   H3148     1.0  0.78685  0.56341  0.66851  1.0000
  H   H3149     1.0  0.80649  0.54626  0.72586  1.0000
  S   S701      1.0  0.99682  0.62295  0.95232  1.0000
  H   H3150     1.0  0.78463  0.53188  0.72118  1.0000
  N   N177      1.0  0.97628  0.55183  0.75618  1.0000
  C   C2627     1.0  0.98671  0.57322  0.96605  1.0000
  H   H3151     1.0  0.95468  0.64656  0.80739  1.0000
  C   C2628     1.0  0.91378  0.64269  0.87428  1.0000
  C   C2629     1.0  0.95871  0.55793  0.75097  1.0000
  C   C2630     1.0  0.94540  0.54748  0.75690  1.0000
  C   C2631     1.0  0.95456  0.57478  0.73942  1.0000
  C   C2632     1.0  0.92894  0.55377  0.75177  1.0000
  C   C2633     1.0  0.93800  0.58097  0.73452  1.0000
  C   C2634     1.0  0.92522  0.57048  0.74069  1.0000
  C   C2635     1.0  0.90822  0.48746  0.99031  1.0000
  H   H3152     1.0  0.88997  0.63317  0.80723  1.0000
  H   H3153     1.0  0.86396  0.65256  0.94563  1.0000
  H   H3154     1.0  0.97881  0.64578  0.85756  1.0000
  C   C2636     1.0  0.81105  0.62268  0.96149  1.0000
  H   H3155     1.0  0.94655  0.59656  0.98413  1.0000
  H   H3156     1.0  0.76858  0.63309  0.74538  1.0000
  H   H3157     1.0  0.83130  0.56539  0.65491  1.0000
  H   H3158     1.0  0.94690  0.59070  0.95377  1.0000
  C   C2637     1.0  0.99201  0.58704  0.88815  1.0000
  H   H3159     1.0  0.77883  0.61459  0.94626  1.0000
  H   H3160     1.0  0.91868  0.54592  0.75685  1.0000
  H   H3161     1.0  0.93490  0.59411  0.72613  1.0000
  H   H3162     1.0  0.91218  0.57550  0.73729  1.0000
  C   C2638     1.0  0.87612  0.48368  0.96168  1.0000
  C   C2639     1.0  0.99791  0.59980  0.89303  1.0000
  H   H3163     1.0  0.84294  0.50434  0.96106  1.0000
  H   H3164     1.0  0.96400  0.58344  0.73426  1.0000
  H   H3165     1.0  0.84589  0.65415  0.77815  1.0000
  H   H3166     1.0  0.89619  0.50816  0.95813  1.0000
  H   H3167     1.0  0.86522  0.47629  0.96835  1.0000
  Fe  Fe356     1.0  0.87743  0.56899  0.95253  1.0000
  H   H3168     1.0  0.75935  0.62989  0.68401  1.0000
  H   H3169     1.0  0.91475  0.60289  0.90455  1.0000
  S   S702      1.0  0.91134  0.57412  0.97680  1.0000
  S   S703      1.0  0.87986  0.62031  0.97689  1.0000
  C   C2640     1.0  0.77879  0.57492  0.74447  1.0000
  C   C2641     1.0  0.96170  0.54960  0.96730  1.0000
  H   H3170     1.0  0.88074  0.52665  0.94842  1.0000
  H   H3171     1.0  0.95759  0.60959  0.90623  1.0000
  C   C2642     1.0  0.91518  0.62248  0.96343  1.0000
  C   C2643     1.0  0.91014  0.61503  0.89549  1.0000
  C   C2644     1.0  0.84498  0.58043  0.92837  1.0000
  C   C2645     1.0  0.99494  0.62885  0.78404  1.0000
  S   S704      1.0  0.85978  0.56246  0.93850  1.0000
  C   C2646     1.0  0.83175  0.57659  0.92236  1.0000
  C   C2647     1.0  0.89930  0.62757  0.97552  1.0000
  C   C2648     1.0  0.84233  0.57234  0.82034  1.0000
  C   C2649     1.0  0.77791  0.64041  0.95163  1.0000
  C   C2650     1.0  0.85150  0.59825  0.82208  1.0000
  C   C2651     1.0  0.78535  0.62220  0.95097  1.0000
  S   S705      1.0  0.86114  0.65858  0.74078  1.0000
  H   H3172     1.0  0.88067  0.48134  0.94786  1.0000
  C   C2652     1.0  0.95231  0.62201  0.87271  1.0000
  H   H3173     1.0  0.86330  0.66015  0.91564  1.0000
  H   H3174     1.0  0.95012  0.63301  0.86105  1.0000
  C   C2653     1.0  0.97395  0.65910  0.86007  1.0000
  H   H3175     1.0  0.80860  0.58729  0.91077  1.0000
  C   C2654     1.0  0.81226  0.65040  0.80282  1.0000
  H   H3176     1.0  0.87252  0.63488  0.87907  1.0000
  H   H3177     1.0  0.80177  0.65100  0.85306  1.0000
  H   H3178     1.0  0.96767  0.57990  0.94174  1.0000
  H   H3179     1.0  0.81511  0.65028  0.78879  1.0000
  H   H3180     1.0  0.83079  0.59428  0.85418  1.0000
  H   H3181     1.0  0.96619  0.62061  0.87405  1.0000
  C   C2655     1.0  0.94138  0.64185  0.89332  1.0000
  C   C2656     1.0  0.80412  0.64053  0.96241  1.0000
  S   S706      1.0  0.97084  0.64365  0.92365  1.0000
  H   H3182     1.0  0.82495  0.57365  0.85423  1.0000
  C   C2657     1.0  0.76552  0.60991  0.63365  1.0000
  H   H3183     1.0  0.76370  0.63403  0.92639  1.0000
  C   C2658     1.0  0.82944  0.58587  0.84567  1.0000
  H   H3184     1.0  0.95160  0.60949  0.86942  1.0000
  H   H3185     1.0  0.96812  0.56956  0.77432  1.0000
  H   H3186     1.0  0.94485  0.59730  0.90099  1.0000
  H   H3187     1.0  0.81155  0.64763  0.96673  1.0000
  C   C2659     1.0  0.75787  0.59492  0.64062  1.0000
  N   N178      1.0  0.84628  0.58133  0.83254  1.0000
  H   H3188     1.0  0.85340  0.57060  0.80856  1.0000
  N   N179      1.0  0.87005  0.50301  0.96195  1.0000
  H   H3189     1.0  0.83097  0.56287  0.92386  1.0000
  H   H3190     1.0  0.99106  0.56139  0.72983  1.0000
  C   C2660     1.0  0.88597  0.63282  0.88105  1.0000
  H   H3191     1.0  0.76103  0.61206  0.55164  1.0000
  C   C2661     1.0  0.88490  0.51188  0.95121  1.0000
  C   C2662     1.0  0.85778  0.65927  0.77563  1.0000
  H   H3192     1.0  0.88761  0.47743  0.96842  1.0000
  H   H3193     1.0  0.96679  0.60431  0.97438  1.0000
  C   C2663     1.0  0.98825  0.65339  0.79857  1.0000
  H   H3194     1.0  0.99316  0.58490  0.96010  1.0000
  C   C2664     1.0  0.89646  0.64525  0.87173  1.0000
  H   H3195     1.0  0.84033  0.64298  0.84838  1.0000
  H   H3196     1.0  0.76498  0.59594  0.70595  1.0000
  C   C2665     1.0  0.86016  0.52443  0.98268  1.0000
  H   H3197     1.0  0.77524  0.54045  0.69232  1.0000
  C   C2666     1.0  0.86474  0.50662  0.98017  1.0000
  S   S707      1.0  0.94871  0.64774  0.97320  1.0000
  H   H3198     1.0  0.88474  0.60788  0.89985  1.0000
  H   H3199     1.0  0.86057  0.53564  0.97148  1.0000
  H   H3200     1.0  0.93152  0.64514  0.90546  1.0000
  H   H3201     1.0  0.96729  0.53618  0.78217  1.0000
  N   N180      1.0  0.98060  0.64363  0.78990  1.0000
  H   H3202     1.0  0.90962  0.51505  0.98000  1.0000
  H   H3203     1.0  0.98842  0.53883  0.73411  1.0000
  H   H3204     1.0  0.76224  0.65857  0.68768  1.0000
  C   C2667     1.0  0.97960  0.56559  0.76363  1.0000
  C   C2668     1.0  0.99217  0.58808  0.87020  1.0000
  C   C2669     1.0  0.95910  0.56272  0.97736  1.0000
  C   C2670     1.0  0.89867  0.63915  0.98623  1.0000
  C   C2671     1.0  0.94342  0.53230  0.99138  1.0000
  C   C2672     1.0  0.95640  0.65890  0.75136  1.0000
  C   C2673     1.0  0.99055  0.54894  0.74026  1.0000
  H   H3205     1.0  0.89118  0.65692  0.86240  1.0000
  H   H3206     1.0  0.97679  0.52352  0.76474  1.0000
  C   C2674     1.0  0.90632  0.50510  0.99175  1.0000
  H   H3207     1.0  0.85602  0.65792  0.80327  1.0000
  S   S708      1.0  0.75930  0.55914  0.64976  1.0000
  H   H3208     1.0  0.91348  0.65376  0.99406  1.0000
  S   S709      1.0  0.99732  0.59807  0.91571  1.0000
  H   H3209     1.0  0.92157  0.65249  0.86637  1.0000
  H   H3210     1.0  0.99179  0.56074  0.76940  1.0000
  H   H3211     1.0  0.98889  0.65420  0.88049  1.0000
  C   C2675     1.0  0.99874  0.60170  0.85693  1.0000
  H   H3212     1.0  0.99087  0.53097  0.77393  1.0000
  C   C2676     1.0  0.75844  0.63071  0.73999  1.0000
  H   H3213     1.0  0.87752  0.66038  0.95493  1.0000
  C   C2677     1.0  0.87724  0.65607  0.94283  1.0000
  Fe  Fe357     1.0  0.99646  0.62335  0.92403  1.0000
  H   H3214     1.0  0.98722  0.57638  0.89839  1.0000
  C   C2678     1.0  0.74960  0.61693  0.74917  1.0000
  H   H3215     1.0  0.76246  0.65116  0.71711  1.0000
  C   C2679     1.0  0.97335  0.65501  0.77431  1.0000
  H   H3216     1.0  0.96621  0.58669  0.99361  1.0000
  S   S710      1.0  0.99938  0.60332  0.83425  1.0000
  H   H3217     1.0  0.78332  0.66320  0.95852  1.0000
  Fe  Fe358     1.0  0.98840  0.66355  0.91369  1.0000
  H   H3218     1.0  0.88109  0.97136  0.48403  1.0000
  H   H3219     1.0  0.90287  0.96884  0.48831  1.0000
  C   C2680     1.0  0.88899  0.97696  0.48999  1.0000
  H   H3220     1.0  0.88999  0.99051  0.48177  1.0000
  Fe  Fe359     1.0  0.90490  0.71766  0.81907  1.0000
  S   S711      1.0  0.90607  0.68856  0.83023  1.0000
  S   S712      1.0  0.88835  0.73811  0.83466  1.0000
  Fe  Fe360     1.0  0.93090  0.71160  0.78508  1.0000
  S   S713      1.0  0.93424  0.68176  0.79302  1.0000
  S   S714      1.0  0.94727  0.72760  0.76202  1.0000
  Fe  Fe361     1.0  0.90457  0.68758  0.80285  1.0000
  Fe  Fe362     1.0  0.93540  0.68511  0.81974  1.0000
  H   H3221     1.0  0.90511  0.97825  0.51523  1.0000
  S   S715      1.0  0.90089  0.71725  0.79247  1.0000
  S   S716      1.0  0.93455  0.71439  0.81110  1.0000
  H   H3222     1.0  0.75287  0.67049  0.96095  1.0000
  C   C2681     1.0  0.89287  0.80929  0.68502  1.0000
  C   C2682     1.0  0.79406  0.84907  0.65919  1.0000
  Fe  Fe363     1.0  0.78128  0.69014  0.89640  1.0000
  S   S717      1.0  0.98087  0.68729  0.89224  1.0000
  C   C2683     1.0  0.95707  0.84294  0.59384  1.0000
  H   H3223     1.0  0.87510  0.75335  0.69066  1.0000
  C   C2684     1.0  0.92973  0.84615  0.55682  1.0000
  C   C2685     1.0  0.81306  0.66555  0.80819  1.0000
  H   H3224     1.0  0.83756  0.72076  0.63194  1.0000
  C   C2686     1.0  0.95913  0.86016  0.58511  1.0000
  C   C2687     1.0  0.80118  0.90822  0.67689  1.0000
  H   H3225     1.0  0.86646  0.80273  0.74198  1.0000
  H   H3226     1.0  0.75615  0.79278  0.82487  1.0000
  C   C2688     1.0  0.82743  0.67656  0.62386  1.0000
  H   H3227     1.0  0.83737  0.91038  0.66522  1.0000
  C   C2689     1.0  0.95665  0.92063  0.56165  1.0000
  H   H3228     1.0  0.86745  0.71025  0.78292  1.0000
  Fe  Fe364     1.0  0.82079  0.68529  0.89179  1.0000
  H   H3229     1.0  0.81061  0.90685  0.68498  1.0000
  C   C2690     1.0  0.83825  0.89736  0.66203  1.0000
  H   H3230     1.0  0.84439  0.90777  0.62741  1.0000
  Fe  Fe365     1.0  0.82215  0.78998  0.65150  1.0000
  S   S718      1.0  0.84443  0.79785  0.62937  1.0000
  S   S719      1.0  0.82216  0.79279  0.67906  1.0000
  Fe  Fe366     1.0  0.80538  0.77933  0.62652  1.0000
  S   S720      1.0  0.82596  0.78746  0.60215  1.0000
  S   S721      1.0  0.78319  0.76564  0.62795  1.0000
  Fe  Fe367     1.0  0.84523  0.77362  0.62005  1.0000
  S   S722      1.0  0.87179  0.75601  0.61189  1.0000
  Fe  Fe368     1.0  0.82345  0.81144  0.61350  1.0000
  S   S723      1.0  0.82303  0.83998  0.59777  1.0000
  S   S724      1.0  0.82500  0.76404  0.64383  1.0000
  S   S725      1.0  0.80074  0.80475  0.63627  1.0000
  Fe  Fe369     1.0  0.86326  0.94665  0.57799  1.0000
  S   S726      1.0  0.86676  0.93452  0.60597  1.0000
  S   S727      1.0  0.83668  0.96400  0.57433  1.0000
  Fe  Fe370     1.0  0.89909  0.92663  0.56204  1.0000
  S   S728      1.0  0.90575  0.91293  0.58869  1.0000
  S   S729      1.0  0.91864  0.91953  0.53771  1.0000
  Fe  Fe371     1.0  0.87763  0.90896  0.59630  1.0000
  S   S730      1.0  0.87362  0.88187  0.61234  1.0000
  Fe  Fe372     1.0  0.89445  0.93983  0.59558  1.0000
  S   S731      1.0  0.90467  0.95137  0.61297  1.0000
  S   S732      1.0  0.87188  0.92054  0.56913  1.0000
  S   S733      1.0  0.89013  0.95401  0.56819  1.0000
  Fe  Fe373     1.0  0.95172  0.75935  0.66263  1.0000
  S   S734      1.0  0.97791  0.76580  0.66166  1.0000
  S   S735      1.0  0.93789  0.73900  0.68322  1.0000
  Fe  Fe374     1.0  0.94525  0.78656  0.62903  1.0000
  S   S736      1.0  0.97052  0.79566  0.62525  1.0000
  S   S737      1.0  0.92647  0.80110  0.61051  1.0000
  H   H3231     1.0  0.86769  0.69749  0.91724  1.0000
  Fe  Fe375     1.0  0.96362  0.79420  0.65445  1.0000
  S   S738      1.0  0.96848  0.81710  0.66251  1.0000
  S   S739      1.0  0.95825  0.75749  0.63378  1.0000
  S   S740      1.0  0.93689  0.78792  0.65790  1.0000
  Fe  Fe376     1.0  0.89566  0.84959  0.71893  1.0000
  S   S741      1.0  0.90357  0.85354  0.68923  1.0000
  S   S742      1.0  0.91264  0.82544  0.73295  1.0000
  Fe  Fe377     1.0  0.86509  0.88123  0.71740  1.0000
  S   S743      1.0  0.87115  0.88795  0.68769  1.0000
  S   S744      1.0  0.84022  0.89863  0.73001  1.0000
  Fe  Fe378     1.0  0.87446  0.85876  0.68991  1.0000
  S   S745      1.0  0.86429  0.85306  0.66875  1.0000
  Fe  Fe379     1.0  0.89982  0.88230  0.68942  1.0000
  S   S746      1.0  0.91832  0.89727  0.66730  1.0000
  S   S747      1.0  0.86668  0.85203  0.71966  1.0000
  S   S748      1.0  0.89365  0.87830  0.71926  1.0000
  H   H3232     1.0  0.86968  0.71098  0.83689  1.0000
  H   H3233     1.0  0.82413  0.87105  0.65932  1.0000
  C   C2691     1.0  0.99042  0.88786  0.67630  1.0000
  H   H3234     1.0  0.98558  0.70309  0.95306  1.0000
  C   C2692     1.0  0.92664  0.67272  0.92897  1.0000
  S   S749      1.0  0.97289  0.93657  0.67871  1.0000
  S   S750      1.0  0.98744  0.97465  0.63673  1.0000
  H   H3235     1.0  0.82406  0.71370  0.58135  1.0000
  H   H3236     1.0  0.96621  0.90654  0.62345  1.0000
  C   C2693     1.0  0.81816  0.68884  0.59586  1.0000
  H   H3237     1.0  0.82021  0.70846  0.79817  1.0000
  S   S751      1.0  0.77936  0.71556  0.57982  1.0000
  C   C2694     1.0  0.96036  0.84507  0.53917  1.0000
  C   C2695     1.0  0.93217  0.90923  0.67121  1.0000
  C   C2696     1.0  0.94160  0.91967  0.65654  1.0000
  C   C2697     1.0  0.95392  0.92823  0.65878  1.0000
  C   C2698     1.0  0.95666  0.92675  0.67578  1.0000
  C   C2699     1.0  0.94654  0.91702  0.69060  1.0000
  C   C2700     1.0  0.93436  0.90819  0.68832  1.0000
  H   H3238     1.0  0.93946  0.92111  0.64334  1.0000
  H   H3239     1.0  0.96126  0.93605  0.64735  1.0000
  H   H3240     1.0  0.94847  0.91595  0.70381  1.0000
  H   H3241     1.0  0.92702  0.90029  0.69975  1.0000
  C   C2701     1.0  0.95611  0.81800  0.68411  1.0000
  C   C2702     1.0  0.95186  0.83399  0.68996  1.0000
  C   C2703     1.0  0.93954  0.83578  0.70596  1.0000
  C   C2704     1.0  0.93183  0.82144  0.71632  1.0000
  C   C2705     1.0  0.93735  0.80494  0.71123  1.0000
  C   C2706     1.0  0.94923  0.80332  0.69492  1.0000
  H   H3242     1.0  0.95725  0.84530  0.68167  1.0000
  H   H3243     1.0  0.93527  0.84858  0.70982  1.0000
  H   H3244     1.0  0.93140  0.79381  0.71911  1.0000
  H   H3245     1.0  0.95257  0.79089  0.69046  1.0000
  C   C2707     1.0  0.92682  0.95430  0.60700  1.0000
  C   C2708     1.0  0.93698  0.95371  0.58984  1.0000
  C   C2709     1.0  0.95415  0.95749  0.58489  1.0000
  C   C2710     1.0  0.96147  0.96122  0.59733  1.0000
  C   C2711     1.0  0.95146  0.96136  0.61465  1.0000
  C   C2712     1.0  0.93410  0.95814  0.61940  1.0000
  H   H3246     1.0  0.93141  0.95066  0.58034  1.0000
  H   H3247     1.0  0.96183  0.95737  0.57146  1.0000
  H   H3248     1.0  0.95695  0.96436  0.62430  1.0000
  H   H3249     1.0  0.92633  0.95860  0.63274  1.0000
  C   C2713     1.0  0.93941  0.91599  0.54307  1.0000
  C   C2714     1.0  0.95408  0.90367  0.53617  1.0000
  C   C2715     1.0  0.94081  0.92462  0.55560  1.0000
  H   H3250     1.0  0.85002  0.70085  0.78148  1.0000
  H   H3251     1.0  0.92955  0.93424  0.56080  1.0000
  C   C2716     1.0  0.78584  0.75056  0.61423  1.0000
  C   C2717     1.0  0.78904  0.75603  0.59565  1.0000
  C   C2718     1.0  0.78778  0.74486  0.58516  1.0000
  C   C2719     1.0  0.78338  0.72814  0.59314  1.0000
  C   C2720     1.0  0.78136  0.72226  0.61162  1.0000
  C   C2721     1.0  0.78223  0.73354  0.62212  1.0000
  H   H3252     1.0  0.79158  0.76924  0.58943  1.0000
  H   H3253     1.0  0.78951  0.74950  0.57086  1.0000
  H   H3254     1.0  0.77849  0.70925  0.61793  1.0000
  H   H3255     1.0  0.77971  0.72921  0.63648  1.0000
  C   C2722     1.0  0.88827  0.76814  0.60873  1.0000
  C   C2723     1.0  0.88466  0.78669  0.60265  1.0000
  C   C2724     1.0  0.89679  0.79669  0.60258  1.0000
  C   C2725     1.0  0.91254  0.78816  0.60867  1.0000
  C   C2726     1.0  0.91649  0.76956  0.61404  1.0000
  C   C2727     1.0  0.90444  0.75953  0.61392  1.0000
  H   H3256     1.0  0.87239  0.79337  0.59818  1.0000
  H   H3257     1.0  0.89363  0.81106  0.59839  1.0000
  H   H3258     1.0  0.92873  0.76284  0.61843  1.0000
  H   H3259     1.0  0.90736  0.74518  0.61850  1.0000
  C   C2728     1.0  0.83795  0.85163  0.60042  1.0000
  C   C2729     1.0  0.85234  0.84259  0.60851  1.0000
  C   C2730     1.0  0.86328  0.85203  0.61175  1.0000
  C   C2731     1.0  0.86030  0.87065  0.60655  1.0000
  C   C2732     1.0  0.84641  0.87981  0.59771  1.0000
  C   C2733     1.0  0.83519  0.87030  0.59475  1.0000
  H   H3260     1.0  0.85513  0.82830  0.61231  1.0000
  H   H3261     1.0  0.87390  0.84476  0.61865  1.0000
  H   H3262     1.0  0.84399  0.89420  0.59358  1.0000
  H   H3263     1.0  0.82420  0.87742  0.58828  1.0000
  C   C2734     1.0  0.83273  0.81014  0.67733  1.0000
  C   C2735     1.0  0.83885  0.81171  0.69173  1.0000
  C   C2736     1.0  0.84812  0.82525  0.68966  1.0000
  C   C2737     1.0  0.85149  0.83689  0.67309  1.0000
  C   C2738     1.0  0.84500  0.83541  0.65902  1.0000
  C   C2739     1.0  0.83538  0.82240  0.66123  1.0000
  H   H3264     1.0  0.83666  0.80236  0.70434  1.0000
  H   H3265     1.0  0.85304  0.82634  0.70065  1.0000
  H   H3266     1.0  0.84741  0.84437  0.64628  1.0000
  H   H3267     1.0  0.82979  0.82206  0.65043  1.0000
  H   H3268     1.0  0.96122  0.89239  0.61214  1.0000
  H   H3269     1.0  0.88612  0.80526  0.75926  1.0000
  H   H3270     1.0  0.85294  0.68453  0.93306  1.0000
  H   H3271     1.0  0.75107  0.84591  0.95283  1.0000
  H   H3272     1.0  0.96508  0.83164  0.58804  1.0000
  C   C2740     1.0  0.79163  0.88300  0.72288  1.0000
  C   C2741     1.0  0.80887  0.87594  0.71425  1.0000
  C   C2742     1.0  0.82362  0.88115  0.71610  1.0000
  C   C2743     1.0  0.82137  0.89311  0.72696  1.0000
  C   C2744     1.0  0.80408  0.90053  0.73534  1.0000
  C   C2745     1.0  0.78917  0.89552  0.73325  1.0000
  H   H3273     1.0  0.81088  0.86640  0.70607  1.0000
  H   H3274     1.0  0.83675  0.87579  0.70913  1.0000
  H   H3275     1.0  0.80225  0.90990  0.74366  1.0000
  H   H3276     1.0  0.82762  0.92529  0.63618  1.0000
  C   C2746     1.0  0.77745  0.84542  0.66986  1.0000
  H   H3277     1.0  0.86858  0.77407  0.73409  1.0000
  H   H3278     1.0  0.85940  0.77348  0.68410  1.0000
  H   H3279     1.0  0.98348  0.67894  0.77196  1.0000
  H   H3280     1.0  0.91173  0.74942  0.76071  1.0000
  H   H3281     1.0  0.79179  0.85539  0.69273  1.0000
  H   H3282     1.0  0.89572  0.69039  0.89509  1.0000
  H   H3283     1.0  0.81028  0.85445  0.63268  1.0000
  H   H3284     1.0  0.88992  0.79070  0.64254  1.0000
  H   H3285     1.0  0.95757  0.92694  0.57170  1.0000
  C   C2747     1.0  0.86201  0.71420  0.60289  1.0000
  H   H3286     1.0  0.86506  0.70514  0.61548  1.0000
  C   C2748     1.0  0.78410  0.85252  0.63206  1.0000
  H   H3287     1.0  0.78221  0.74999  0.91135  1.0000
  H   H3288     1.0  0.95021  0.88804  0.58545  1.0000
  C   C2749     1.0  0.93972  0.73656  0.70527  1.0000
  C   C2750     1.0  0.93080  0.72481  0.71905  1.0000
  C   C2751     1.0  0.93269  0.72219  0.73666  1.0000
  C   C2752     1.0  0.94365  0.73122  0.74043  1.0000
  C   C2753     1.0  0.95218  0.74328  0.72675  1.0000
  C   C2754     1.0  0.95012  0.74604  0.70921  1.0000
  H   H3289     1.0  0.92270  0.71749  0.71601  1.0000
  H   H3290     1.0  0.92606  0.71289  0.74720  1.0000
  H   H3291     1.0  0.96062  0.75034  0.72963  1.0000
  H   H3292     1.0  0.95690  0.75522  0.69871  1.0000
  H   H3293     1.0  0.78234  0.71949  0.90886  1.0000
  C   C2755     1.0  0.92675  0.98643  0.54707  1.0000
  C   C2756     1.0  0.95598  0.68883  0.85341  1.0000
  C   C2757     1.0  0.96222  0.69380  0.86593  1.0000
  S   S752      1.0  0.88581  0.67006  0.80518  1.0000
  S   S753      1.0  0.99016  0.90271  0.56426  1.0000
  C   C2758     1.0  0.76984  0.72907  0.91086  1.0000
  H   H3294     1.0  0.94663  0.69844  0.84609  1.0000
  H   H3295     1.0  0.95774  0.70729  0.86813  1.0000
  H   H3296     1.0  0.82809  0.66603  0.63570  1.0000
  H   H3297     1.0  0.97089  0.85184  0.53100  1.0000
  C   C2759     1.0  0.87376  0.72739  0.85233  1.0000
  C   C2760     1.0  0.86975  0.73157  0.86911  1.0000
  C   C2761     1.0  0.85925  0.72198  0.88359  1.0000
  H   H3298     1.0  0.97457  0.85831  0.61987  1.0000
  H   H3299     1.0  0.95366  0.80309  0.55776  1.0000
  C   C2762     1.0  0.86673  0.71404  0.84990  1.0000
  H   H3300     1.0  0.87515  0.74189  0.87102  1.0000
  H   H3301     1.0  0.85637  0.72511  0.89660  1.0000
  H   H3302     1.0  0.89155  0.74760  0.74341  1.0000
  C   C2763     1.0  0.83497  0.69128  0.62144  1.0000
  C   C2764     1.0  0.89821  0.67393  0.92153  1.0000
  C   C2765     1.0  0.75770  0.85332  0.69695  1.0000
  H   H3303     1.0  0.89949  0.67949  0.76667  1.0000
  H   H3304     1.0  0.85233  0.89291  0.65512  1.0000
  H   H3305     1.0  0.98747  0.85058  0.63699  1.0000
  H   H3306     1.0  0.89738  0.83576  0.56620  1.0000
  S   S754      1.0  0.98293  0.96604  0.59092  1.0000
  H   H3307     1.0  0.91088  0.87950  0.54308  1.0000
  H   H3308     1.0  0.89967  0.85157  0.54529  1.0000
  H   H3309     1.0  0.75960  0.83046  0.93139  1.0000
  H   H3310     1.0  0.81989  0.73383  0.62090  1.0000
  C   C2766     1.0  0.83465  0.72950  0.61918  1.0000
  S   S755      1.0  0.84017  0.69596  0.89963  1.0000
  H   H3311     1.0  0.81144  0.68793  0.58603  1.0000
  H   H3312     1.0  0.95204  0.89116  0.63550  1.0000
  H   H3313     1.0  0.82572  0.74022  0.58743  1.0000
  C   C2767     1.0  0.77474  0.91176  0.65834  1.0000
  C   C2768     1.0  0.80911  0.66591  0.82632  1.0000
  C   C2769     1.0  0.97640  0.86112  0.63216  1.0000
  C   C2770     1.0  0.87862  0.66871  0.78668  1.0000
  Fe  Fe380     1.0  0.99193  0.94686  0.65364  1.0000
  S   S756      1.0  0.80955  0.68523  0.83279  1.0000
  H   H3314     1.0  0.86885  0.72544  0.60047  1.0000
  C   C2771     1.0  0.87098  0.76335  0.67897  1.0000
  N   N181      1.0  0.87579  0.94109  0.66476  1.0000
  C   C2772     1.0  0.88476  0.93453  0.68014  1.0000
  C   C2773     1.0  0.88436  0.92916  0.65202  1.0000
  C   C2774     1.0  0.87917  0.95923  0.65603  1.0000
  C   C2775     1.0  0.85635  0.94161  0.66976  1.0000
  C   C2776     1.0  0.84757  0.93443  0.68726  1.0000
  C   C2777     1.0  0.84562  0.94916  0.65681  1.0000
  C   C2778     1.0  0.82913  0.93543  0.69155  1.0000
  C   C2779     1.0  0.82717  0.95020  0.66128  1.0000
  C   C2780     1.0  0.81892  0.94348  0.67867  1.0000
  H   H3315     1.0  0.88430  0.92035  0.68648  1.0000
  H   H3316     1.0  0.89922  0.93491  0.67597  1.0000
  H   H3317     1.0  0.87873  0.94279  0.69040  1.0000
  H   H3318     1.0  0.88247  0.91531  0.65797  1.0000
  H   H3319     1.0  0.89902  0.92853  0.64777  1.0000
  H   H3320     1.0  0.87901  0.93373  0.63967  1.0000
  H   H3321     1.0  0.87199  0.96896  0.66469  1.0000
  H   H3322     1.0  0.89368  0.95933  0.65293  1.0000
  H   H3323     1.0  0.87512  0.96433  0.64298  1.0000
  H   H3324     1.0  0.85458  0.92793  0.69796  1.0000
  H   H3325     1.0  0.85144  0.95440  0.64310  1.0000
  H   H3326     1.0  0.82274  0.92998  0.70506  1.0000
  H   H3327     1.0  0.81921  0.95638  0.65123  1.0000
  H   H3328     1.0  0.80460  0.94441  0.68217  1.0000
  N   N182      1.0  0.92026  0.85118  0.63453  1.0000
  C   C2781     1.0  0.90965  0.86770  0.64068  1.0000
  C   C2782     1.0  0.90747  0.84191  0.63207  1.0000
  C   C2783     1.0  0.92924  0.83959  0.64893  1.0000
  C   C2784     1.0  0.93370  0.85456  0.61775  1.0000
  C   C2785     1.0  0.94455  0.84016  0.60987  1.0000
  C   C2786     1.0  0.93624  0.87199  0.60854  1.0000
  C   C2787     1.0  0.94869  0.87464  0.59241  1.0000
  H   H3329     1.0  0.90221  0.87685  0.63059  1.0000
  H   H3330     1.0  0.89929  0.86476  0.65293  1.0000
  H   H3331     1.0  0.91817  0.87494  0.64390  1.0000
  H   H3332     1.0  0.90087  0.84985  0.62100  1.0000
  H   H3333     1.0  0.89666  0.83990  0.64416  1.0000
  H   H3334     1.0  0.91391  0.82845  0.62933  1.0000
  H   H3335     1.0  0.93781  0.84650  0.65252  1.0000
  H   H3336     1.0  0.91949  0.83535  0.66124  1.0000
  H   H3337     1.0  0.93782  0.82706  0.64525  1.0000
  H   H3338     1.0  0.94318  0.82660  0.61592  1.0000
  H   H3339     1.0  0.92863  0.88382  0.61341  1.0000
  C   C2788     1.0  0.85280  0.71303  0.78370  1.0000
  H   H3340     1.0  0.89620  0.85942  0.59013  1.0000
  C   C2789     1.0  0.89943  0.77212  0.69256  1.0000
  H   H3341     1.0  0.82935  0.73012  0.83193  1.0000
  H   H3342     1.0  0.91040  0.83785  0.59013  1.0000
  H   H3343     1.0  0.76442  0.91310  0.65123  1.0000
  C   C2790     1.0  0.93324  0.97927  0.53174  1.0000
  C   C2791     1.0  0.83424  0.70534  0.60611  1.0000
  S   S757      1.0  0.80135  0.70402  0.87590  1.0000
  H   H3344     1.0  0.83875  0.70205  0.82851  1.0000
  C   C2792     1.0  0.90084  0.79960  0.69921  1.0000
  H   H3345     1.0  0.92443  0.81958  0.56997  1.0000
  H   H3346     1.0  0.99163  0.87853  0.60125  1.0000
  H   H3347     1.0  0.97827  0.66521  0.80255  1.0000
  C   C2793     1.0  0.87658  0.66387  0.91190  1.0000
  C   C2794     1.0  0.90096  0.75779  0.66135  1.0000
  C   C2795     1.0  0.76873  0.77913  0.84689  1.0000
  H   H3348     1.0  0.98111  0.88969  0.53743  1.0000
  H   H3349     1.0  0.80109  0.83185  0.69314  1.0000
  H   H3350     1.0  0.79576  0.90363  0.63730  1.0000
  H   H3351     1.0  0.90211  0.75772  0.69613  1.0000
  H   H3352     1.0  0.82074  0.88096  0.63698  1.0000
  C   C2796     1.0  0.99487  0.88100  0.61304  1.0000
  H   H3353     1.0  0.75644  0.71657  0.86919  1.0000
  N   N183      1.0  0.91283  0.77805  0.77333  1.0000
  C   C2797     1.0  0.91367  0.76256  0.78869  1.0000
  C   C2798     1.0  0.93090  0.77759  0.76180  1.0000
  C   C2799     1.0  0.90759  0.79449  0.78066  1.0000
  C   C2800     1.0  0.90046  0.77720  0.76272  1.0000
  C   C2801     1.0  0.90164  0.76115  0.75743  1.0000
  C   C2802     1.0  0.88748  0.79224  0.75670  1.0000
  C   C2803     1.0  0.89012  0.75999  0.74744  1.0000
  C   C2804     1.0  0.87606  0.79099  0.74663  1.0000
  C   C2805     1.0  0.87726  0.77486  0.74215  1.0000
  H   H3354     1.0  0.92042  0.74975  0.78451  1.0000
  H   H3355     1.0  0.92156  0.76368  0.79784  1.0000
  H   H3356     1.0  0.90011  0.76124  0.79676  1.0000
  H   H3357     1.0  0.94090  0.77743  0.76934  1.0000
  H   H3358     1.0  0.93101  0.78945  0.75058  1.0000
  H   H3359     1.0  0.93574  0.76558  0.75583  1.0000
  H   H3360     1.0  0.90865  0.80669  0.76993  1.0000
  H   H3361     1.0  0.89372  0.79605  0.78878  1.0000
  H   H3362     1.0  0.91654  0.79434  0.78936  1.0000
  C   C2806     1.0  0.83600  0.98670  0.56457  1.0000
  C   C2807     1.0  0.97227  0.87854  0.66192  1.0000
  H   H3363     1.0  0.98390  0.77544  0.59474  1.0000
  N   N184      1.0  0.82544  0.89873  0.65090  1.0000
  C   C2808     1.0  0.83008  0.91154  0.63394  1.0000
  C   C2809     1.0  0.80652  0.90450  0.65951  1.0000
  C   C2810     1.0  0.78315  0.91363  0.68458  1.0000
  H   H3364     1.0  0.84252  0.87570  0.64141  1.0000
  C   C2811     1.0  0.96186  0.67143  0.85048  1.0000
  H   H3365     1.0  0.95305  0.89702  0.52640  1.0000
  H   H3366     1.0  0.96877  0.86230  0.57260  1.0000
  H   H3367     1.0  0.86137  0.69942  0.81625  1.0000
  C   C2812     1.0  0.75498  0.66847  0.94719  1.0000
  C   C2813     1.0  0.82820  0.88088  0.64697  1.0000
  H   H3368     1.0  0.82237  0.91203  0.62400  1.0000
  H   H3369     1.0  0.75339  0.81392  0.96198  1.0000
  H   H3370     1.0  0.84649  0.72907  0.57517  1.0000
  C   C2814     1.0  0.75773  0.78083  0.83528  1.0000
  C   C2815     1.0  0.97391  0.68126  0.87590  1.0000
  C   C2816     1.0  0.76998  0.91542  0.67534  1.0000
  C   C2817     1.0  0.88819  0.80054  0.67444  1.0000
  Fe  Fe381     1.0  0.99627  0.96040  0.61406  1.0000
  H   H3371     1.0  0.99565  0.82087  0.62590  1.0000
  C   C2818     1.0  0.88231  0.95844  0.51904  1.0000
  Fe  Fe382     1.0  0.76650  0.69150  0.59249  1.0000
  H   H3372     1.0  0.95346  0.68447  0.73318  1.0000
  H   H3373     1.0  0.78547  0.83896  0.71189  1.0000
  C   C2819     1.0  0.82557  0.70366  0.59334  1.0000
  H   H3374     1.0  0.76875  0.81820  0.71072  1.0000
  C   C2820     1.0  0.79273  0.90638  0.65050  1.0000
  H   H3375     1.0  0.89771  0.75130  0.65220  1.0000
  H   H3376     1.0  0.88950  0.67488  0.74139  1.0000
  C   C2821     1.0  0.95908  0.67624  0.74444  1.0000
  C   C2822     1.0  0.90913  0.87568  0.55785  1.0000
  H   H3377     1.0  0.84143  0.69156  0.63167  1.0000
  H   H3378     1.0  0.87617  0.77580  0.64358  1.0000
  H   H3379     1.0  0.76171  0.74019  0.87466  1.0000
  N   N185      1.0  0.88578  0.77186  0.66754  1.0000
  H   H3380     1.0  0.93524  0.66845  0.93854  1.0000
  H   H3381     1.0  0.96403  0.85936  0.64232  1.0000
  S   S758      1.0  0.77373  0.87585  0.71998  1.0000
  H   H3382     1.0  0.92536  0.69713  0.88715  1.0000
  S   S759      1.0  0.78411  0.66953  0.88101  1.0000
  C   C2823     1.0  0.78877  0.84180  0.69704  1.0000
  H   H3383     1.0  0.85568  0.77372  0.81700  1.0000
  Fe  Fe383     1.0  0.80627  0.68136  0.86224  1.0000
  H   H3384     1.0  0.81666  0.67698  0.79826  1.0000
  H   H3385     1.0  0.86708  0.79353  0.65519  1.0000
  H   H3386     1.0  0.86877  0.76697  0.78709  1.0000
  C   C2824     1.0  0.76977  0.74631  0.91231  1.0000
  C   C2825     1.0  0.99447  0.79593  0.57409  1.0000
  C   C2826     1.0  0.96902  0.68305  0.75201  1.0000
  H   H3387     1.0  0.76496  0.67616  0.93821  1.0000
  C   C2827     1.0  0.84012  0.73450  0.58741  1.0000
  H   H3388     1.0  0.84006  0.74155  0.61739  1.0000
  H   H3389     1.0  0.75139  0.84290  0.66791  1.0000
  N   N186      1.0  0.84253  0.72065  0.60381  1.0000
  H   H3390     1.0  0.78263  0.81271  0.69019  1.0000
  H   H3391     1.0  0.75296  0.81593  0.92216  1.0000
  C   C2828     1.0  0.97972  0.66388  0.87298  1.0000
  H   H3392     1.0  0.87520  0.95097  0.51421  1.0000
  H   H3393     1.0  0.94514  0.68649  0.90875  1.0000
  C   C2829     1.0  0.87949  0.78357  0.65153  1.0000
  H   H3394     1.0  0.88413  0.85770  0.56485  1.0000
  H   H3395     1.0  0.75898  0.82083  0.69219  1.0000
  H   H3396     1.0  0.75919  0.86743  0.69180  1.0000
  H   H3397     1.0  0.84924  0.72398  0.77239  1.0000
  C   C2830     1.0  0.99623  0.70000  0.96072  1.0000
  H   H3398     1.0  0.84631  0.74592  0.58626  1.0000
  C   C2831     1.0  0.76759  0.84925  0.64208  1.0000
  S   S760      1.0  0.80033  0.67299  0.91342  1.0000
  H   H3399     1.0  0.80492  0.84899  0.66491  1.0000
  C   C2832     1.0  0.86018  0.75879  0.79673  1.0000
  H   H3400     1.0  0.84596  0.68880  0.81221  1.0000
  C   C2833     1.0  0.85267  0.76274  0.81351  1.0000
  C   C2834     1.0  0.98423  0.88163  0.64519  1.0000
  H   H3401     1.0  0.92498  0.97701  0.55959  1.0000
  H   H3402     1.0  0.90409  0.80657  0.70749  1.0000
  C   C2835     1.0  0.85585  0.70473  0.86428  1.0000
  H   H3403     1.0  0.89012  0.82372  0.68232  1.0000
  H   H3404     1.0  0.97690  0.81896  0.53801  1.0000
  C   C2836     1.0  0.84734  0.70125  0.81512  1.0000
  C   C2837     1.0  0.86687  0.68665  0.92939  1.0000
  C   C2838     1.0  0.89127  0.78159  0.67796  1.0000
  C   C2839     1.0  0.92106  0.68887  0.90007  1.0000
  C   C2840     1.0  0.85696  0.74414  0.79244  1.0000
  H   H3405     1.0  0.86347  0.74165  0.77934  1.0000
  C   C2841     1.0  0.84155  0.75233  0.82597  1.0000
  C   C2842     1.0  0.94356  0.85486  0.54580  1.0000
  H   H3406     1.0  0.83597  0.75525  0.83913  1.0000
  C   C2843     1.0  0.96419  0.89283  0.62486  1.0000
  C   C2844     1.0  0.85165  0.99321  0.55701  1.0000
  H   H3407     1.0  0.90485  0.74678  0.67244  1.0000
  H   H3408     1.0  0.87692  0.95768  0.53359  1.0000
  H   H3409     1.0  0.83607  0.88724  0.67469  1.0000
  C   C2845     1.0  0.90452  0.78103  0.70272  1.0000
  N   N187      1.0  0.91187  0.85599  0.56436  1.0000
  H   H3410     1.0  0.96601  0.87913  0.68981  1.0000
  C   C2846     1.0  0.93395  0.82719  0.56106  1.0000
  C   C2847     1.0  0.77089  0.82237  0.69594  1.0000
  C   C2848     1.0  0.83803  0.73782  0.82176  1.0000
  S   S761      1.0  0.75367  0.78107  0.91414  1.0000
  N   N188      1.0  0.77388  0.84087  0.68959  1.0000
  C   C2849     1.0  0.82328  0.72004  0.80128  1.0000
  H   H3411     1.0  0.91298  0.76341  0.65415  1.0000
  H   H3412     1.0  0.91847  0.88140  0.56182  1.0000
  H   H3413     1.0  0.84855  0.96664  0.52875  1.0000
  C   C2850     1.0  0.75379  0.72440  0.91182  1.0000
  C   C2851     1.0  0.84593  0.73304  0.80499  1.0000
  C   C2852     1.0  0.97116  0.90800  0.55523  1.0000
  C   C2853     1.0  0.93224  0.68290  0.91220  1.0000
  C   C2854     1.0  0.96997  0.89953  0.54240  1.0000
  H   H3414     1.0  0.91133  0.77348  0.71338  1.0000
  N   N189      1.0  0.84250  0.71716  0.80119  1.0000
  H   H3415     1.0  0.81900  0.73217  0.79133  1.0000
  H   H3416     1.0  0.87606  0.67434  0.89952  1.0000
  H   H3417     1.0  0.81469  0.72160  0.81454  1.0000
  H   H3418     1.0  0.75603  0.91955  0.68145  1.0000
  H   H3419     1.0  0.77586  0.90108  0.73987  1.0000
  H   H3420     1.0  0.81316  0.66395  0.61295  1.0000
  C   C2855     1.0  0.90945  0.85230  0.58395  1.0000
  C   C2856     1.0  0.89772  0.84998  0.55995  1.0000
  H   H3421     1.0  0.94051  0.98500  0.50304  1.0000
  C   C2857     1.0  0.95072  0.81757  0.55422  1.0000
  Fe  Fe384     1.0  0.98298  0.76670  0.63238  1.0000
  C   C2858     1.0  0.89111  0.98584  0.51591  1.0000
  C   C2859     1.0  0.85237  0.70851  0.88120  1.0000
  H   H3422     1.0  0.89545  0.88261  0.56352  1.0000
  N   N190      1.0  0.98015  0.87917  0.62903  1.0000
  H   H3423     1.0  0.97098  0.69661  0.74663  1.0000
  C   C2860     1.0  0.97614  0.67266  0.76668  1.0000
  H   H3424     1.0  0.99399  0.73161  0.93826  1.0000
  H   H3425     1.0  0.77818  0.76329  0.87032  1.0000
  H   H3426     1.0  0.88197  0.80896  0.66374  1.0000
  H   H3427     1.0  0.99237  0.89091  0.68804  1.0000
  H   H3428     1.0  0.86607  0.75629  0.67149  1.0000
  H   H3429     1.0  0.77562  0.78967  0.84542  1.0000
  C   C2861     1.0  0.90419  0.68468  0.90468  1.0000
  C   C2862     1.0  0.81904  0.67534  0.61108  1.0000
  H   H3430     1.0  0.85054  0.69437  0.86236  1.0000
  H   H3431     1.0  0.98995  0.70432  0.97358  1.0000
  C   C2863     1.0  0.76065  0.75107  0.86324  1.0000
  H   H3432     1.0  0.93634  0.96490  0.53291  1.0000
  H   H3433     1.0  0.94180  0.86920  0.54220  1.0000
  C   C2864     1.0  0.90988  0.66829  0.93366  1.0000
  C   C2865     1.0  0.82976  0.99033  0.52223  1.0000
  H   H3434     1.0  0.91971  0.85679  0.58775  1.0000
  H   H3435     1.0  0.95991  0.87462  0.66319  1.0000
  H   H3436     1.0  0.98249  0.80065  0.56883  1.0000
  H   H3437     1.0  0.92777  0.99122  0.58068  1.0000
  C   C2866     1.0  0.79729  0.85242  0.64059  1.0000
  C   C2867     1.0  0.96384  0.82649  0.54319  1.0000
  C   C2868     1.0  0.75371  0.75898  0.91423  1.0000
  C   C2869     1.0  0.77016  0.76428  0.86087  1.0000
  H   H3438     1.0  0.86905  0.69169  0.94024  1.0000
  H   H3439     1.0  0.86835  0.70685  0.59192  1.0000
  C   C2870     1.0  0.88778  0.67399  0.76918  1.0000
  C   C2871     1.0  0.88213  0.67139  0.75491  1.0000
  N   N191      1.0  0.88071  0.97726  0.50899  1.0000
  H   H3440     1.0  0.77931  0.91613  0.69798  1.0000
  C   C2872     1.0  0.99528  0.78164  0.58877  1.0000
  C   C2873     1.0  0.97553  0.88130  0.67726  1.0000
  S   S762      1.0  0.98793  0.66691  0.94090  1.0000
  S   S763      1.0  0.76923  0.67648  0.62005  1.0000
  H   H3441     1.0  0.99664  0.93463  0.57381  1.0000
  H   H3442     1.0  0.89649  0.95105  0.51761  1.0000
  C   C2874     1.0  0.84717  0.98012  0.52096  1.0000
  H   H3443     1.0  0.78685  0.85476  0.61763  1.0000
  H   H3444     1.0  0.76258  0.71933  0.84537  1.0000
  C   C2875     1.0  0.76427  0.84571  0.66070  1.0000
  H   H3445     1.0  0.86440  0.98441  0.55786  1.0000
  N   N192      1.0  0.88009  0.67009  0.92640  1.0000
  C   C2876     1.0  0.86206  0.98755  0.51053  1.0000
  H   H3446     1.0  0.99744  0.89477  0.60887  1.0000
  S   S764      1.0  0.75373  0.70362  0.90818  1.0000
  S   S765      1.0  0.95379  0.66432  0.83560  1.0000
  H   H3447     1.0  0.75745  0.84910  0.63537  1.0000
  H   H3448     1.0  0.75516  0.85088  0.71177  1.0000
  H   H3449     1.0  0.81868  0.98460  0.53077  1.0000
  H   H3450     1.0  0.88507  0.98678  0.53000  1.0000
  C   C2877     1.0  0.93566  0.99051  0.51494  1.0000
  S   S766      1.0  0.77149  0.66679  0.58136  1.0000
  S   S767      1.0  0.82774  0.66379  0.87622  1.0000
  H   H3451     1.0  0.99671  0.71136  0.92222  1.0000
  C   C2878     1.0  0.75103  0.72024  0.85690  1.0000
  H   H3452     1.0  0.80728  0.99336  0.56961  1.0000
  C   C2879     1.0  0.86735  0.66358  0.75820  1.0000
  H   H3453     1.0  0.75040  0.84746  0.80023  1.0000
  H   H3454     1.0  0.90502  0.99144  0.58024  1.0000
  S   S768      1.0  0.99903  0.93280  0.63098  1.0000
  H   H3455     1.0  0.99920  0.73411  0.95771  1.0000
  C   C2880     1.0  0.74952  0.75220  0.85150  1.0000
  H   H3456     1.0  0.75014  0.75419  0.60095  1.0000
