data_image0
_chemical_formula_structural       SH2CHCH2CH4C2HFeH2FeCHSC2HSCHSHFeSFeSHSNFeS2FeS2FeSFeS3C6H6CH2C3HCHC5H4FeC10H2CHC2H3SHCHCFeH3CH2C2HC6H6CH6CSH2SC2HCHCH2NH6C2H2NCH2CH8CHCNCHCHC3HFeC3NH4NC5HCHC2HCH3CH2SCHCHSH3C4HCH4CHC3H2SC2HSFeSFeS2FeS2FeSFeS3FeS2FeS2FeSFeS3FeSFeHSCH2SC2SHCHSC3H4CHC6H3C6H4C6H4C6H5CHCH2CH3NCHC3SFeH3FeC3HCH6NH2C3HCHC2H2C2HFeHCHN2H2CH4CHCHCH2CHC2H2C2SHC2HC2H3NCH2CHNHCHFeSHC2SCFeSC3H2NHCSH4SCHC3H2SH2CHNCH3C2H5CHCH3CHFeHSH4C2FeCSCS2HN2H4CHC3H3CH2NC10H9CHCHNHC2HC2H2NHSC2NCHC3H2C3HCHCHFeH2CHCHCHCH2C2H3CHC2HC6HCHCH2C2H2C2H2C2HCH7C2H4FeHC3H3CHSC2H6C2H2C2H2FeSH2CHCH2CH4CHCH3C2HC2H3CHCSH2CH2CHFeS2FeS2FeCFeS3FeS2CHCFeSHSCH2SCHCHSCHCH2CHC2H5NSC6H6SHSC3H3SC6H5C6H4NC4HCHC2H8CH2CH4CSCH3CHSHC2H2C2H3C2HCFeNC9H13C2HCHC2FeHCHCH2CHCHCHCFeHNCH3N2H2C2HC3H2C2FeSCH3C2SCH3FeCH4CNC2NCHC3H3CH2CH2SCHNH4Fe2HCHCHC3HS2HCH2CHC3H5CHCH2SCHCHCH2SCH4FeHSFeSHSHCFeS2HSCFeS2FeS2FeSFeS4H3SNFeSFeSCHC6H4C6H7C3H7CHC2NH2CSHC3HCH3C7H4C6H6CSC2HC2HC2SHC2HC2H3CH2CHCSFeHCHSCS2HCFeHC2HCHCH2C2H2C2SCHC3H3CHCHCH2FeNC2H5NC6H5CH4SCHCHCHNC7H3C3H3CH2CHC2H2FeHC2HFeC3H7CH3CSH3C2H3CNC9H11FeC2H3FeHSFeC5HCSH3SHCSCSCH3FeH3CH2CSHC2H3FeC3HFeSHCH5CSN2CH5CFeH2CHSH3CHSHSHCHCFeS2FeS2FeSFeCS2HSHFeHCFeS2FeSFeHS2HC2SCHCFeCFeS2FeSHFeSFeS3HCFeSHSC6H4CHCHCHCHFeCHC3HCH5C2HC2HC8H5CH3CH2C7H4C6H4CH5C4SCHCHNC9H14NC9H14NHFeCH3SHC2HCH3CSH3CH3C2HCS3CSCHSH7CHCH3CNHNC9H14NC9HC2HSHC2SFe2CHCH2C4H2S2H2SHC3HSHSC2FeH2CSHNH3NH3C2HCHCSHCH3NCH4C3NCFeCHFeHCH2SC2HNH3SCHFeHFeHCH2SHS2HCHC2SCH4FeC2HCHCSH2CHCHC2H3SFeCH3C2HCH3CHSC4HCH5C2HCH2CHSHC3SH2CHCHC3HC2H2FeS2FeS2FeCFeS3NCHC2NH7CHCFeS2FeS2FeSFeHS2C2SCSHCHC2H5CHC5H5C6H4CHCHC2SH2CH6CH3C7H5CH4C3HC4NH2CHCHCH2C3H2C2SC2HCH3CHC2H4CHC3FeH3CH5SHC3HC2H2C3H2CHCHC2HSC5H2NH3CHCH2SHCH2C5HCH3CH2C2FeHSC2H2CHCHC2SCH3CH2SCHCSHCH2CHNHSH2CHS2FeS2FeSFeSH2FeS2FeCFeS2HC3SFeSFeS2FeCHFe2S7C4H2C6H4C4H6C3HNFeC5H2C6H4C2HC3H2C2H2C6H5C6H6CFeCHC2FeNC6HSFeC2H6NHCHC2SNC9H14NHC2S2CH3SH3CH2CH6SHSC2N2C2FeHSHC2H2CSCH2CH2CFeCH2CHC2HCHFeH3CFeHSHSC3SCNC9H14CSHCS3HCHCSCHCH2CSC2SNC9H11CHC4HCHCSHCNC7H12CFeHSH3NHCHCHCH2CHSNH2CH4FeCFe3CSH3SFeHCS2CHCHC2H5CHCH2CHCHCH2FeS2CSCH3CH3SCH2CHC2FeCHSHFeHFeS2FeHCHSFeHCH2CH9SC3HSCSHCSHC2H3SCHC2HNH2C3HCFeH2CHCSH4SC3HSHCSH2CHCHC4SCHCH5C2FeH3C2H2CHCH2CH3FeS2FeS2FeS2FeS2FeSFeS5HFeSC2FeSCFeSHCFeS2FeSFeHFeS2HCHC2HSFeSH3CH2SHCHCHC2SFeH4CHC2SCHSHC9H2SHC3H2C3H2C4HCHC6H4C6H7C6H4C6H6C3H3C5SC2H2NCH2NHCH2C2NCH7C2H3FeH3CH2SHCHSCH2SCHCHSCHCHSHNC9H18FeCH2C2H3SCHFeC2H2SCHNH3C6H3C2SHCH6SCHSNH2CSH2CFeH2CH2CNC9H12CHNC9H13FeHFeH2C2H2FeHC3SHSHFeCHSC2H2C3H4CH2CSHCHC3SH4CNHNHSCH3CFeH3C3NFeH2CH4CHC2HN2SC3HSCH4SHC2H2CHCSHCH5C3FeS2HC2FeSFeSCH2S2C2FeSFeSHNC3HC3SC8H9CHC3HCH3CFeCHCH3C7H4NHC2H2CSH4C4HCH4NH2C5HSH5CHCH3CSCHNCH2C4H5C3H4C2H2CHCHNC2H3CH4C2SCH5FeCHC6H2S2HC4HNHC2HCHCH2C2H2NH5SH2C2HC2FeCFeS2FeSFeS2FeS2H2Fe2SFeHCNHS2Fe2S2FeS2FeSFeS3C6H3SC6H6CHCH2C6H4C6H4C2HSHC6HSH3C3HC2H3CH3CSNC2H3C2NC8H5NC2H3CHSHC2H2C4H3CH2SH3CHSH3NC6HC2H8CH3C2HSHC2HNCH2NC9H21CH3C2H3CSHCSCHCHCSH5C3HCHC3H5FeCH4NC5H4SH3FeCH3SCH2CH2CFe2SH3CHSC3H4C3SH2S2H2CFeCH2SCHC2FeC2HSHCH2FeNCS2H4C2HFeCHC2NHC4HCH2CNH2C2H3SH5C4HCFeCH3C3H3C4HC3HCH2SHFeSHFeSCHFeS2H3SH2CH2CH2C2H2NH3NCHSHCFeC2H2CFeCFeHC6H5C4H3C2HCSHCHNH4C2H5SCHSH2CHCH2FeSCHC4H2C2HCFeSFeSCFeNS2CHCSHFeSC3FeS2FeS2FeSFeS3FeS2FeS2FeSFeS3C6H4C6H6SH2NH2CHC6H3C6H4FeCH2FeHCFeC4H3C2H5C4H3C3H2CH2C2NCHC5HFeCS2CNSCH5NC2H3CH2C2H5SH2CH5CH5NC2H2C2HFeHCHCHNH9CSHSN2C9H14CH5SH2CHCH3C2HSHCHCSHSFeNCHC3H4CHCH2CH3C5FeCHCH2CH2CH2CH5NCH2SH2CH2CHC4HSCHCH4C4H3C2H2SC3HC3SCHCFeHCHSH2NC3HC2HSH3FeHC2H7CHC2HC2H3CNHSC2HC2HC3H2CH2CH7C5SHFeSH2NH4FeHCHNHCSFeS2FeS2FeSFeS3HCHNHCHCHCHFeCSHC5H2SC2FeHCHSH2C2H3CH2C3H2C6H3C7HSH2C4HC2H2SC3H3C8HSH3C8H5NHC5H4CHCH2SCH3CH2CH5C2H4C3H4FeCH4CH4CH2SCNC2FeHC2HCHC2H2CH3CHCHCH5CH4C2HCHCHCH2CHNH2SCH2SHC3HCSH2SH2CSNHFeS2FeS2FeSFeS3H2CS2CSFeS2C2HCH3S2HCFeCSHC6H3C2HC6HCH2C2HC8H4C6H4SHCH5C7H4C4SHCH2C4HC3FeCH4CFe2H3CHFeHSH2C2HCHFeNC4H2SC2H3CH2FeC2H2NHCNC9H14C5SCH4NSH2CH2CH2CH3CHSC2H2FeHFeH2C2H4CH2C2H2FeHFeH3C2H8SCH4C2HFeC2HC2HCH4CHSH6FeNCHC2S2CH2C5NCS2HSHC2H2S2C2NH3C2H2SHC3H2C2H2C4HSCSC3H2CSC2H2CFeCS3HSFeH2FeC3FeSHSFeS2FeSHFeSFeS3C6H4C6H3CH2C4H3C6H4CH2CHSC2H2CH3S2HC3H4CHNH3CFeH2CHC2HSCHCH2CSHCFeC2H3C4HNC9H14CNCHCNHFeH2C2SC4H6CH2CHCH2SCHCHCHCH2CH4SFeHSCHC2H3FeCHCFeH2SCSCH3CH4CHFe2CFeH2C2H2SCHCFeCH4C2HC2H2C2HNH3CH2FeH4CH2SH3C2HNH2SCSNHC2H4CHCFeS2FeSHFeCFeS3H2NSCH3CHCFeS2FeSHFeSFeS3CH2C3HSH4C4H3C3HC6H4CHCH2CH4FeHSH4C2H2CH5C4NC2HCHCH3C4H4C2HC2HCH3CHCHSHC6NH2C3H2CH3SCHC5H4CH2CHCH3CHC3HCHNHS2H2FeS2FeS2FeSFeS3HSHFeS2FeSFeS3FeS2FeSHFeSFeS3CSH4C3SH2C3HC2H3CHCH3CSH2C6H3C4HC2HCFeHCHFeC6SHC6H4C6H4C5H3C6H4CHC5HCSCHFeC3HC2H3NHCHSC2HCHNC9H13C2H2CH2C3H3NH4CNC4HFeCHC2H2NC8H12NCHFeCHC3HCHC2FeCHSHCHCH4SCH2CH4CHC2H2CH2SH3CHCHCH3CSHCH3CH2FeH4C5HC2H3C3HSH3NHCH4S2HSCHCHCFeCSH2C2H4NHCHCHCHCFeSH2S2CHC2HNHCHCH5CHFeC2HSHCHCH8C5H2CH2SC2HSCHCH7CSCH2C2HSCH6NCHC2HCFeSFeCSCSCH2SHSCHFeS2FeS2FeCFe2HS2FeS2H2FeS2FeSFeSFeS5FeSC5H2C5H4C7H4CFeHC3H2C5FeC4HCH3CH2C3H3SC3FeCH2SFeHC10H4C3H2NC7HSH9CHC2HCH2CSC3H2C3H2NFeH3C2H2C3SCH6CHC4SCSCH2NC4H3SH8CFeHSFeHC2HSCSH4FeHC2HCHNC9H15CH2FeCNHCHSCFeSH4CH2C3FeCSH2NC9H14FeS2C2HFe2H2C2SHSCSHSFeS2CSHSC3FeSHC3H5SCH2SHSC3HCSCSHC2FeSCH2CH4CH2NH3FeC2HCH2CNHCFeHCHC2HSHCH3CHCH2C2HC4N2C2HSH2C2HC2H4NSHCHCH2NC2H3SHSCHCFeC2HCSCH6C2H5C2H2C2H4CHCH2SCH2CFeSC2HCH3C2H2CHCH2CNH3C2HCHSHCH4C2H2CHCH2CHCHFeCHCH2CHSCHC3HC3H2CH3S3CSHC2HC4H3CHCHCH2NH3CHCHSCH2CHSHCHSHC2FeSH2C2HCHCHC7H2C3H2NH3C2H2C2HFeH2SCHC2HCNHCH2CH2SHFeSCSCHFeS2FeHSFeSCHSHCHC4H2SHC4SCNH2CHCHC2HCHCH2CHNHC2H2CH2CFeC2HCH2CSHCH2C2H2CHC2HC8H4C2NH7C3HCNCH3C2H2C3H3CH4C2H5SH2SC2SCH2SH3CHCH2CHCHCHCSH2S2CFeSFeSHFeSFeHSFeS2FeSFeSH5SHSC2HFeS2FeS2FeSFeS3HSH3FeSHCFeHNHFe2HC7H2CH4C6H7C5H2CH2C2H4SCH4C2HSCHSHC7H4CHSFeSC6H4C3HCHNC9H12NHSHNC2H2CH4SHCHCNH3C6H7SH6CHC10SHSH3Fe2HCH5SNC2H4CH2C2HCSH2CNC9HCSHC2H2FeSCHC2H2SHC2HCNHC2HSHFeCFeH2CSC2HCSH4S2FeCHCH5CHCHC2SC2HCH3CH5NCH3C3HC2SCH2C2H2SH2CH3CSH4CH3C2H2CH4CH3CHC2H2C4NH2C3SCH2SHCHCH4C2SH4CH2FeSHNSHCFeS2C2H3CFeHCH2NHSCHSHCH2C2HCH6C2SC2HC6H6C4HSH2CHFeC3HFeH2CH3CNHFeS2FeNFe2S3H2S2H2CNHSH2CHFeS3HS2CHFeS2FeS2FeSFeS3FeSCH2CHSC6H4C6H4C2HFeC6H5CHSCH2Fe2HCSC7H5C3HCH3C3HC6H3CNCHC7HSCHSH9C3HC2NSCHC3HCH2NCH2CH2C3H4SH3CHC2HNFeHCHCH4CSC2H5FeCH2C3HC2HCH3C2HCSH4CHC2FeC4H4NC2HFeSHCHC2H2CHC2SCSHSCHNCFeSH4SC3H2CNCH5C3H3C4H4CH2FeNFeHCHCSCH4C2H3CH3CHCHC2SCHNHCHCH3FeHSHSHCHC4H2CH3SH2CFeH3CH2CH2CH6CH3SHC3H3C2H2
_chemical_formula_sum              "S768 H3456 C2880 Fe384 N192"
_cell_length_a       67.603
_cell_length_b       67.1927
_cell_length_c       67.2685
_cell_angle_alpha    75.2485
_cell_angle_beta     75.2608
_cell_angle_gamma    75.3071

_space_group_name_H-M_alt    "P 1"
_space_group_IT_number       1

loop_
  _space_group_symop_operation_xyz
  'x, y, z'

loop_
  _atom_site_type_symbol
  _atom_site_label
  _atom_site_symmetry_multiplicity
  _atom_site_fract_x
  _atom_site_fract_y
  _atom_site_fract_z
  _atom_site_occupancy
  S   S1        1.0  0.17917  0.08100  0.42222  1.0000
  H   H1        1.0  0.16790  0.29189  0.01879  1.0000
  H   H2        1.0  0.21286  0.04957  0.27519  1.0000
  C   C1        1.0  0.03529  0.14170  0.42789  1.0000
  H   H3        1.0  0.99639  0.16061  0.28187  1.0000
  C   C2        1.0  0.20312  0.10748  0.45209  1.0000
  H   H4        1.0  0.04396  0.14394  0.45583  1.0000
  H   H5        1.0  0.02516  0.02833  0.31973  1.0000
  C   C3        1.0  0.00203  0.24833  0.07462  1.0000
  H   H6        1.0  0.00955  0.29461  0.04178  1.0000
  H   H7        1.0  0.11040  0.30358  0.99829  1.0000
  H   H8        1.0  0.00354  0.06401  0.36965  1.0000
  H   H9        1.0  0.03967  0.27207  0.00993  1.0000
  C   C4        1.0  0.03133  0.14698  0.44753  1.0000
  C   C5        1.0  0.02269  0.03701  0.25861  1.0000
  H   H10       1.0  0.04838  0.11313  0.40167  1.0000
  Fe  Fe1       1.0  0.23039  0.01595  0.40483  1.0000
  H   H11       1.0  0.21265  0.99700  0.28891  1.0000
  H   H12       1.0  0.03321  0.16975  0.38075  1.0000
  Fe  Fe2       1.0  0.20077  0.00458  0.44569  1.0000
  C   C6        1.0  0.13664  0.99902  0.29639  1.0000
  H   H13       1.0  0.09864  0.03040  0.27317  1.0000
  S   S2        1.0  0.17446  0.00184  0.27093  1.0000
  C   C7        1.0  0.08554  0.05989  0.24215  1.0000
  C   C8        1.0  0.15002  0.32231  0.06443  1.0000
  H   H14       1.0  0.08483  0.01971  0.26070  1.0000
  S   S3        1.0  0.07318  0.30270  0.07199  1.0000
  C   C9        1.0  0.11546  0.03944  0.48655  1.0000
  H   H15       1.0  0.19921  0.12207  0.44029  1.0000
  S   S4        1.0  0.06790  0.28754  0.03059  1.0000
  H   H16       1.0  0.17240  0.01761  0.38438  1.0000
  Fe  Fe3       1.0  0.04753  0.29530  0.06072  1.0000
  S   S5        1.0  0.02566  0.27360  0.07967  1.0000
  Fe  Fe4       1.0  0.09236  0.29794  0.04037  1.0000
  S   S6        1.0  0.12650  0.28336  0.03517  1.0000
  H   H17       1.0  0.05450  0.14831  0.38629  1.0000
  S   S7        1.0  0.23607  0.04407  0.41371  1.0000
  N   N1        1.0  0.22556  0.10262  0.45321  1.0000
  Fe  Fe5       1.0  0.11367  0.08875  0.34504  1.0000
  S   S8        1.0  0.10416  0.05828  0.36169  1.0000
  S   S9        1.0  0.14817  0.08720  0.33945  1.0000
  Fe  Fe6       1.0  0.06987  0.10980  0.33844  1.0000
  S   S10       1.0  0.05692  0.08089  0.35436  1.0000
  S   S11       1.0  0.04785  0.13913  0.32690  1.0000
  Fe  Fe7       1.0  0.07608  0.07787  0.37801  1.0000
  S   S12       1.0  0.06279  0.06684  0.41196  1.0000
  Fe  Fe8       1.0  0.08632  0.06434  0.33641  1.0000
  S   S13       1.0  0.08668  0.03731  0.32283  1.0000
  S   S14       1.0  0.08683  0.10830  0.36365  1.0000
  S   S15       1.0  0.09779  0.09340  0.31817  1.0000
  C   C10       1.0  0.07703  0.10188  0.45473  1.0000
  C   C11       1.0  0.08887  0.10245  0.43429  1.0000
  C   C12       1.0  0.08459  0.09176  0.42094  1.0000
  C   C13       1.0  0.06852  0.08041  0.42809  1.0000
  C   C14       1.0  0.05685  0.07973  0.44849  1.0000
  C   C15       1.0  0.06099  0.09058  0.46165  1.0000
  H   H18       1.0  0.10149  0.11097  0.42886  1.0000
  H   H19       1.0  0.09408  0.09185  0.40538  1.0000
  H   H20       1.0  0.04457  0.07080  0.45410  1.0000
  H   H21       1.0  0.18405  0.01382  0.33226  1.0000
  H   H22       1.0  0.14097  0.06977  0.44374  1.0000
  H   H23       1.0  0.14931  0.03755  0.35978  1.0000
  C   C16       1.0  0.00965  0.26695  0.06637  1.0000
  H   H24       1.0  0.01693  0.00137  0.34656  1.0000
  H   H25       1.0  0.01062  0.21880  0.13577  1.0000
  C   C17       1.0  0.01523  0.04259  0.34739  1.0000
  C   C18       1.0  0.16351  0.00944  0.37895  1.0000
  C   C19       1.0  0.01734  0.04233  0.32589  1.0000
  H   H26       1.0  0.99314  0.09238  0.30799  1.0000
  C   C20       1.0  0.01152  0.04323  0.48418  1.0000
  H   H27       1.0  0.01478  0.10831  0.47919  1.0000
  C   C21       1.0  0.02794  0.11232  0.29016  1.0000
  C   C22       1.0  0.03894  0.11555  0.30375  1.0000
  C   C23       1.0  0.03454  0.13504  0.30951  1.0000
  C   C24       1.0  0.01922  0.15129  0.30153  1.0000
  C   C25       1.0  0.01086  0.05656  0.25146  1.0000
  H   H28       1.0  0.03107  0.09717  0.28603  1.0000
  H   H29       1.0  0.05075  0.10295  0.30982  1.0000
  H   H30       1.0  0.20758  0.00501  0.35726  1.0000
  H   H31       1.0  0.99528  0.01101  0.36599  1.0000
  Fe  Fe9       1.0  0.23760  0.02308  0.44554  1.0000
  C   C26       1.0  0.04711  0.27183  0.99316  1.0000
  C   C27       1.0  0.13234  0.06560  0.46017  1.0000
  C   C28       1.0  0.11152  0.02805  0.30895  1.0000
  C   C29       1.0  0.11744  0.00675  0.30843  1.0000
  C   C30       1.0  0.22398  0.99892  0.29674  1.0000
  C   C31       1.0  0.14996  0.01250  0.28466  1.0000
  C   C32       1.0  0.14404  0.03397  0.28498  1.0000
  C   C33       1.0  0.12489  0.04172  0.29741  1.0000
  C   C34       1.0  0.00124  0.04167  0.46918  1.0000
  C   C35       1.0  0.01873  0.07463  0.24824  1.0000
  H   H32       1.0  0.15429  0.04450  0.27586  1.0000
  H   H33       1.0  0.12031  0.05829  0.29764  1.0000
  C   C36       1.0  0.04576  0.01647  0.35534  1.0000
  H   H34       1.0  0.16764  0.03385  0.31677  1.0000
  C   C37       1.0  0.05100  0.05350  0.25929  1.0000
  C   C38       1.0  0.01907  0.14517  0.41674  1.0000
  H   H35       1.0  0.21354  0.16563  0.47707  1.0000
  H   H36       1.0  0.11888  0.05138  0.43362  1.0000
  H   H37       1.0  0.02266  0.10764  0.40827  1.0000
  S   S16       1.0  0.20314  0.03137  0.45830  1.0000
  H   H38       1.0  0.10715  0.99620  0.31742  1.0000
  C   C39       1.0  0.15368  0.31246  0.08450  1.0000
  H   H39       1.0  0.08644  0.06428  0.28119  1.0000
  C   C40       1.0  0.99857  0.15375  0.42672  1.0000
  Fe  Fe10      1.0  0.20145  0.05009  0.42599  1.0000
  H   H40       1.0  0.05200  0.08974  0.47726  1.0000
  H   H41       1.0  0.19888  0.09470  0.44723  1.0000
  H   H42       1.0  0.14200  0.01392  0.45898  1.0000
  C   C41       1.0  0.13799  0.29666  0.01074  1.0000
  H   H43       1.0  0.14748  0.31262  0.05507  1.0000
  H   H44       1.0  0.01020  0.29656  0.99654  1.0000
  C   C42       1.0  0.14544  0.02945  0.45831  1.0000
  C   C43       1.0  0.99927  0.07861  0.31887  1.0000
  H   H45       1.0  0.18153  0.01053  0.30761  1.0000
  C   C44       1.0  0.17049  0.08374  0.39904  1.0000
  C   C45       1.0  0.18434  0.07615  0.38204  1.0000
  C   C46       1.0  0.17746  0.07780  0.36362  1.0000
  C   C47       1.0  0.15653  0.08621  0.36241  1.0000
  C   C48       1.0  0.14258  0.09357  0.37953  1.0000
  C   C49       1.0  0.14965  0.09267  0.39772  1.0000
  H   H46       1.0  0.20048  0.06930  0.38295  1.0000
  H   H47       1.0  0.18839  0.07248  0.35036  1.0000
  H   H48       1.0  0.12648  0.10034  0.37859  1.0000
  H   H49       1.0  0.13891  0.09863  0.41080  1.0000
  H   H50       1.0  0.05994  0.06172  0.29234  1.0000
  H   H51       1.0  0.01507  0.25502  0.00846  1.0000
  C   C50       1.0  0.23645  0.01782  0.31573  1.0000
  H   H52       1.0  0.00654  0.23808  0.08864  1.0000
  H   H53       1.0  0.21985  0.08409  0.48456  1.0000
  H   H54       1.0  0.00947  0.08990  0.24279  1.0000
  H   H55       1.0  0.05039  0.01331  0.33915  1.0000
  H   H56       1.0  0.07390  0.02441  0.28707  1.0000
  H   H57       1.0  0.01339  0.09662  0.44755  1.0000
  C   C51       1.0  0.00534  0.06198  0.35381  1.0000
  S   S17       1.0  0.19568  0.02405  0.41454  1.0000
  H   H58       1.0  0.09280  0.06911  0.48630  1.0000
  H   H59       1.0  0.15350  0.29588  0.09018  1.0000
  S   S18       1.0  0.08356  0.11387  0.47191  1.0000
  C   C52       1.0  0.01245  0.12845  0.28238  1.0000
  C   C53       1.0  0.01882  0.02602  0.38409  1.0000
  H   H60       1.0  0.15674  0.02710  0.46860  1.0000
  C   C54       1.0  0.00382  0.28018  0.04817  1.0000
  H   H61       1.0  0.10175  0.05891  0.24389  1.0000
  C   C55       1.0  0.99908  0.10301  0.45738  1.0000
  H   H62       1.0  0.00794  0.15943  0.47212  1.0000
  H   H63       1.0  0.19803  0.03102  0.27482  1.0000
  N   N2        1.0  0.02288  0.02325  0.36207  1.0000
  H   H64       1.0  0.01455  0.05855  0.48312  1.0000
  H   H65       1.0  0.08652  0.05032  0.23050  1.0000
  H   H66       1.0  0.21178  0.05859  0.30953  1.0000
  H   H67       1.0  0.05119  0.13477  0.42155  1.0000
  H   H68       1.0  0.10740  0.03099  0.45253  1.0000
  H   H69       1.0  0.19987  0.04302  0.33373  1.0000
  C   C56       1.0  0.15856  0.29919  0.00696  1.0000
  C   C57       1.0  0.12607  0.30599  0.99541  1.0000
  H   H70       1.0  0.02268  0.19138  0.13783  1.0000
  H   H71       1.0  0.00976  0.14126  0.36980  1.0000
  N   N3        1.0  0.02391  0.14023  0.39557  1.0000
  C   C58       1.0  0.04242  0.03538  0.26257  1.0000
  H   H72       1.0  0.02719  0.03776  0.38550  1.0000
  H   H73       1.0  0.99787  0.16191  0.38390  1.0000
  C   C59       1.0  0.07100  0.06592  0.27726  1.0000
  H   H74       1.0  0.19274  0.10900  0.46760  1.0000
  H   H75       1.0  0.14260  0.06551  0.47078  1.0000
  H   H76       1.0  0.07952  0.07657  0.23528  1.0000
  H   H77       1.0  0.04387  0.08773  0.24916  1.0000
  H   H78       1.0  0.18481  0.05508  0.28291  1.0000
  H   H79       1.0  0.01349  0.20607  0.11458  1.0000
  H   H80       1.0  0.18411  0.06106  0.31663  1.0000
  H   H81       1.0  0.01588  0.16643  0.30587  1.0000
  C   C60       1.0  0.03920  0.15262  0.38139  1.0000
  H   H82       1.0  0.03603  0.11305  0.38134  1.0000
  C   C61       1.0  0.18275  0.02226  0.31601  1.0000
  N   N4        1.0  0.07217  0.05236  0.26252  1.0000
  C   C62       1.0  0.00988  0.20382  0.13198  1.0000
  H   H83       1.0  0.06602  0.08290  0.27075  1.0000
  C   C63       1.0  0.21783  0.13717  0.46574  1.0000
  H   H84       1.0  0.12975  0.01888  0.34639  1.0000
  C   C64       1.0  0.00204  0.00495  0.48458  1.0000
  C   C65       1.0  0.00539  0.14497  0.38581  1.0000
  C   C66       1.0  0.00817  0.14800  0.28797  1.0000
  H   H85       1.0  0.05926  0.25717  0.99282  1.0000
  Fe  Fe11      1.0  0.05761  0.32168  0.01746  1.0000
  C   C67       1.0  0.03850  0.07320  0.25201  1.0000
  C   C68       1.0  0.22936  0.08265  0.46867  1.0000
  C   C69       1.0  0.11182  0.04635  0.45052  1.0000
  N   N5        1.0  0.12620  0.04497  0.46436  1.0000
  H   H86       1.0  0.02416  0.01111  0.39486  1.0000
  H   H87       1.0  0.22567  0.06940  0.46405  1.0000
  H   H88       1.0  0.05061  0.01970  0.26815  1.0000
  H   H89       1.0  0.05398  0.02877  0.35560  1.0000
  N   N6        1.0  0.20082  0.03251  0.30573  1.0000
  C   C70       1.0  0.19909  0.04246  0.28371  1.0000
  C   C71       1.0  0.01113  0.15577  0.45667  1.0000
  C   C72       1.0  0.19920  0.04949  0.31688  1.0000
  C   C73       1.0  0.22050  0.01660  0.30602  1.0000
  C   C74       1.0  0.99480  0.15902  0.44636  1.0000
  H   H90       1.0  0.05211  0.00175  0.36575  1.0000
  C   C75       1.0  0.08270  0.03077  0.27123  1.0000
  H   H91       1.0  0.15367  0.03461  0.44189  1.0000
  C   C76       1.0  0.99989  0.10962  0.47535  1.0000
  C   C77       1.0  0.01977  0.25605  0.99123  1.0000
  H   H92       1.0  0.09716  0.05791  0.45400  1.0000
  C   C78       1.0  0.00945  0.06010  0.31191  1.0000
  H   H93       1.0  0.11881  0.07886  0.46192  1.0000
  H   H94       1.0  0.14183  0.25384  0.00148  1.0000
  H   H95       1.0  0.04265  0.15003  0.36507  1.0000
  C   C79       1.0  0.03313  0.11757  0.39679  1.0000
  H   H96       1.0  0.01658  0.02296  0.26098  1.0000
  H   H97       1.0  0.01127  0.05956  0.29557  1.0000
  S   S19       1.0  0.23530  0.99436  0.43546  1.0000
  C   C80       1.0  0.15054  0.02068  0.36504  1.0000
  H   H98       1.0  0.16022  0.31627  0.11285  1.0000
  C   C81       1.0  0.13957  0.01015  0.35754  1.0000
  H   H99       1.0  0.00185  0.03113  0.39026  1.0000
  S   S20       1.0  0.99835  0.12346  0.26620  1.0000
  H   H100      1.0  0.20139  0.14010  0.46567  1.0000
  H   H101      1.0  0.99694  0.05540  0.45728  1.0000
  H   H102      1.0  0.99803  0.18507  0.17159  1.0000
  C   C82       1.0  0.23209  0.11919  0.45951  1.0000
  C   C83       1.0  0.22459  0.15204  0.47234  1.0000
  C   C84       1.0  0.99748  0.07964  0.33968  1.0000
  C   C85       1.0  0.99656  0.02257  0.46937  1.0000
  H   H103      1.0  0.23522  0.03041  0.32354  1.0000
  C   C86       1.0  0.01261  0.00618  0.36201  1.0000
  H   H104      1.0  0.08960  0.19606  0.48138  1.0000
  H   H105      1.0  0.99561  0.05765  0.24839  1.0000
  H   H106      1.0  0.99367  0.13535  0.39526  1.0000
  H   H107      1.0  0.23243  0.08794  0.42643  1.0000
  C   C87       1.0  0.15756  0.32387  0.09722  1.0000
  H   H108      1.0  0.23660  0.11440  0.42036  1.0000
  C   C88       1.0  0.23787  0.09938  0.43218  1.0000
  C   C89       1.0  0.22168  0.28643  0.76795  1.0000
  C   C90       1.0  0.16133  0.26697  0.94845  1.0000
  H   H109      1.0  0.02919  0.02728  0.59347  1.0000
  H   H110      1.0  0.22670  0.23394  0.77211  1.0000
  S   S21       1.0  0.19958  0.04718  0.67050  1.0000
  C   C91       1.0  0.01948  0.05671  0.57320  1.0000
  C   C92       1.0  0.22293  0.21488  0.83521  1.0000
  H   H111      1.0  0.07811  0.17354  0.70322  1.0000
  S   S22       1.0  0.21249  0.06301  0.70708  1.0000
  Fe  Fe12      1.0  0.18709  0.04845  0.70451  1.0000
  S   S23       1.0  0.15247  0.05948  0.71488  1.0000
  Fe  Fe13      1.0  0.18080  0.14596  0.77021  1.0000
  S   S24       1.0  0.15489  0.13760  0.79707  1.0000
  S   S25       1.0  0.21157  0.12487  0.76254  1.0000
  Fe  Fe14      1.0  0.15484  0.18631  0.75170  1.0000
  S   S26       1.0  0.12616  0.18175  0.77616  1.0000
  S   S27       1.0  0.15362  0.21367  0.72502  1.0000
  Fe  Fe15      1.0  0.14826  0.17195  0.79833  1.0000
  S   S28       1.0  0.13904  0.18453  0.82805  1.0000
  Fe  Fe16      1.0  0.13547  0.14818  0.77242  1.0000
  S   S29       1.0  0.11336  0.13065  0.76796  1.0000
  S   S30       1.0  0.17649  0.17906  0.77389  1.0000
  S   S31       1.0  0.16185  0.15399  0.74564  1.0000
  Fe  Fe17      1.0  0.15624  0.22191  0.57629  1.0000
  S   S32       1.0  0.12127  0.23005  0.58556  1.0000
  S   S33       1.0  0.17215  0.23139  0.54278  1.0000
  Fe  Fe18      1.0  0.16121  0.19802  0.62000  1.0000
  S   S34       1.0  0.12669  0.20376  0.63276  1.0000
  S   S35       1.0  0.18432  0.18040  0.64041  1.0000
  Fe  Fe19      1.0  0.12406  0.19632  0.60284  1.0000
  S   S36       1.0  0.10806  0.17012  0.60353  1.0000
  Fe  Fe20      1.0  0.12758  0.23676  0.61444  1.0000
  S   S37       1.0  0.11235  0.26601  0.62796  1.0000
  S   S38       1.0  0.15880  0.18791  0.59166  1.0000
  S   S39       1.0  0.16232  0.23121  0.60339  1.0000
  Fe  Fe21      1.0  0.06875  0.31247  0.86047  1.0000
  S   S40       1.0  0.03581  0.30753  0.86860  1.0000
  Fe  Fe22      1.0  0.11348  0.29979  0.83788  1.0000
  H   H112      1.0  0.18232  0.31448  0.98585  1.0000
  S   S41       1.0  0.13706  0.28162  0.81528  1.0000
  C   C93       1.0  0.08362  0.31131  0.96830  1.0000
  H   H113      1.0  0.06479  0.26564  0.90012  1.0000
  H   H114      1.0  0.20073  0.28264  0.61662  1.0000
  S   S42       1.0  0.09593  0.28800  0.87010  1.0000
  C   C94       1.0  0.01598  0.01993  0.53707  1.0000
  C   C95       1.0  0.09507  0.16839  0.50517  1.0000
  S   S43       1.0  0.06797  0.11372  0.53300  1.0000
  H   H115      1.0  0.22615  0.31848  0.91307  1.0000
  C   C96       1.0  0.09163  0.24797  0.68477  1.0000
  H   H116      1.0  0.12748  0.06731  0.79476  1.0000
  S   S44       1.0  0.19807  0.31469  0.67243  1.0000
  C   C97       1.0  0.10726  0.03632  0.62280  1.0000
  C   C98       1.0  0.13034  0.25135  0.95600  1.0000
  C   C99       1.0  0.14329  0.25534  0.98471  1.0000
  H   H117      1.0  0.12940  0.25835  0.72847  1.0000
  H   H118      1.0  0.02341  0.02107  0.54959  1.0000
  H   H119      1.0  0.00488  0.08484  0.55423  1.0000
  H   H120      1.0  0.15749  0.21602  0.51319  1.0000
  C   C100      1.0  0.21589  0.19348  0.59264  1.0000
  H   H121      1.0  0.10852  0.99401  0.62975  1.0000
  C   C101      1.0  0.09123  0.17092  0.58685  1.0000
  C   C102      1.0  0.08162  0.18988  0.57563  1.0000
  C   C103      1.0  0.06828  0.18984  0.56259  1.0000
  C   C104      1.0  0.06441  0.17089  0.56065  1.0000
  C   C105      1.0  0.07404  0.15192  0.57188  1.0000
  C   C106      1.0  0.08733  0.15197  0.58496  1.0000
  H   H122      1.0  0.08409  0.20457  0.57738  1.0000
  H   H123      1.0  0.06076  0.20457  0.55408  1.0000
  H   H124      1.0  0.09457  0.13724  0.59370  1.0000
  C   C107      1.0  0.13794  0.21167  0.82413  1.0000
  C   C108      1.0  0.12714  0.22242  0.84028  1.0000
  C   C109      1.0  0.12656  0.24397  0.83763  1.0000
  C   C110      1.0  0.13720  0.25473  0.81901  1.0000
  C   C111      1.0  0.14833  0.24390  0.80301  1.0000
  C   C112      1.0  0.14845  0.22251  0.80543  1.0000
  H   H125      1.0  0.11906  0.21410  0.85480  1.0000
  H   H126      1.0  0.11802  0.25216  0.85009  1.0000
  H   H127      1.0  0.15641  0.25222  0.78848  1.0000
  H   H128      1.0  0.15675  0.21444  0.79285  1.0000
  C   C113      1.0  0.16295  0.20446  0.70156  1.0000
  C   C114      1.0  0.17980  0.18740  0.69965  1.0000
  C   C115      1.0  0.18672  0.18007  0.68076  1.0000
  C   C116      1.0  0.17657  0.18960  0.66397  1.0000
  C   C117      1.0  0.15965  0.20634  0.66615  1.0000
  C   C118      1.0  0.15302  0.21394  0.68474  1.0000
  H   H129      1.0  0.18774  0.18009  0.71256  1.0000
  H   H130      1.0  0.19986  0.16707  0.67920  1.0000
  H   H131      1.0  0.15171  0.21364  0.65341  1.0000
  H   H132      1.0  0.14003  0.22709  0.68612  1.0000
  C   C119      1.0  0.14251  0.07848  0.73067  1.0000
  C   C120      1.0  0.15548  0.08702  0.73803  1.0000
  C   C121      1.0  0.14673  0.10296  0.74975  1.0000
  C   C122      1.0  0.12503  0.11030  0.75406  1.0000
  C   C123      1.0  0.11219  0.10151  0.74690  1.0000
  C   C124      1.0  0.12089  0.08573  0.73523  1.0000
  H   H133      1.0  0.17219  0.08131  0.73478  1.0000
  H   H134      1.0  0.15672  0.10934  0.75565  1.0000
  H   H135      1.0  0.09542  0.10697  0.75033  1.0000
  H   H136      1.0  0.11078  0.07914  0.72965  1.0000
  H   H137      1.0  0.21658  0.23241  0.69007  1.0000
  C   C125      1.0  0.09711  0.20492  0.70487  1.0000
  H   H138      1.0  0.10586  0.21607  0.72864  1.0000
  C   C126      1.0  0.20220  0.23468  0.70240  1.0000
  H   H139      1.0  0.18335  0.17396  0.84945  1.0000
  H   H140      1.0  0.07071  0.04096  0.60838  1.0000
  C   C127      1.0  0.22247  0.22616  0.72948  1.0000
  H   H141      1.0  0.09282  0.08347  0.63899  1.0000
  H   H142      1.0  0.19577  0.16009  0.82869  1.0000
  H   H143      1.0  0.22567  0.07532  0.76634  1.0000
  N   N7        1.0  0.03157  0.27307  0.98052  1.0000
  C   C128      1.0  0.11630  0.22235  0.53057  1.0000
  H   H144      1.0  0.17363  0.25653  0.72913  1.0000
  C   C129      1.0  0.22298  0.11699  0.78447  1.0000
  C   C130      1.0  0.21311  0.12479  0.80272  1.0000
  C   C131      1.0  0.22268  0.11861  0.82014  1.0000
  S   S45       1.0  0.15612  0.28208  0.69345  1.0000
  Fe  Fe23      1.0  0.20550  0.32266  0.69968  1.0000
  H   H145      1.0  0.19832  0.13578  0.80330  1.0000
  H   H146      1.0  0.21540  0.12478  0.83418  1.0000
  H   H147      1.0  0.19354  0.11040  0.64244  1.0000
  Fe  Fe24      1.0  0.22679  0.05815  0.67426  1.0000
  C   C132      1.0  0.19678  0.25300  0.55276  1.0000
  C   C133      1.0  0.18581  0.25174  0.53818  1.0000
  C   C134      1.0  0.18614  0.26660  0.51934  1.0000
  H   H148      1.0  0.15549  0.10139  0.69267  1.0000
  C   C135      1.0  0.19380  0.30744  0.81469  1.0000
  H   H149      1.0  0.08441  0.06570  0.61602  1.0000
  H   H150      1.0  0.17776  0.26569  0.50798  1.0000
  H   H151      1.0  0.21402  0.30274  0.88986  1.0000
  H   H152      1.0  0.18638  0.09169  0.79312  1.0000
  H   H153      1.0  0.04849  0.99627  0.58383  1.0000
  H   H154      1.0  0.21026  0.19813  0.79709  1.0000
  N   N8        1.0  0.21087  0.18457  0.82960  1.0000
  H   H155      1.0  0.16243  0.32013  0.53021  1.0000
  H   H156      1.0  0.23212  0.24133  0.84039  1.0000
  C   C136      1.0  0.08586  0.03659  0.59758  1.0000
  C   C137      1.0  0.20635  0.20521  0.83574  1.0000
  C   C138      1.0  0.18569  0.21655  0.84184  1.0000
  H   H157      1.0  0.01706  0.05926  0.51669  1.0000
  C   C139      1.0  0.18205  0.23619  0.84714  1.0000
  H   H158      1.0  0.05906  0.01598  0.49802  1.0000
  C   C140      1.0  0.04917  0.01183  0.51384  1.0000
  C   C141      1.0  0.12601  0.27257  0.64387  1.0000
  H   H159      1.0  0.05477  0.28563  0.98761  1.0000
  H   H160      1.0  0.10280  0.30001  0.65036  1.0000
  C   C142      1.0  0.09828  0.05390  0.49541  1.0000
  C   C143      1.0  0.22603  0.19268  0.55602  1.0000
  H   H161      1.0  0.08557  0.02611  0.54494  1.0000
  Fe  Fe25      1.0  0.21690  0.01489  0.68196  1.0000
  H   H162      1.0  0.17203  0.21065  0.84258  1.0000
  C   C144      1.0  0.23735  0.31066  0.90149  1.0000
  H   H163      1.0  0.16615  0.24463  0.85150  1.0000
  N   N9        1.0  0.20603  0.24196  0.71988  1.0000
  N   N10       1.0  0.18122  0.30399  0.59602  1.0000
  H   H164      1.0  0.23363  0.99565  0.57295  1.0000
  H   H165      1.0  0.19649  0.24718  0.92688  1.0000
  C   C145      1.0  0.16856  0.30306  0.58135  1.0000
  H   H166      1.0  0.14749  0.20024  0.54911  1.0000
  H   H167      1.0  0.20268  0.26940  0.90683  1.0000
  H   H168      1.0  0.17688  0.99934  0.67703  1.0000
  H   H169      1.0  0.22480  0.17149  0.80187  1.0000
  C   C146      1.0  0.23743  0.16108  0.58082  1.0000
  H   H170      1.0  0.17914  0.30630  0.91059  1.0000
  C   C147      1.0  0.24185  0.23063  0.72978  1.0000
  H   H171      1.0  0.14264  0.21782  0.49416  1.0000
  C   C148      1.0  0.19306  0.28161  0.94250  1.0000
  H   H172      1.0  0.20142  0.08524  0.75752  1.0000
  H   H173      1.0  0.22550  0.26263  0.69839  1.0000
  C   C149      1.0  0.07061  0.27057  0.92839  1.0000
  H   H174      1.0  0.07109  0.13725  0.57060  1.0000
  C   C150      1.0  0.14443  0.29982  0.55380  1.0000
  C   C151      1.0  0.17130  0.31404  0.56008  1.0000
  H   H175      1.0  0.11865  0.01082  0.58225  1.0000
  H   H176      1.0  0.15822  0.19297  0.50385  1.0000
  C   C152      1.0  0.15932  0.26426  0.97050  1.0000
  C   C153      1.0  0.04106  0.27109  0.95852  1.0000
  S   S46       1.0  0.17593  0.31550  0.72147  1.0000
  H   H177      1.0  0.09011  0.05113  0.58679  1.0000
  C   C154      1.0  0.02885  0.26834  0.94547  1.0000
  C   C155      1.0  0.02394  0.32342  0.92517  1.0000
  H   H178      1.0  0.18284  0.32372  0.55327  1.0000
  C   C156      1.0  0.22954  0.26636  0.76348  1.0000
  C   C157      1.0  0.18317  0.04078  0.77016  1.0000
  H   H179      1.0  0.20099  0.26721  0.95213  1.0000
  H   H180      1.0  0.07366  0.32320  0.75931  1.0000
  H   H181      1.0  0.18855  0.24986  0.74939  1.0000
  N   N11       1.0  0.23266  0.18435  0.57650  1.0000
  C   C158      1.0  0.11765  0.25168  0.76175  1.0000
  H   H182      1.0  0.22856  0.15306  0.83830  1.0000
  H   H183      1.0  0.23778  0.04093  0.63835  1.0000
  C   C159      1.0  0.06214  0.27267  0.94920  1.0000
  H   H184      1.0  0.18009  0.23000  0.74196  1.0000
  N   N12       1.0  0.02852  0.02638  0.51590  1.0000
  H   H185      1.0  0.08960  0.26437  0.67699  1.0000
  C   C160      1.0  0.09654  0.05715  0.62459  1.0000
  H   H186      1.0  0.13947  0.02979  0.65713  1.0000
  Fe  Fe26      1.0  0.16719  0.31099  0.69305  1.0000
  S   S47       1.0  0.12419  0.32416  0.84764  1.0000
  H   H187      1.0  0.12601  0.18720  0.55835  1.0000
  C   C161      1.0  0.12293  0.02684  0.63487  1.0000
  C   C162      1.0  0.10563  0.28174  0.77847  1.0000
  S   S48       1.0  0.04315  0.06509  0.56908  1.0000
  C   C163      1.0  0.20441  0.29010  0.78477  1.0000
  Fe  Fe27      1.0  0.04280  0.14269  0.53554  1.0000
  S   S49       1.0  0.04760  0.17165  0.54396  1.0000
  C   C164      1.0  0.22078  0.18680  0.80701  1.0000
  C   C165      1.0  0.00327  0.06949  0.56361  1.0000
  C   C166      1.0  0.03752  0.26603  0.92478  1.0000
  H   H188      1.0  0.02783  0.26433  0.91494  1.0000
  H   H189      1.0  0.07230  0.27589  0.95751  1.0000
  N   N13       1.0  0.17770  0.27690  0.93288  1.0000
  H   H190      1.0  0.14908  0.28308  0.60441  1.0000
  C   C167      1.0  0.01758  0.02546  0.49978  1.0000
  S   S50       1.0  0.11543  0.30788  0.90919  1.0000
  H   H191      1.0  0.22767  0.31748  0.78559  1.0000
  H   H192      1.0  0.15652  0.30691  0.93146  1.0000
  H   H193      1.0  0.18976  0.24608  0.69488  1.0000
  H   H194      1.0  0.19855  0.27441  0.70436  1.0000
  S   S51       1.0  0.22017  0.32222  0.96431  1.0000
  C   C168      1.0  0.16776  0.31550  0.61234  1.0000
  H   H195      1.0  0.12452  0.23125  0.53667  1.0000
  C   C169      1.0  0.10055  0.22034  0.71397  1.0000
  C   C170      1.0  0.08668  0.18065  0.73721  1.0000
  C   C171      1.0  0.09778  0.24154  0.70403  1.0000
  H   H196      1.0  0.18556  0.29346  0.95246  1.0000
  H   H197      1.0  0.20894  0.31402  0.59664  1.0000
  S   S52       1.0  0.01660  0.12519  0.55118  1.0000
  H   H198      1.0  0.10216  0.21924  0.54267  1.0000
  H   H199      1.0  0.12081  0.23482  0.76283  1.0000
  C   C172      1.0  0.12219  0.17472  0.71766  1.0000
  H   H200      1.0  0.13371  0.00736  0.49440  1.0000
  N   N14       1.0  0.19697  0.31055  0.79147  1.0000
  C   C173      1.0  0.19897  0.31469  0.58552  1.0000
  H   H201      1.0  0.15845  0.29438  0.91041  1.0000
  H   H202      1.0  0.08573  0.16017  0.50037  1.0000
  H   H203      1.0  0.18050  0.27483  0.80726  1.0000
  C   C174      1.0  0.23317  0.12670  0.60320  1.0000
  C   C175      1.0  0.10440  0.15890  0.52238  1.0000
  H   H204      1.0  0.00003  0.02996  0.53909  1.0000
  H   H205      1.0  0.09975  0.28732  0.79302  1.0000
  H   H206      1.0  0.01425  0.00338  0.54027  1.0000
  H   H207      1.0  0.14967  0.17595  0.54182  1.0000
  H   H208      1.0  0.18112  0.18591  0.82260  1.0000
  C   C176      1.0  0.11812  0.19046  0.51887  1.0000
  H   H209      1.0  0.23011  0.29850  0.75862  1.0000
  C   C177      1.0  0.21658  0.12109  0.70473  1.0000
  H   H210      1.0  0.21397  0.26985  0.72363  1.0000
  H   H211      1.0  0.13555  0.29820  0.54318  1.0000
  H   H212      1.0  0.19919  0.27281  0.59463  1.0000
  C   C178      1.0  0.05840  0.26693  0.91634  1.0000
  H   H213      1.0  0.20554  0.28842  0.93046  1.0000
  Fe  Fe28      1.0  0.10404  0.31444  0.87906  1.0000
  H   H214      1.0  0.21467  0.12480  0.65432  1.0000
  S   S53       1.0  0.23603  0.27992  0.85763  1.0000
  H   H215      1.0  0.04778  0.99520  0.51624  1.0000
  H   H216      1.0  0.08659  0.27230  0.92143  1.0000
  H   H217      1.0  0.20520  0.20075  0.73872  1.0000
  H   H218      1.0  0.09146  0.99624  0.61278  1.0000
  C   C179      1.0  0.12175  0.01870  0.59351  1.0000
  C   C180      1.0  0.21143  0.07080  0.76489  1.0000
  Fe  Fe29      1.0  0.01299  0.12614  0.51847  1.0000
  C   C181      1.0  0.14782  0.20751  0.50844  1.0000
  S   S54       1.0  0.22035  0.30556  0.52481  1.0000
  C   C182      1.0  0.19015  0.28243  0.60644  1.0000
  S   S55       1.0  0.03654  0.14661  0.50324  1.0000
  S   S56       1.0  0.03593  0.09626  0.51537  1.0000
  H   H219      1.0  0.08422  0.23839  0.65994  1.0000
  N   N15       1.0  0.10263  0.02456  0.60922  1.0000
  N   N16       1.0  0.10005  0.18259  0.71582  1.0000
  H   H220      1.0  0.10495  0.16840  0.68909  1.0000
  H   H221      1.0  0.08224  0.00878  0.63501  1.0000
  H   H222      1.0  0.21176  0.18726  0.55604  1.0000
  H   H223      1.0  0.17680  0.31718  0.62337  1.0000
  C   C183      1.0  0.09646  0.31577  0.93058  1.0000
  H   H224      1.0  0.16460  0.31140  0.79253  1.0000
  C   C184      1.0  0.12104  0.01955  0.49973  1.0000
  C   C185      1.0  0.12748  0.03745  0.64800  1.0000
  C   C186      1.0  0.11662  0.05777  0.64952  1.0000
  H   H225      1.0  0.12806  0.03280  0.58421  1.0000
  H   H226      1.0  0.22777  0.11999  0.71422  1.0000
  H   H227      1.0  0.15731  0.07693  0.80073  1.0000
  C   C187      1.0  0.13863  0.19084  0.54453  1.0000
  H   H228      1.0  0.13284  0.17656  0.70197  1.0000
  H   H229      1.0  0.16923  0.25351  0.66541  1.0000
  N   N17       1.0  0.17187  0.12258  0.66820  1.0000
  C   C188      1.0  0.18052  0.12398  0.64538  1.0000
  C   C189      1.0  0.16457  0.10247  0.67636  1.0000
  C   C190      1.0  0.15349  0.14004  0.67084  1.0000
  C   C191      1.0  0.18724  0.12325  0.68018  1.0000
  C   C192      1.0  0.18125  0.12224  0.70213  1.0000
  C   C193      1.0  0.20856  0.12382  0.67090  1.0000
  C   C194      1.0  0.19581  0.12077  0.71420  1.0000
  C   C195      1.0  0.20805  0.28415  0.52971  1.0000
  C   C196      1.0  0.08781  0.04914  0.51626  1.0000
  C   C197      1.0  0.02285  0.31491  0.89259  1.0000
  H   H230      1.0  0.16855  0.12383  0.63673  1.0000
  H   H231      1.0  0.18625  0.13882  0.63818  1.0000
  H   H232      1.0  0.22676  0.02554  0.62783  1.0000
  H   H233      1.0  0.15419  0.10034  0.66693  1.0000
  H   H234      1.0  0.18644  0.06989  0.81558  1.0000
  H   H235      1.0  0.14431  0.13830  0.68719  1.0000
  H   H236      1.0  0.15838  0.15536  0.66685  1.0000
  H   H237      1.0  0.14253  0.14104  0.66058  1.0000
  H   H238      1.0  0.16530  0.12216  0.71016  1.0000
  C   C198      1.0  0.14310  0.05956  0.78831  1.0000
  H   H239      1.0  0.19106  0.11922  0.73105  1.0000
  C   C199      1.0  0.19686  0.28300  0.51532  1.0000
  H   H240      1.0  0.20925  0.30725  0.57245  1.0000
  N   N18       1.0  0.10657  0.31869  0.75810  1.0000
  H   H241      1.0  0.20813  0.29788  0.82039  1.0000
  C   C200      1.0  0.13434  0.31841  0.97651  1.0000
  C   C201      1.0  0.22535  0.16895  0.84204  1.0000
  H   H242      1.0  0.20571  0.03368  0.80978  1.0000
  C   C202      1.0  0.09591  0.00509  0.62229  1.0000
  C   C203      1.0  0.23410  0.19047  0.74898  1.0000
  H   H243      1.0  0.19662  0.24160  0.56730  1.0000
  H   H244      1.0  0.13436  0.00749  0.60088  1.0000
  N   N19       1.0  0.20001  0.06109  0.78554  1.0000
  H   H245      1.0  0.17796  0.08886  0.67652  1.0000
  S   S57       1.0  0.20243  0.01511  0.71600  1.0000
  C   C204      1.0  0.12744  0.29414  0.66756  1.0000
  C   C205      1.0  0.19530  0.07608  0.79979  1.0000
  N   N20       1.0  0.13001  0.20242  0.52562  1.0000
  C   C206      1.0  0.15948  0.31223  0.54656  1.0000
  H   H246      1.0  0.21675  0.06003  0.75366  1.0000
  C   C207      1.0  0.09379  0.02965  0.52879  1.0000
  C   C208      1.0  0.19875  0.24503  0.84673  1.0000
  C   C209      1.0  0.10124  0.06762  0.63780  1.0000
  H   H247      1.0  0.22810  0.04551  0.79733  1.0000
  H   H248      1.0  0.19833  0.03336  0.76244  1.0000
  C   C210      1.0  0.23050  0.30151  0.88859  1.0000
  C   C211      1.0  0.00099  0.31974  0.89761  1.0000
  C   C212      1.0  0.14518  0.26018  0.64757  1.0000
  H   H249      1.0  0.15225  0.24721  0.63985  1.0000
  C   C213      1.0  0.22759  0.14865  0.59935  1.0000
  H   H250      1.0  0.19672  0.21961  0.70777  1.0000
  C   C214      1.0  0.15500  0.26405  0.66184  1.0000
  H   H251      1.0  0.17979  0.26019  0.90850  1.0000
  Fe  Fe30      1.0  0.04148  0.09643  0.54657  1.0000
  H   H252      1.0  0.12695  0.18340  0.72709  1.0000
  H   H253      1.0  0.17800  0.27400  0.61688  1.0000
  C   C215      1.0  0.18961  0.26281  0.91818  1.0000
  H   H254      1.0  0.99657  0.01454  0.59738  1.0000
  C   C216      1.0  0.01690  0.03698  0.58563  1.0000
  H   H255      1.0  0.12515  0.15783  0.72557  1.0000
  C   C217      1.0  0.18633  0.24465  0.73583  1.0000
  H   H256      1.0  0.09679  0.15201  0.71382  1.0000
  C   C218      1.0  0.11021  0.29580  0.75899  1.0000
  H   H257      1.0  0.08851  0.20152  0.67661  1.0000
  H   H258      1.0  0.08722  0.16392  0.74539  1.0000
  C   C219      1.0  0.14567  0.04484  0.77607  1.0000
  C   C220      1.0  0.14597  0.28074  0.67224  1.0000
  H   H259      1.0  0.13175  0.01104  0.63431  1.0000
  H   H260      1.0  0.11667  0.31524  0.78703  1.0000
  H   H261      1.0  0.16754  0.02458  0.75691  1.0000
  C   C221      1.0  0.14617  0.26045  0.94165  1.0000
  H   H262      1.0  0.14608  0.26297  0.92514  1.0000
  C   C222      1.0  0.11871  0.28672  0.74092  1.0000
  C   C223      1.0  0.08847  0.23325  0.67523  1.0000
  H   H263      1.0  0.10090  0.25298  0.71103  1.0000
  C   C224      1.0  0.20830  0.26891  0.54830  1.0000
  C   C225      1.0  0.11750  0.29007  0.65337  1.0000
  C   C226      1.0  0.09472  0.16861  0.70491  1.0000
  C   C227      1.0  0.10905  0.26007  0.77972  1.0000
  C   C228      1.0  0.16565  0.03552  0.76697  1.0000
  C   C229      1.0  0.19194  0.17582  0.83282  1.0000
  H   H264      1.0  0.10555  0.24965  0.79484  1.0000
  C   C230      1.0  0.19429  0.27304  0.79507  1.0000
  H   H265      1.0  0.19597  0.26019  0.85093  1.0000
  C   C231      1.0  0.16051  0.06500  0.79156  1.0000
  H   H266      1.0  0.07007  0.18805  0.73660  1.0000
  H   H267      1.0  0.09168  0.18806  0.74762  1.0000
  C   C232      1.0  0.12247  0.26497  0.74242  1.0000
  C   C233      1.0  0.21913  0.23439  0.84077  1.0000
  H   H268      1.0  0.21986  0.03040  0.78400  1.0000
  H   H269      1.0  0.21573  0.15549  0.61121  1.0000
  C   C234      1.0  0.09895  0.30592  0.95103  1.0000
  C   C235      1.0  0.09113  0.21200  0.68503  1.0000
  H   H270      1.0  0.12281  0.29602  0.72542  1.0000
  H   H271      1.0  0.11484  0.99961  0.53036  1.0000
  C   C236      1.0  0.21926  0.20547  0.73900  1.0000
  C   C237      1.0  0.99843  0.02982  0.58790  1.0000
  H   H272      1.0  0.03288  0.32454  0.93586  1.0000
  C   C238      1.0  0.16760  0.29693  0.92078  1.0000
  H   H273      1.0  0.11263  0.29396  0.95359  1.0000
  H   H274      1.0  0.05783  0.01216  0.52578  1.0000
  H   H275      1.0  0.21692  0.26974  0.55943  1.0000
  H   H276      1.0  0.13214  0.04117  0.77302  1.0000
  H   H277      1.0  0.23601  0.00256  0.60608  1.0000
  H   H278      1.0  0.20982  0.07906  0.80237  1.0000
  H   H279      1.0  0.12023  0.30701  0.67563  1.0000
  C   C239      1.0  0.18117  0.05562  0.78266  1.0000
  C   C240      1.0  0.21396  0.04184  0.79456  1.0000
  H   H280      1.0  0.12886  0.28011  0.58054  1.0000
  H   H281      1.0  0.12011  0.06586  0.65986  1.0000
  H   H282      1.0  0.23548  0.19268  0.80335  1.0000
  H   H283      1.0  0.04224  0.05328  0.49938  1.0000
  Fe  Fe31      1.0  0.05976  0.11641  0.50194  1.0000
  H   H284      1.0  0.19442  0.24025  0.79885  1.0000
  C   C241      1.0  0.17681  0.32094  0.78505  1.0000
  C   C242      1.0  0.20208  0.25313  0.79025  1.0000
  C   C243      1.0  0.22290  0.12281  0.68311  1.0000
  H   H285      1.0  0.23124  0.17475  0.75614  1.0000
  H   H286      1.0  0.19659  0.29475  0.50096  1.0000
  H   H287      1.0  0.11884  0.24675  0.95038  1.0000
  C   C244      1.0  0.21138  0.26304  0.71126  1.0000
  H   H288      1.0  0.20101  0.18859  0.59407  1.0000
  S   S58       1.0  0.23603  0.30869  0.71027  1.0000
  C   C245      1.0  0.14083  0.28950  0.57474  1.0000
  C   C246      1.0  0.11027  0.01484  0.52053  1.0000
  H   H289      1.0  0.11085  0.23311  0.51664  1.0000
  H   H290      1.0  0.08272  0.02731  0.58756  1.0000
  H   H291      1.0  0.21879  0.16740  0.85919  1.0000
  H   H292      1.0  0.21261  0.21095  0.58878  1.0000
  H   H293      1.0  0.18056  0.29954  0.82313  1.0000
  H   H294      1.0  0.00397  0.29519  0.97261  1.0000
  C   C247      1.0  0.22002  0.24965  0.77491  1.0000
  C   C248      1.0  0.12022  0.32270  0.77015  1.0000
  H   H295      1.0  0.18997  0.32264  0.81997  1.0000
  H   H296      1.0  0.07510  0.06069  0.52281  1.0000
  C   C249      1.0  0.15260  0.29119  0.58833  1.0000
  C   C250      1.0  0.11566  0.16970  0.52932  1.0000
  H   H297      1.0  0.22240  0.21019  0.55220  1.0000
  H   H298      1.0  0.12170  0.16162  0.54327  1.0000
  Fe  Fe32      1.0  0.22895  0.02963  0.71641  1.0000
  S   S59       1.0  0.08541  0.32187  0.82721  1.0000
  H   H299      1.0  0.17847  0.32339  0.76774  1.0000
  H   H300      1.0  0.15493  0.30743  0.62200  1.0000
  C   C251      1.0  0.10861  0.19956  0.50120  1.0000
  H   H301      1.0  0.22577  0.11743  0.61748  1.0000
  C   C252      1.0  0.15460  0.32174  0.97305  1.0000
  H   H302      1.0  0.10211  0.14336  0.53093  1.0000
  H   H303      1.0  0.13696  0.31641  0.76397  1.0000
  C   C253      1.0  0.03209  0.04763  0.51459  1.0000
  H   H304      1.0  0.22985  0.05148  0.61364  1.0000
  H   H305      1.0  0.02527  0.30683  0.97189  1.0000
  H   H306      1.0  0.05110  0.31254  0.90302  1.0000
  H   H307      1.0  0.03996  0.04778  0.52724  1.0000
  C   C254      1.0  0.21185  0.32498  0.78217  1.0000
  H   H308      1.0  0.08022  0.31948  0.78440  1.0000
  C   C255      1.0  0.03427  0.31675  0.90643  1.0000
  H   H309      1.0  0.23826  0.18775  0.54268  1.0000
  H   H310      1.0  0.22026  0.18884  0.60832  1.0000
  H   H311      1.0  0.16963  0.26929  0.97726  1.0000
  C   C256      1.0  0.01254  0.00627  0.49946  1.0000
  C   C257      1.0  0.23731  0.03692  0.62346  1.0000
  H   H312      1.0  0.23906  0.20749  0.83036  1.0000
  C   C258      1.0  0.01708  0.29370  0.98044  1.0000
  C   C259      1.0  0.12889  0.24884  0.97750  1.0000
  H   H313      1.0  0.02934  0.24043  0.98871  1.0000
  H   H314      1.0  0.01236  0.26845  0.95099  1.0000
  H   H315      1.0  0.10968  0.21529  0.49253  1.0000
  C   C260      1.0  0.09720  0.18867  0.49457  1.0000
  H   H316      1.0  0.08508  0.30295  0.98396  1.0000
  C   C261      1.0  0.16673  0.31201  0.98826  1.0000
  S   S60       1.0  0.24058  0.08208  0.64812  1.0000
  H   H317      1.0  0.00494  0.25839  0.98586  1.0000
  H   H318      1.0  0.23910  0.12307  0.67581  1.0000
  C   C262      1.0  0.24176  0.10231  0.78393  1.0000
  H   H319      1.0  0.01662  0.99208  0.51084  1.0000
  H   H320      1.0  0.24090  0.17308  0.83893  1.0000
  C   C263      1.0  0.24208  0.10484  0.81913  1.0000
  H   H321      1.0  0.11641  0.24216  0.98863  1.0000
  Fe  Fe33      1.0  0.12502  0.46364  0.06698  1.0000
  S   S61       1.0  0.11935  0.45153  0.10164  1.0000
  S   S62       1.0  0.09898  0.48782  0.05458  1.0000
  Fe  Fe34      1.0  0.16949  0.43873  0.06093  1.0000
  S   S63       1.0  0.16736  0.42487  0.09528  1.0000
  S   S64       1.0  0.19774  0.43340  0.03557  1.0000
  Fe  Fe35      1.0  0.13586  0.42035  0.09325  1.0000
  C   C264      1.0  0.01527  0.44780  0.12690  1.0000
  Fe  Fe36      1.0  0.15117  0.45778  0.09984  1.0000
  S   S65       1.0  0.15259  0.48041  0.11959  1.0000
  S   S66       1.0  0.13941  0.43225  0.05856  1.0000
  S   S67       1.0  0.15561  0.47162  0.06535  1.0000
  Fe  Fe37      1.0  0.22875  0.52631  0.16310  1.0000
  S   S68       1.0  0.21943  0.56080  0.14978  1.0000
  S   S69       1.0  0.22908  0.50158  0.14492  1.0000
  C   C265      1.0  0.15975  0.52240  0.03017  1.0000
  H   H322      1.0  0.22123  0.53288  0.05707  1.0000
  C   C266      1.0  0.22621  0.53454  0.29058  1.0000
  Fe  Fe38      1.0  0.20575  0.56360  0.18323  1.0000
  S   S70       1.0  0.17549  0.58586  0.19168  1.0000
  H   H323      1.0  0.03737  0.36455  0.01148  1.0000
  S   S71       1.0  0.21282  0.52892  0.19651  1.0000
  C   C267      1.0  0.21541  0.64058  0.31577  1.0000
  H   H324      1.0  0.24095  0.63857  0.08677  1.0000
  H   H325      1.0  0.02705  0.49538  0.12200  1.0000
  S   S72       1.0  0.17551  0.61446  0.27405  1.0000
  C   C268      1.0  0.21571  0.38620  0.00409  1.0000
  H   H326      1.0  0.00564  0.33024  0.01695  1.0000
  C   C269      1.0  0.12716  0.34881  0.03206  1.0000
  H   H327      1.0  0.13494  0.57333  0.01877  1.0000
  S   S73       1.0  0.03663  0.61262  0.03791  1.0000
  C   C270      1.0  0.03863  0.41732  0.08781  1.0000
  H   H328      1.0  0.23286  0.52553  0.02168  1.0000
  C   C271      1.0  0.20718  0.50585  0.07006  1.0000
  H   H329      1.0  0.19461  0.47782  0.07870  1.0000
  H   H330      1.0  0.21164  0.62648  0.23641  1.0000
  C   C272      1.0  0.09983  0.39748  0.07636  1.0000
  H   H331      1.0  0.05885  0.47945  0.09898  1.0000
  C   C273      1.0  0.02067  0.39904  0.02853  1.0000
  C   C274      1.0  0.22793  0.62052  0.32013  1.0000
  H   H332      1.0  0.22584  0.61875  0.09293  1.0000
  H   H333      1.0  0.20341  0.61129  0.12661  1.0000
  H   H334      1.0  0.12984  0.38427  0.04243  1.0000
  H   H335      1.0  0.01117  0.53700  0.02232  1.0000
  H   H336      1.0  0.22073  0.60696  0.32648  1.0000
  N   N21       1.0  0.21992  0.63696  0.11685  1.0000
  S   S74       1.0  0.06163  0.36726  0.06287  1.0000
  C   C275      1.0  0.17510  0.59404  0.21455  1.0000
  C   C276      1.0  0.18947  0.58293  0.22712  1.0000
  C   C277      1.0  0.18958  0.58945  0.24523  1.0000
  C   C278      1.0  0.17541  0.60727  0.25080  1.0000
  C   C279      1.0  0.16109  0.61860  0.23815  1.0000
  C   C280      1.0  0.16068  0.61171  0.22021  1.0000
  H   H337      1.0  0.20036  0.56913  0.22294  1.0000
  H   H338      1.0  0.20075  0.58066  0.25483  1.0000
  H   H339      1.0  0.15014  0.63240  0.24236  1.0000
  H   H340      1.0  0.14951  0.62024  0.21048  1.0000
  H   H341      1.0  0.16045  0.55039  0.03976  1.0000
  H   H342      1.0  0.08331  0.50856  0.09513  1.0000
  S   S75       1.0  0.03317  0.44619  0.03640  1.0000
  H   H343      1.0  0.11024  0.35148  0.11097  1.0000
  S   S76       1.0  0.08221  0.58413  0.02081  1.0000
  C   C281      1.0  0.20250  0.40842  0.02982  1.0000
  C   C282      1.0  0.19948  0.39073  0.04570  1.0000
  C   C283      1.0  0.20530  0.37064  0.04080  1.0000
  H   H344      1.0  0.23497  0.52087  0.28427  1.0000
  H   H345      1.0  0.19330  0.39247  0.06181  1.0000
  H   H346      1.0  0.20345  0.35689  0.05312  1.0000
  S   S77       1.0  0.04544  0.55169  0.06282  1.0000
  C   C284      1.0  0.17417  0.48592  0.12645  1.0000
  C   C285      1.0  0.19438  0.47383  0.12250  1.0000
  C   C286      1.0  0.21096  0.47891  0.12819  1.0000
  C   C287      1.0  0.20755  0.49595  0.13810  1.0000
  C   C288      1.0  0.18734  0.50803  0.14203  1.0000
  C   C289      1.0  0.17079  0.50303  0.13623  1.0000
  H   H347      1.0  0.19722  0.46039  0.11537  1.0000
  H   H348      1.0  0.22648  0.46937  0.12516  1.0000
  H   H349      1.0  0.18442  0.52115  0.14967  1.0000
  H   H350      1.0  0.15523  0.51241  0.13954  1.0000
  H   H351      1.0  0.10293  0.41319  0.07180  1.0000
  C   C290      1.0  0.05128  0.45838  0.04088  1.0000
  C   C291      1.0  0.04477  0.47686  0.04876  1.0000
  C   C292      1.0  0.05964  0.48628  0.05215  1.0000
  C   C293      1.0  0.08081  0.47662  0.04884  1.0000
  C   C294      1.0  0.08728  0.45817  0.04093  1.0000
  C   C295      1.0  0.07258  0.44935  0.03651  1.0000
  H   H352      1.0  0.02836  0.48393  0.05226  1.0000
  H   H353      1.0  0.05472  0.50075  0.05789  1.0000
  H   H354      1.0  0.10364  0.45088  0.03787  1.0000
  H   H355      1.0  0.07771  0.43533  0.02998  1.0000
  N   N22       1.0  0.19369  0.53084  0.28130  1.0000
  C   C296      1.0  0.17202  0.54204  0.27950  1.0000
  C   C297      1.0  0.20537  0.52762  0.26005  1.0000
  C   C298      1.0  0.19249  0.51001  0.29527  1.0000
  C   C299      1.0  0.20472  0.54212  0.28995  1.0000
  H   H356      1.0  0.01247  0.41518  0.03032  1.0000
  C   C300      1.0  0.19456  0.56028  0.29852  1.0000
  H   H357      1.0  0.19836  0.62701  0.14564  1.0000
  C   C301      1.0  0.20531  0.57001  0.30729  1.0000
  C   C302      1.0  0.22283  0.62403  0.20462  1.0000
  H   H358      1.0  0.17175  0.55795  0.26933  1.0000
  H   H359      1.0  0.16439  0.53354  0.27234  1.0000
  H   H360      1.0  0.16187  0.54367  0.29511  1.0000
  H   H361      1.0  0.00835  0.57396  0.04649  1.0000
  H   H362      1.0  0.19862  0.64241  0.31893  1.0000
  H   H363      1.0  0.05819  0.38697  0.11492  1.0000
  H   H364      1.0  0.18397  0.51169  0.31145  1.0000
  H   H365      1.0  0.18431  0.50094  0.28936  1.0000
  C   C303      1.0  0.07299  0.65258  0.05819  1.0000
  H   H366      1.0  0.02112  0.48482  0.00620  1.0000
  H   H367      1.0  0.17839  0.56760  0.29834  1.0000
  C   C304      1.0  0.20967  0.48351  0.04600  1.0000
  H   H368      1.0  0.19727  0.58403  0.31345  1.0000
  H   H369      1.0  0.19610  0.52253  0.25143  1.0000
  H   H370      1.0  0.20214  0.50917  0.08576  1.0000
  H   H371      1.0  0.16078  0.35407  0.09985  1.0000
  C   C305      1.0  0.10834  0.38301  0.09254  1.0000
  S   S78       1.0  0.12374  0.39008  0.10635  1.0000
  C   C306      1.0  0.21046  0.40611  0.00908  1.0000
  H   H372      1.0  0.00933  0.46088  0.99225  1.0000
  H   H373      1.0  0.99628  0.42870  0.00454  1.0000
  H   H374      1.0  0.13929  0.38459  0.01490  1.0000
  C   C307      1.0  0.00753  0.52553  0.01507  1.0000
  H   H375      1.0  0.11349  0.35247  0.04480  1.0000
  S   S79       1.0  0.22153  0.34343  0.01364  1.0000
  H   H376      1.0  0.12855  0.65468  0.19673  1.0000
  C   C308      1.0  0.22538  0.62129  0.22521  1.0000
  C   C309      1.0  0.21354  0.36839  0.01998  1.0000
  H   H377      1.0  0.15730  0.38271  0.03077  1.0000
  H   H378      1.0  0.12353  0.65119  0.03283  1.0000
  C   C310      1.0  0.22065  0.49676  0.02913  1.0000
  C   C311      1.0  0.21083  0.62043  0.13325  1.0000
  H   H379      1.0  0.12287  0.35756  0.01682  1.0000
  H   H380      1.0  0.21750  0.62394  0.26757  1.0000
  H   H381      1.0  0.19539  0.64482  0.09916  1.0000
  C   C312      1.0  0.22859  0.60861  0.26864  1.0000
  C   C313      1.0  0.21794  0.51914  0.05390  1.0000
  H   H382      1.0  0.21022  0.54225  0.25016  1.0000
  C   C314      1.0  0.20303  0.48813  0.06609  1.0000
  Fe  Fe39      1.0  0.02992  0.61441  0.00618  1.0000
  N   N23       1.0  0.10470  0.52858  0.09281  1.0000
  C   C315      1.0  0.12215  0.51469  0.08146  1.0000
  C   C316      1.0  0.10458  0.52178  0.11563  1.0000
  C   C317      1.0  0.08502  0.52523  0.08938  1.0000
  C   C318      1.0  0.10755  0.55060  0.08543  1.0000
  C   C319      1.0  0.12544  0.55632  0.08804  1.0000
  C   C320      1.0  0.09297  0.56688  0.07558  1.0000
  C   C321      1.0  0.12836  0.57706  0.08148  1.0000
  C   C322      1.0  0.09605  0.58756  0.06911  1.0000
  C   C323      1.0  0.11366  0.59266  0.07206  1.0000
  H   H383      1.0  0.13755  0.51485  0.08440  1.0000
  H   H384      1.0  0.12025  0.49807  0.08658  1.0000
  H   H385      1.0  0.12277  0.51922  0.06423  1.0000
  H   H386      1.0  0.11978  0.52144  0.11938  1.0000
  H   H387      1.0  0.10181  0.50546  0.12180  1.0000
  H   H388      1.0  0.09223  0.53241  0.12471  1.0000
  H   H389      1.0  0.08465  0.52884  0.07235  1.0000
  H   H390      1.0  0.07099  0.53501  0.09761  1.0000
  H   H391      1.0  0.13720  0.54477  0.09540  1.0000
  H   H392      1.0  0.07894  0.56414  0.07279  1.0000
  H   H393      1.0  0.14194  0.58116  0.08396  1.0000
  H   H394      1.0  0.08462  0.59982  0.06183  1.0000
  H   H395      1.0  0.11578  0.60881  0.06715  1.0000
  C   C324      1.0  0.08130  0.37202  0.07305  1.0000
  C   C325      1.0  0.02886  0.47952  0.11984  1.0000
  H   H396      1.0  0.07939  0.40342  0.05466  1.0000
  C   C326      1.0  0.02138  0.54497  0.06556  1.0000
  H   H397      1.0  0.15627  0.49704  0.01892  1.0000
  C   C327      1.0  0.10372  0.36280  0.09848  1.0000
  C   C328      1.0  0.08637  0.39198  0.06673  1.0000
  Fe  Fe40      1.0  0.05007  0.57887  0.03616  1.0000
  H   H398      1.0  0.21983  0.51529  0.26053  1.0000
  C   C329      1.0  0.99919  0.51923  0.07901  1.0000
  H   H399      1.0  0.04044  0.40146  0.08452  1.0000
  C   C330      1.0  0.04547  0.41419  0.99965  1.0000
  H   H400      1.0  0.20753  0.63049  0.20081  1.0000
  H   H401      1.0  0.16826  0.32885  0.02266  1.0000
  C   C331      1.0  0.15385  0.54378  0.03045  1.0000
  H   H402      1.0  0.04609  0.50603  0.00007  1.0000
  C   C332      1.0  0.01314  0.46823  0.12970  1.0000
  H   H403      1.0  0.20825  0.50018  0.29652  1.0000
  C   C333      1.0  0.00586  0.55868  0.05554  1.0000
  H   H404      1.0  0.09702  0.54128  0.99579  1.0000
  C   C334      1.0  0.09041  0.35723  0.08864  1.0000
  Fe  Fe41      1.0  0.16900  0.64928  0.27233  1.0000
  H   H405      1.0  0.22976  0.45895  0.01551  1.0000
  N   N24       1.0  0.22768  0.49258  0.00758  1.0000
  C   C335      1.0  0.20292  0.65219  0.10756  1.0000
  H   H406      1.0  0.06955  0.40945  0.10935  1.0000
  H   H407      1.0  0.00918  0.38852  0.03378  1.0000
  H   H408      1.0  0.08655  0.34180  0.09374  1.0000
  N   N25       1.0  0.01793  0.52743  0.99257  1.0000
  N   N26       1.0  0.14603  0.35414  0.03522  1.0000
  H   H409      1.0  0.05250  0.42360  0.07817  1.0000
  H   H410      1.0  0.01593  0.56058  0.99023  1.0000
  C   C336      1.0  0.01788  0.52542  0.07753  1.0000
  C   C337      1.0  0.13587  0.52633  0.00667  1.0000
  H   H411      1.0  0.02480  0.42750  0.08177  1.0000
  C   C338      1.0  0.14294  0.37744  0.03074  1.0000
  C   C339      1.0  0.22457  0.51474  0.03372  1.0000
  C   C340      1.0  0.22236  0.47323  0.00531  1.0000
  H   H412      1.0  0.17103  0.51245  0.03926  1.0000
  H   H413      1.0  0.22243  0.52534  0.99191  1.0000
  C   C341      1.0  0.01789  0.40222  0.99222  1.0000
  C   C342      1.0  0.13087  0.54817  0.00667  1.0000
  Fe  Fe42      1.0  0.00015  0.45634  0.05294  1.0000
  S   S80       1.0  0.04138  0.58007  0.00593  1.0000
  C   C343      1.0  0.23035  0.64793  0.12645  1.0000
  H   H414      1.0  0.15466  0.37170  0.06532  1.0000
  H   H415      1.0  0.02981  0.51497  0.08540  1.0000
  H   H416      1.0  0.03127  0.39423  0.03993  1.0000
  C   C344      1.0  0.10264  0.52410  0.00052  1.0000
  C   C345      1.0  0.00002  0.41883  0.99316  1.0000
  S   S81       1.0  0.09301  0.63401  0.02389  1.0000
  C   C346      1.0  0.22635  0.56202  0.30784  1.0000
  H   H417      1.0  0.10915  0.63563  0.26868  1.0000
  H   H418      1.0  0.12937  0.33194  0.03169  1.0000
  H   H419      1.0  0.05792  0.37579  0.99260  1.0000
  Fe  Fe43      1.0  0.07207  0.58913  0.99053  1.0000
  C   C347      1.0  0.15099  0.51370  0.01846  1.0000
  H   H420      1.0  0.20595  0.46948  0.04415  1.0000
  H   H421      1.0  0.12636  0.48710  0.01494  1.0000
  H   H422      1.0  0.09713  0.51970  0.01781  1.0000
  H   H423      1.0  0.16153  0.35194  0.00337  1.0000
  C   C348      1.0  0.10924  0.65468  0.04414  1.0000
  N   N27       1.0  0.03623  0.41656  0.11049  1.0000
  C   C349      1.0  0.05526  0.40324  0.11767  1.0000
  C   C350      1.0  0.01848  0.40606  0.12178  1.0000
  N   N28       1.0  0.12573  0.51769  0.99456  1.0000
  C   C351      1.0  0.03338  0.43811  0.11395  1.0000
  H   H424      1.0  0.22303  0.60916  0.14120  1.0000
  C   C352      1.0  0.04903  0.45017  0.10401  1.0000
  C   C353      1.0  0.14982  0.34410  0.05660  1.0000
  C   C354      1.0  0.04674  0.47054  0.10696  1.0000
  H   H425      1.0  0.05608  0.37374  0.01974  1.0000
  H   H426      1.0  0.05399  0.40215  0.13472  1.0000
  H   H427      1.0  0.17235  0.64659  0.19417  1.0000
  C   C355      1.0  0.04648  0.37714  0.00759  1.0000
  H   H428      1.0  0.01597  0.40439  0.13907  1.0000
  H   H429      1.0  0.02120  0.38992  0.11875  1.0000
  C   C356      1.0  0.16426  0.34627  0.01968  1.0000
  H   H430      1.0  0.23459  0.56957  0.31474  1.0000
  H   H431      1.0  0.05913  0.64753  0.05784  1.0000
  S   S82       1.0  0.23465  0.56971  0.18883  1.0000
  C   C357      1.0  0.21774  0.51037  0.99286  1.0000
  H   H432      1.0  0.06314  0.44400  0.09371  1.0000
  N   N29       1.0  0.03236  0.39810  0.00673  1.0000
  H   H433      1.0  0.01271  0.50990  0.02476  1.0000
  H   H434      1.0  0.22063  0.59655  0.26737  1.0000
  H   H435      1.0  0.17836  0.35144  0.02040  1.0000
  H   H436      1.0  0.20514  0.47417  0.00913  1.0000
  Fe  Fe44      1.0  0.06850  0.61833  0.02002  1.0000
  Fe  Fe45      1.0  0.06321  0.33589  0.05518  1.0000
  H   H437      1.0  0.00234  0.44009  0.13479  1.0000
  C   C358      1.0  0.15428  0.35517  0.06982  1.0000
  H   H438      1.0  0.23148  0.60484  0.28486  1.0000
  C   C359      1.0  0.23714  0.65597  0.02174  1.0000
  H   H439      1.0  0.11355  0.64138  0.23094  1.0000
  C   C360      1.0  0.09138  0.64797  0.04348  1.0000
  C   C361      1.0  0.13949  0.55666  0.01864  1.0000
  C   C362      1.0  0.10349  0.65115  0.25998  1.0000
  H   H440      1.0  0.99663  0.50413  0.08834  1.0000
  S   S83       1.0  0.08392  0.33155  0.02429  1.0000
  S   S84       1.0  0.03566  0.32902  0.04697  1.0000
  H   H441      1.0  0.23386  0.63982  0.02639  1.0000
  C   C363      1.0  0.22458  0.65820  0.30784  1.0000
  H   H442      1.0  0.21266  0.41977  0.99683  1.0000
  H   H443      1.0  0.10336  0.64842  0.19931  1.0000
  C   C364      1.0  0.15799  0.34512  0.08984  1.0000
  H   H444      1.0  0.04607  0.53311  0.99771  1.0000
  C   C365      1.0  0.23413  0.62679  0.09985  1.0000
  C   C366      1.0  0.10598  0.65475  0.23814  1.0000
  C   C367      1.0  0.23976  0.61807  0.18906  1.0000
  H   H445      1.0  0.23767  0.61983  0.17320  1.0000
  H   H446      1.0  0.03585  0.43030  0.99930  1.0000
  H   H447      1.0  0.20039  0.51287  0.99738  1.0000
  H   H448      1.0  0.05632  0.41196  0.01043  1.0000
  H   H449      1.0  0.00375  0.41483  0.11652  1.0000
  C   C368      1.0  0.04085  0.52213  0.99113  1.0000
  H   H450      1.0  0.09448  0.51661  0.99290  1.0000
  C   C369      1.0  0.23681  0.54442  0.29936  1.0000
  H   H451      1.0  0.14772  0.48828  0.99250  1.0000
  H   H452      1.0  0.12017  0.55886  0.99737  1.0000
  S   S85       1.0  0.99892  0.62868  0.99652  1.0000
  C   C370      1.0  0.01441  0.49112  0.99236  1.0000
  H   H453      1.0  0.99909  0.47544  0.13941  1.0000
  C   C371      1.0  0.13082  0.49435  0.99805  1.0000
  H   H454      1.0  0.99263  0.35852  0.98922  1.0000
  C   C372      1.0  0.99266  0.34271  0.02121  1.0000
  H   H455      1.0  0.22756  0.47071  0.98889  1.0000
  H   H456      1.0  0.12247  0.48831  0.98930  1.0000
  S   S86       1.0  0.05984  0.57996  0.83707  1.0000
  C   C373      1.0  0.99427  0.41699  0.86647  1.0000
  H   H457      1.0  0.19268  0.47044  0.88774  1.0000
  H   H458      1.0  0.99607  0.63062  0.89577  1.0000
  H   H459      1.0  0.13944  0.40624  0.87580  1.0000
  H   H460      1.0  0.02876  0.44291  0.87259  1.0000
  Fe  Fe46      1.0  0.05367  0.61359  0.83998  1.0000
  H   H461      1.0  0.02320  0.58795  0.94104  1.0000
  S   S87       1.0  0.10762  0.57598  0.84419  1.0000
  Fe  Fe47      1.0  0.09073  0.58600  0.81737  1.0000
  S   S88       1.0  0.10265  0.58094  0.78435  1.0000
  H   H462      1.0  0.11081  0.52597  0.75074  1.0000
  S   S89       1.0  0.17332  0.59619  0.91982  1.0000
  H   H463      1.0  0.07425  0.52114  0.75844  1.0000
  C   C374      1.0  0.01191  0.51282  0.98303  1.0000
  Fe  Fe48      1.0  0.01398  0.49324  0.80082  1.0000
  S   S90       1.0  0.01448  0.48434  0.77076  1.0000
  S   S91       1.0  0.04139  0.50549  0.80270  1.0000
  H   H464      1.0  0.24187  0.41681  0.83903  1.0000
  S   S92       1.0  0.01295  0.42403  0.78703  1.0000
  C   C375      1.0  0.00179  0.43295  0.87022  1.0000
  Fe  Fe49      1.0  0.16861  0.47055  0.79488  1.0000
  S   S93       1.0  0.15751  0.47202  0.82894  1.0000
  S   S94       1.0  0.16941  0.49901  0.76906  1.0000
  Fe  Fe50      1.0  0.17999  0.42290  0.80276  1.0000
  S   S95       1.0  0.17041  0.42030  0.83761  1.0000
  S   S96       1.0  0.19368  0.39387  0.78866  1.0000
  Fe  Fe51      1.0  0.14264  0.44525  0.83036  1.0000
  S   S97       1.0  0.11041  0.44133  0.84799  1.0000
  Fe  Fe52      1.0  0.18625  0.44730  0.83286  1.0000
  S   S98       1.0  0.20618  0.44651  0.85533  1.0000
  S   S99       1.0  0.15110  0.44605  0.79578  1.0000
  S   S100      1.0  0.19862  0.44758  0.79862  1.0000
  S   S101      1.0  0.06024  0.62367  0.98836  1.0000
  H   H465      1.0  0.08701  0.65354  0.93523  1.0000
  H   H466      1.0  0.99711  0.53208  0.68401  1.0000
  H   H467      1.0  0.06300  0.52508  0.85958  1.0000
  S   S102      1.0  0.19309  0.35732  0.69067  1.0000
  N   N30       1.0  0.13341  0.37678  0.87432  1.0000
  Fe  Fe53      1.0  0.16285  0.34968  0.71076  1.0000
  S   S103      1.0  0.14274  0.36801  0.73522  1.0000
  Fe  Fe54      1.0  0.18295  0.34877  0.66505  1.0000
  S   S104      1.0  0.18779  0.36395  0.63070  1.0000
  C   C376      1.0  0.02595  0.55886  0.77062  1.0000
  H   H468      1.0  0.21338  0.32991  0.76485  1.0000
  C   C377      1.0  0.17894  0.38730  0.77394  1.0000
  C   C378      1.0  0.18932  0.37440  0.75952  1.0000
  C   C379      1.0  0.17836  0.36859  0.74750  1.0000
  C   C380      1.0  0.15671  0.37536  0.75012  1.0000
  C   C381      1.0  0.14612  0.38787  0.76496  1.0000
  C   C382      1.0  0.15724  0.39399  0.77674  1.0000
  H   H469      1.0  0.20593  0.36890  0.75768  1.0000
  H   H470      1.0  0.18663  0.35869  0.73637  1.0000
  H   H471      1.0  0.12931  0.39267  0.76749  1.0000
  H   H472      1.0  0.14898  0.40343  0.78829  1.0000
  C   C383      1.0  0.06058  0.48722  0.81496  1.0000
  C   C384      1.0  0.08066  0.49139  0.81107  1.0000
  C   C385      1.0  0.09614  0.47715  0.82087  1.0000
  C   C386      1.0  0.09136  0.45910  0.83526  1.0000
  C   C387      1.0  0.07117  0.45520  0.83956  1.0000
  C   C388      1.0  0.05589  0.46904  0.82918  1.0000
  H   H473      1.0  0.08434  0.50561  0.80040  1.0000
  H   H474      1.0  0.11169  0.48030  0.81754  1.0000
  H   H475      1.0  0.06749  0.44128  0.85070  1.0000
  H   H476      1.0  0.04041  0.46582  0.83252  1.0000
  H   H477      1.0  0.22356  0.34324  0.64777  1.0000
  H   H478      1.0  0.03851  0.62168  0.92741  1.0000
  H   H479      1.0  0.21639  0.39432  0.71691  1.0000
  C   C389      1.0  0.03486  0.41123  0.79814  1.0000
  C   C390      1.0  0.04428  0.42216  0.80698  1.0000
  C   C391      1.0  0.06228  0.41212  0.81499  1.0000
  H   H480      1.0  0.13002  0.60886  0.93756  1.0000
  H   H481      1.0  0.06780  0.36352  0.80547  1.0000
  H   H482      1.0  0.03815  0.43855  0.80710  1.0000
  H   H483      1.0  0.06960  0.42075  0.82160  1.0000
  H   H484      1.0  0.18680  0.53655  0.86075  1.0000
  H   H485      1.0  0.04922  0.54955  0.93718  1.0000
  H   H486      1.0  0.16180  0.37453  0.83551  1.0000
  C   C392      1.0  0.00973  0.59642  0.95035  1.0000
  H   H487      1.0  0.02281  0.54955  0.89240  1.0000
  C   C393      1.0  0.22771  0.47892  0.84181  1.0000
  C   C394      1.0  0.01251  0.61914  0.78861  1.0000
  N   N31       1.0  0.01672  0.64913  0.89871  1.0000
  H   H488      1.0  0.06223  0.63584  0.71633  1.0000
  H   H489      1.0  0.06661  0.48679  0.76379  1.0000
  C   C395      1.0  0.12123  0.36100  0.88792  1.0000
  S   S105      1.0  0.11852  0.62952  0.85027  1.0000
  H   H490      1.0  0.11347  0.40263  0.88790  1.0000
  C   C396      1.0  0.01915  0.57468  0.75446  1.0000
  C   C397      1.0  0.21816  0.35202  0.59746  1.0000
  C   C398      1.0  0.21292  0.35245  0.61890  1.0000
  H   H491      1.0  0.10776  0.34844  0.73627  1.0000
  C   C399      1.0  0.07079  0.39098  0.81451  1.0000
  H   H492      1.0  0.19610  0.41677  0.96516  1.0000
  H   H493      1.0  0.20700  0.36010  0.58758  1.0000
  H   H494      1.0  0.10410  0.36746  0.89042  1.0000
  C   C400      1.0  0.19536  0.46934  0.95566  1.0000
  C   C401      1.0  0.12013  0.55750  0.78053  1.0000
  C   C402      1.0  0.12010  0.53907  0.79598  1.0000
  C   C403      1.0  0.13484  0.52072  0.79240  1.0000
  C   C404      1.0  0.14981  0.52103  0.77363  1.0000
  C   C405      1.0  0.14940  0.53936  0.75812  1.0000
  C   C406      1.0  0.13446  0.55748  0.76146  1.0000
  H   H495      1.0  0.10876  0.53897  0.81061  1.0000
  H   H496      1.0  0.13471  0.50645  0.80417  1.0000
  H   H497      1.0  0.16085  0.53962  0.74355  1.0000
  H   H498      1.0  0.13446  0.57170  0.74947  1.0000
  C   C407      1.0  0.13427  0.61915  0.86910  1.0000
  C   C408      1.0  0.13799  0.59775  0.87848  1.0000
  C   C409      1.0  0.15086  0.59020  0.89344  1.0000
  C   C410      1.0  0.15939  0.60421  0.89941  1.0000
  C   C411      1.0  0.15542  0.62556  0.89015  1.0000
  C   C412      1.0  0.14317  0.63294  0.87485  1.0000
  H   H499      1.0  0.13104  0.58708  0.87414  1.0000
  H   H500      1.0  0.15355  0.57374  0.90086  1.0000
  H   H501      1.0  0.16191  0.63645  0.89474  1.0000
  H   H502      1.0  0.14037  0.64948  0.86761  1.0000
  H   H503      1.0  0.15912  0.54173  0.87229  1.0000
  H   H504      1.0  0.13335  0.46019  0.75406  1.0000
  C   C413      1.0  0.04328  0.38997  0.79780  1.0000
  S   S106      1.0  0.08335  0.62018  0.81832  1.0000
  C   C414      1.0  0.16570  0.57328  0.83697  1.0000
  C   C415      1.0  0.00217  0.32892  0.92990  1.0000
  H   H505      1.0  0.04321  0.51801  0.89536  1.0000
  C   C416      1.0  0.12468  0.38542  0.85500  1.0000
  C   C417      1.0  0.21017  0.43471  0.93593  1.0000
  H   H506      1.0  0.16270  0.60684  0.83190  1.0000
  C   C418      1.0  0.99903  0.63684  0.77993  1.0000
  C   C419      1.0  0.04793  0.63102  0.91502  1.0000
  S   S107      1.0  0.20052  0.54724  0.95463  1.0000
  H   H507      1.0  0.05498  0.41366  0.98357  1.0000
  C   C420      1.0  0.06609  0.32708  0.96527  1.0000
  C   C421      1.0  0.01042  0.57637  0.87171  1.0000
  H   H508      1.0  0.08109  0.34393  0.76651  1.0000
  C   C422      1.0  0.06891  0.56259  0.94923  1.0000
  C   C423      1.0  0.00513  0.58495  0.85220  1.0000
  H   H509      1.0  0.20668  0.33967  0.78849  1.0000
  H   H510      1.0  0.12425  0.34702  0.88079  1.0000
  H   H511      1.0  0.11847  0.33983  0.76936  1.0000
  C   C424      1.0  0.21252  0.46975  0.85722  1.0000
  H   H512      1.0  0.02003  0.54167  0.83091  1.0000
  H   H513      1.0  0.01731  0.54643  0.77821  1.0000
  C   C425      1.0  0.14138  0.64008  0.94802  1.0000
  H   H514      1.0  0.09247  0.60990  0.72317  1.0000
  C   C426      1.0  0.18944  0.35789  0.84608  1.0000
  S   S108      1.0  0.18710  0.49133  0.96753  1.0000
  Fe  Fe55      1.0  0.19387  0.56414  0.92296  1.0000
  H   H515      1.0  0.05028  0.34970  0.94245  1.0000
  C   C427      1.0  0.06332  0.55562  0.93374  1.0000
  H   H516      1.0  0.17298  0.51555  0.87133  1.0000
  S   S109      1.0  0.15125  0.34451  0.68418  1.0000
  C   C428      1.0  0.02296  0.43042  0.86987  1.0000
  S   S110      1.0  0.22030  0.41384  0.92266  1.0000
  S   S111      1.0  0.19361  0.37061  0.96874  1.0000
  H   H517      1.0  0.20479  0.50016  0.89308  1.0000
  C   C429      1.0  0.00398  0.51935  0.96418  1.0000
  Fe  Fe56      1.0  0.22332  0.53155  0.90040  1.0000
  H   H518      1.0  0.21126  0.40184  0.85887  1.0000
  C   C430      1.0  0.23802  0.38127  0.82869  1.0000
  C   C431      1.0  0.00843  0.57217  0.83779  1.0000
  H   H519      1.0  0.10275  0.61876  0.94366  1.0000
  C   C432      1.0  0.01216  0.54981  0.98225  1.0000
  H   H520      1.0  0.99896  0.60165  0.84818  1.0000
  C   C433      1.0  0.06382  0.33741  0.94488  1.0000
  H   H521      1.0  0.01080  0.38574  0.95057  1.0000
  H   H522      1.0  0.10768  0.39243  0.85854  1.0000
  C   C434      1.0  0.15461  0.59818  0.80689  1.0000
  C   C435      1.0  0.00792  0.39512  0.96238  1.0000
  H   H523      1.0  0.02701  0.36654  0.83939  1.0000
  H   H524      1.0  0.02204  0.62566  0.88036  1.0000
  C   C436      1.0  0.01366  0.63661  0.81551  1.0000
  C   C437      1.0  0.01283  0.62952  0.89558  1.0000
  S   S112      1.0  0.00269  0.46497  0.82175  1.0000
  C   C438      1.0  0.23491  0.49551  0.84514  1.0000
  H   H525      1.0  0.12643  0.37301  0.84608  1.0000
  C   C439      1.0  0.19155  0.44950  0.96664  1.0000
  C   C440      1.0  0.07889  0.33163  0.92754  1.0000
  C   C441      1.0  0.02034  0.61927  0.80590  1.0000
  H   H526      1.0  0.02378  0.35504  0.86713  1.0000
  H   H527      1.0  0.00501  0.57463  0.74968  1.0000
  H   H528      1.0  0.12502  0.35527  0.90381  1.0000
  C   C442      1.0  0.13013  0.39429  0.88526  1.0000
  H   H529      1.0  0.06180  0.49894  0.85830  1.0000
  C   C443      1.0  0.03913  0.64621  0.89897  1.0000
  H   H530      1.0  0.05421  0.52086  0.83827  1.0000
  C   C444      1.0  0.18761  0.34789  0.88345  1.0000
  H   H531      1.0  0.05227  0.61608  0.71060  1.0000
  H   H532      1.0  0.00415  0.55877  0.65035  1.0000
  Fe  Fe57      1.0  0.19939  0.51835  0.94450  1.0000
  N   N32       1.0  0.16659  0.53420  0.84153  1.0000
  C   C445      1.0  0.14747  0.52560  0.84537  1.0000
  C   C446      1.0  0.18405  0.52106  0.82927  1.0000
  H   H533      1.0  0.14947  0.50909  0.85444  1.0000
  H   H534      1.0  0.14321  0.52526  0.83060  1.0000
  H   H535      1.0  0.19880  0.52691  0.82605  1.0000
  H   H536      1.0  0.18696  0.50444  0.83782  1.0000
  H   H537      1.0  0.18088  0.52071  0.81394  1.0000
  N   N33       1.0  0.03198  0.51880  0.86773  1.0000
  C   C447      1.0  0.03271  0.51073  0.89031  1.0000
  C   C448      1.0  0.02030  0.50583  0.86194  1.0000
  C   C449      1.0  0.05369  0.51574  0.85545  1.0000
  C   C450      1.0  0.02216  0.54137  0.86290  1.0000
  C   C451      1.0  0.01877  0.55494  0.87712  1.0000
  C   C452      1.0  0.01701  0.55074  0.84292  1.0000
  H   H538      1.0  0.23395  0.41112  0.71526  1.0000
  H   H539      1.0  0.03502  0.37819  0.97372  1.0000
  H   H540      1.0  0.07563  0.61460  0.92691  1.0000
  H   H541      1.0  0.01678  0.51365  0.90035  1.0000
  H   H542      1.0  0.03901  0.49350  0.89376  1.0000
  C   C453      1.0  0.02166  0.39077  0.97606  1.0000
  H   H543      1.0  0.00338  0.50946  0.86907  1.0000
  H   H544      1.0  0.02614  0.48871  0.86717  1.0000
  H   H545      1.0  0.02173  0.50826  0.84475  1.0000
  H   H546      1.0  0.01743  0.61574  0.90782  1.0000
  S   S113      1.0  0.07566  0.33818  0.87158  1.0000
  C   C454      1.0  0.19912  0.34817  0.86304  1.0000
  H   H547      1.0  0.23643  0.34250  0.67457  1.0000
  C   C455      1.0  0.21395  0.45449  0.92522  1.0000
  H   H548      1.0  0.12849  0.54342  0.96775  1.0000
  C   C456      1.0  0.12167  0.61719  0.97494  1.0000
  H   H549      1.0  0.15065  0.61429  0.79862  1.0000
  N   N34       1.0  0.06121  0.60784  0.74072  1.0000
  C   C457      1.0  0.05266  0.62356  0.72344  1.0000
  C   C458      1.0  0.06199  0.61948  0.75645  1.0000
  C   C459      1.0  0.08286  0.59796  0.73184  1.0000
  C   C460      1.0  0.04880  0.59128  0.75077  1.0000
  C   C461      1.0  0.05520  0.57487  0.76727  1.0000
  C   C462      1.0  0.03032  0.59071  0.74460  1.0000
  C   C463      1.0  0.04390  0.55904  0.77706  1.0000
  H   H550      1.0  0.19849  0.35855  0.83018  1.0000
  H   H551      1.0  0.99511  0.55465  0.98240  1.0000
  H   H552      1.0  0.02079  0.55294  0.96573  1.0000
  C   C464      1.0  0.99537  0.61705  0.97738  1.0000
  C   C465      1.0  0.08249  0.63767  0.89882  1.0000
  C   C466      1.0  0.22750  0.34241  0.63148  1.0000
  H   H553      1.0  0.07288  0.63059  0.74989  1.0000
  H   H554      1.0  0.06734  0.60897  0.77056  1.0000
  H   H555      1.0  0.08296  0.58800  0.72087  1.0000
  C   C467      1.0  0.00798  0.47714  0.98429  1.0000
  H   H556      1.0  0.09126  0.58782  0.74424  1.0000
  H   H557      1.0  0.06898  0.57418  0.77290  1.0000
  C   C468      1.0  0.00777  0.39795  0.86219  1.0000
  H   H558      1.0  0.10124  0.32909  0.72640  1.0000
  C   C469      1.0  0.21131  0.49427  0.87885  1.0000
  C   C470      1.0  0.20637  0.47172  0.93496  1.0000
  H   H559      1.0  0.12591  0.62250  0.98737  1.0000
  H   H560      1.0  0.00480  0.57895  0.82239  1.0000
  Fe  Fe58      1.0  0.19402  0.34590  0.95171  1.0000
  H   H561      1.0  0.17070  0.33661  0.78947  1.0000
  C   C471      1.0  0.07439  0.65296  0.88303  1.0000
  C   C472      1.0  0.23040  0.39521  0.72227  1.0000
  H   H562      1.0  0.09914  0.63382  0.89822  1.0000
  Fe  Fe59      1.0  0.00093  0.45723  0.79187  1.0000
  C   C473      1.0  0.22041  0.39278  0.87101  1.0000
  C   C474      1.0  0.15592  0.36698  0.87010  1.0000
  C   C475      1.0  0.15288  0.58172  0.79881  1.0000
  H   H563      1.0  0.03654  0.63205  0.72927  1.0000
  H   H564      1.0  0.04918  0.54681  0.78970  1.0000
  H   H565      1.0  0.18303  0.44752  0.98275  1.0000
  H   H566      1.0  0.00850  0.35002  0.85169  1.0000
  H   H567      1.0  0.10624  0.61264  0.98159  1.0000
  H   H568      1.0  0.07694  0.33967  0.91194  1.0000
  H   H569      1.0  0.13335  0.60265  0.97210  1.0000
  C   C476      1.0  0.22698  0.50297  0.86389  1.0000
  H   H570      1.0  0.03605  0.38144  0.79095  1.0000
  H   H571      1.0  0.19350  0.33166  0.57912  1.0000
  H   H572      1.0  0.14153  0.65234  0.93333  1.0000
  C   C477      1.0  0.16637  0.35717  0.88700  1.0000
  S   S114      1.0  0.09390  0.37915  0.82370  1.0000
  H   H573      1.0  0.12508  0.52010  0.96207  1.0000
  H   H574      1.0  0.02805  0.60389  0.96829  1.0000
  H   H575      1.0  0.20897  0.48693  0.92631  1.0000
  C   C478      1.0  0.02931  0.39588  0.86190  1.0000
  C   C479      1.0  0.16134  0.59393  0.82573  1.0000
  H   H576      1.0  0.99447  0.47330  0.96007  1.0000
  H   H577      1.0  0.04641  0.62893  0.76200  1.0000
  H   H578      1.0  0.13997  0.49539  0.74804  1.0000
  C   C480      1.0  0.06927  0.62683  0.91488  1.0000
  N   N35       1.0  0.09556  0.44812  0.76289  1.0000
  C   C481      1.0  0.07329  0.44753  0.76504  1.0000
  C   C482      1.0  0.10782  0.43749  0.74543  1.0000
  C   C483      1.0  0.10217  0.43591  0.78263  1.0000
  C   C484      1.0  0.09935  0.46970  0.75891  1.0000
  C   C485      1.0  0.12004  0.47311  0.75456  1.0000
  C   C486      1.0  0.08291  0.48772  0.75999  1.0000
  C   C487      1.0  0.12402  0.49324  0.75129  1.0000
  C   C488      1.0  0.08709  0.50777  0.75689  1.0000
  C   C489      1.0  0.10760  0.51051  0.75264  1.0000
  H   H579      1.0  0.06723  0.45667  0.75078  1.0000
  H   H580      1.0  0.07093  0.43118  0.76748  1.0000
  H   H581      1.0  0.06331  0.45386  0.77888  1.0000
  H   H582      1.0  0.10455  0.44705  0.73004  1.0000
  H   H583      1.0  0.10413  0.42177  0.74731  1.0000
  H   H584      1.0  0.12494  0.43446  0.74452  1.0000
  H   H585      1.0  0.09937  0.41958  0.78649  1.0000
  H   H586      1.0  0.11907  0.43443  0.78173  1.0000
  H   H587      1.0  0.09359  0.44353  0.79614  1.0000
  H   H588      1.0  0.21689  0.40273  0.88297  1.0000
  H   H589      1.0  0.15822  0.35670  0.90316  1.0000
  Fe  Fe60      1.0  0.07580  0.57337  0.86420  1.0000
  C   C490      1.0  0.09982  0.57140  0.92437  1.0000
  C   C491      1.0  0.08733  0.57027  0.94454  1.0000
  H   H590      1.0  0.10340  0.56650  0.89313  1.0000
  H   H591      1.0  0.11402  0.57738  0.92070  1.0000
  H   H592      1.0  0.17065  0.57126  0.85153  1.0000
  Fe  Fe61      1.0  0.23410  0.54197  0.93817  1.0000
  H   H593      1.0  0.04934  0.52290  0.97451  1.0000
  S   S115      1.0  0.18900  0.53582  0.91442  1.0000
  Fe  Fe62      1.0  0.09778  0.60982  0.84671  1.0000
  C   C492      1.0  0.09383  0.56523  0.90877  1.0000
  C   C493      1.0  0.17161  0.53204  0.86234  1.0000
  C   C494      1.0  0.16329  0.55616  0.82957  1.0000
  C   C495      1.0  0.15737  0.56099  0.80981  1.0000
  C   C496      1.0  0.07573  0.55710  0.91346  1.0000
  H   H594      1.0  0.13461  0.38885  0.90085  1.0000
  C   C497      1.0  0.19897  0.43210  0.95673  1.0000
  S   S116      1.0  0.16463  0.33780  0.94957  1.0000
  H   H595      1.0  0.15590  0.54878  0.80282  1.0000
  H   H596      1.0  0.05915  0.56186  0.96474  1.0000
  H   H597      1.0  0.13388  0.53505  0.85446  1.0000
  S   S117      1.0  0.06841  0.54948  0.89367  1.0000
  H   H598      1.0  0.19516  0.34061  0.89668  1.0000
  C   C498      1.0  0.13249  0.52600  0.97183  1.0000
  S   S118      1.0  0.21451  0.35954  0.92253  1.0000
  C   C499      1.0  0.01250  0.60536  0.96585  1.0000
  S   S119      1.0  0.06725  0.60658  0.86869  1.0000
  C   C500      1.0  0.20419  0.47765  0.87561  1.0000
  H   H599      1.0  0.13219  0.39832  0.84447  1.0000
  H   H600      1.0  0.14768  0.58505  0.78411  1.0000
  H   H601      1.0  0.12490  0.32576  0.96479  1.0000
  Fe  Fe63      1.0  0.22130  0.34793  0.97952  1.0000
  H   H602      1.0  0.22824  0.39676  0.82575  1.0000
  H   H603      1.0  0.14527  0.64653  0.95988  1.0000
  H   H604      1.0  0.05319  0.40997  0.86526  1.0000
  C   C501      1.0  0.06117  0.37980  0.80611  1.0000
  H   H605      1.0  0.14970  0.52144  0.96671  1.0000
  H   H606      1.0  0.02383  0.60272  0.73258  1.0000
  C   C502      1.0  0.03667  0.41191  0.86577  1.0000
  S   S120      1.0  0.22767  0.56120  0.90700  1.0000
  H   H607      1.0  0.00211  0.53540  0.95546  1.0000
  C   C503      1.0  0.99805  0.50507  0.95597  1.0000
  C   C504      1.0  0.11100  0.33129  0.73643  1.0000
  H   H608      1.0  0.11960  0.63406  0.92352  1.0000
  H   H609      1.0  0.03149  0.60588  0.81183  1.0000
  H   H610      1.0  0.21413  0.37832  0.87858  1.0000
  Fe  Fe64      1.0  0.21731  0.38169  0.94090  1.0000
  C   C505      1.0  0.11811  0.62352  0.93927  1.0000
  C   C506      1.0  0.01540  0.36247  0.85400  1.0000
  C   C507      1.0  0.00362  0.65383  0.91897  1.0000
  H   H611      1.0  0.15435  0.62663  0.94460  1.0000
  Fe  Fe65      1.0  0.09480  0.34540  0.83933  1.0000
  S   S121      1.0  0.09571  0.57816  0.96346  1.0000
  H   H612      1.0  0.04088  0.38214  0.85851  1.0000
  C   C508      1.0  0.16816  0.36711  0.84943  1.0000
  H   H613      1.0  0.21562  0.34101  0.86035  1.0000
  H   H614      1.0  0.00829  0.58645  0.88268  1.0000
  H   H615      1.0  0.22902  0.35620  0.72046  1.0000
  H   H616      1.0  0.23945  0.37866  0.68777  1.0000
  H   H617      1.0  0.01733  0.60545  0.78168  1.0000
  C   C509      1.0  0.99966  0.48412  0.96622  1.0000
  S   S122      1.0  0.02325  0.63669  0.83738  1.0000
  N   N36       1.0  0.99923  0.38118  0.85870  1.0000
  N   N37       1.0  0.12096  0.63351  0.95539  1.0000
  C   C510      1.0  0.23756  0.34032  0.58907  1.0000
  H   H618      1.0  0.22288  0.45645  0.90930  1.0000
  H   H619      1.0  0.00613  0.64058  0.93240  1.0000
  H   H620      1.0  0.12775  0.32722  0.72886  1.0000
  H   H621      1.0  0.22582  0.39417  0.73953  1.0000
  H   H622      1.0  0.22227  0.50740  0.97661  1.0000
  C   C511      1.0  0.10422  0.65196  0.95948  1.0000
  Fe  Fe66      1.0  0.24081  0.33801  0.93638  1.0000
  H   H623      1.0  0.23455  0.37472  0.80015  1.0000
  H   H624      1.0  0.11581  0.65728  0.98480  1.0000
  C   C512      1.0  0.05305  0.65722  0.88295  1.0000
  H   H625      1.0  0.24151  0.63898  0.98719  1.0000
  S   S123      1.0  0.23335  0.51199  0.92983  1.0000
  H   H626      1.0  0.23445  0.47274  0.82767  1.0000
  H   H627      1.0  0.23947  0.35415  0.74297  1.0000
  H   H628      1.0  0.99895  0.39592  0.82636  1.0000
  C   C513      1.0  0.99904  0.65383  0.80775  1.0000
  H   H629      1.0  0.16038  0.33165  0.60515  1.0000
  S   S124      1.0  0.23699  0.52286  0.86861  1.0000
  H   H630      1.0  0.24072  0.44057  0.96592  1.0000
  S   S125      1.0  0.04673  0.33359  0.98688  1.0000
  H   H631      1.0  0.22207  0.38467  0.98798  1.0000
  C   C514      1.0  0.08445  0.32662  0.76748  1.0000
  H   H632      1.0  0.24142  0.33949  0.57264  1.0000
  C   C515      1.0  0.24147  0.36871  0.81394  1.0000
  Fe  Fe67      1.0  0.07581  0.83542  0.34309  1.0000
  S   S126      1.0  0.06555  0.80729  0.34017  1.0000
  S   S127      1.0  0.08343  0.86222  0.31697  1.0000
  Fe  Fe68      1.0  0.07874  0.81834  0.38884  1.0000
  S   S128      1.0  0.06895  0.78861  0.39012  1.0000
  S   S129      1.0  0.09054  0.82161  0.41573  1.0000
  Fe  Fe69      1.0  0.09016  0.78870  0.35848  1.0000
  S   S130      1.0  0.11710  0.76261  0.35064  1.0000
  Fe  Fe70      1.0  0.04530  0.81008  0.37202  1.0000
  C   C516      1.0  0.99583  0.92704  0.23219  1.0000
  S   S131      1.0  0.10192  0.81677  0.35880  1.0000
  S   S132      1.0  0.05356  0.84002  0.37325  1.0000
  H   H633      1.0  0.08329  0.69112  0.17947  1.0000
  S   S133      1.0  0.22445  0.93398  0.34129  1.0000
  H   H634      1.0  0.24085  0.89602  0.32888  1.0000
  Fe  Fe71      1.0  0.11844  0.69309  0.09684  1.0000
  H   H635      1.0  0.11024  0.83379  0.47387  1.0000
  C   C517      1.0  0.04418  0.78123  0.45011  1.0000
  Fe  Fe72      1.0  0.13815  0.72613  0.10460  1.0000
  S   S134      1.0  0.16825  0.70339  0.10706  1.0000
  S   S135      1.0  0.13902  0.75904  0.10656  1.0000
  Fe  Fe73      1.0  0.16434  0.69304  0.07957  1.0000
  S   S136      1.0  0.19402  0.68666  0.05575  1.0000
  Fe  Fe74      1.0  0.14846  0.68071  0.12641  1.0000
  H   H636      1.0  0.18097  0.66589  0.21668  1.0000
  S   S137      1.0  0.13552  0.71771  0.07509  1.0000
  S   S138      1.0  0.11824  0.70399  0.12611  1.0000
  H   H637      1.0  0.12590  0.84360  0.40328  1.0000
  C   C518      1.0  0.01365  0.81920  0.41707  1.0000
  C   C519      1.0  0.21821  0.83204  0.08832  1.0000
  S   S139      1.0  0.12850  0.92556  0.33708  1.0000
  C   C520      1.0  0.04348  0.90035  0.35945  1.0000
  H   H638      1.0  0.21182  0.82149  0.34471  1.0000
  C   C521      1.0  0.21403  0.74941  0.02689  1.0000
  Fe  Fe75      1.0  0.18275  0.83706  0.45826  1.0000
  C   C522      1.0  0.06350  0.83833  0.47118  1.0000
  Fe  Fe76      1.0  0.16201  0.80517  0.18813  1.0000
  S   S140      1.0  0.15115  0.83926  0.17478  1.0000
  S   S141      1.0  0.14409  0.77986  0.19193  1.0000
  Fe  Fe77      1.0  0.20403  0.81175  0.19167  1.0000
  S   S142      1.0  0.19697  0.84613  0.17748  1.0000
  H   H639      1.0  0.07347  0.70302  0.20183  1.0000
  Fe  Fe78      1.0  0.16564  0.84561  0.19873  1.0000
  S   S143      1.0  0.15130  0.87076  0.21790  1.0000
  Fe  Fe79      1.0  0.18347  0.83654  0.15494  1.0000
  S   S144      1.0  0.18875  0.84834  0.11983  1.0000
  S   S145      1.0  0.17324  0.81167  0.21417  1.0000
  S   S146      1.0  0.19352  0.80196  0.16725  1.0000
  H   H640      1.0  0.99491  0.95239  0.25807  1.0000
  C   C523      1.0  0.23408  0.71054  0.32615  1.0000
  Fe  Fe80      1.0  0.17227  0.69209  0.24487  1.0000
  S   S147      1.0  0.01697  0.97321  0.27537  1.0000
  H   H641      1.0  0.18933  0.80306  0.37397  1.0000
  S   S148      1.0  0.18887  0.91169  0.31881  1.0000
  C   C524      1.0  0.16787  0.87781  0.23031  1.0000
  C   C525      1.0  0.16165  0.89690  0.23720  1.0000
  C   C526      1.0  0.17437  0.90288  0.24732  1.0000
  C   C527      1.0  0.19316  0.88953  0.25120  1.0000
  C   C528      1.0  0.19933  0.87036  0.24442  1.0000
  C   C529      1.0  0.18683  0.86456  0.23386  1.0000
  H   H642      1.0  0.14705  0.90724  0.23445  1.0000
  H   H643      1.0  0.21376  0.85991  0.24746  1.0000
  H   H644      1.0  0.19175  0.84978  0.22866  1.0000
  H   H645      1.0  0.08395  0.92751  0.35323  1.0000
  C   C530      1.0  0.21397  0.72229  0.09186  1.0000
  H   H646      1.0  0.20393  0.72063  0.26597  1.0000
  C   C531      1.0  0.21276  0.83372  0.10941  1.0000
  H   H647      1.0  0.23407  0.90674  0.44595  1.0000
  C   C532      1.0  0.10856  0.95586  0.30880  1.0000
  H   H648      1.0  0.14968  0.86334  0.38363  1.0000
  C   C533      1.0  0.10619  0.94099  0.32748  1.0000
  H   H649      1.0  0.20840  0.84152  0.07754  1.0000
  Fe  Fe81      1.0  0.15861  0.93489  0.31743  1.0000
  C   C534      1.0  0.06835  0.95289  0.33191  1.0000
  H   H650      1.0  0.20328  0.86036  0.33405  1.0000
  C   C535      1.0  0.20176  0.71061  0.04354  1.0000
  C   C536      1.0  0.18686  0.72889  0.03897  1.0000
  C   C537      1.0  0.19304  0.74820  0.03022  1.0000
  H   H651      1.0  0.17211  0.88072  0.35397  1.0000
  C   C538      1.0  0.22285  0.71167  0.03923  1.0000
  H   H652      1.0  0.17057  0.72812  0.04191  1.0000
  H   H653      1.0  0.18147  0.76225  0.02653  1.0000
  H   H654      1.0  0.19558  0.89409  0.17751  1.0000
  H   H655      1.0  0.99391  0.91079  0.44511  1.0000
  H   H656      1.0  0.06099  0.90032  0.38199  1.0000
  C   C539      1.0  0.21706  0.91408  0.20653  1.0000
  C   C540      1.0  0.08986  0.69142  0.23768  1.0000
  H   H657      1.0  0.01097  0.95930  0.19828  1.0000
  C   C541      1.0  0.16304  0.76341  0.30029  1.0000
  C   C542      1.0  0.16970  0.70653  0.17656  1.0000
  H   H658      1.0  0.23760  0.82173  0.16311  1.0000
  C   C543      1.0  0.16443  0.69566  0.16408  1.0000
  C   C544      1.0  0.16528  0.98770  0.38571  1.0000
  C   C545      1.0  0.14065  0.76407  0.13057  1.0000
  C   C546      1.0  0.14825  0.78174  0.13026  1.0000
  C   C547      1.0  0.14950  0.78657  0.14895  1.0000
  C   C548      1.0  0.14282  0.77388  0.16827  1.0000
  C   C549      1.0  0.13509  0.75620  0.16870  1.0000
  C   C550      1.0  0.13425  0.75114  0.14987  1.0000
  H   H659      1.0  0.15325  0.79177  0.11551  1.0000
  H   H660      1.0  0.15532  0.80033  0.14841  1.0000
  H   H661      1.0  0.13002  0.74624  0.18360  1.0000
  H   H662      1.0  0.12832  0.73749  0.15031  1.0000
  H   H663      1.0  0.21996  0.72617  0.28089  1.0000
  C   C551      1.0  0.11252  0.66111  0.19357  1.0000
  H   H664      1.0  0.13366  0.81702  0.38218  1.0000
  H   H665      1.0  0.10731  0.71147  0.19784  1.0000
  H   H666      1.0  0.20800  0.71665  0.36144  1.0000
  C   C552      1.0  0.18493  0.78504  0.26378  1.0000
  H   H667      1.0  0.15527  0.79517  0.38456  1.0000
  H   H668      1.0  0.13213  0.98137  0.35782  1.0000
  C   C553      1.0  0.08296  0.77766  0.46160  1.0000
  C   C554      1.0  0.06086  0.87746  0.30855  1.0000
  C   C555      1.0  0.04436  0.86816  0.30914  1.0000
  C   C556      1.0  0.02605  0.88066  0.30295  1.0000
  C   C557      1.0  0.02399  0.90249  0.29701  1.0000
  C   C558      1.0  0.04053  0.91176  0.29638  1.0000
  C   C559      1.0  0.05912  0.89920  0.30179  1.0000
  H   H669      1.0  0.04572  0.85134  0.31431  1.0000
  H   H670      1.0  0.16112  0.95383  0.41726  1.0000
  H   H671      1.0  0.03901  0.92863  0.29187  1.0000
  H   H672      1.0  0.07186  0.90643  0.30140  1.0000
  C   C560      1.0  0.11241  0.74434  0.33879  1.0000
  C   C561      1.0  0.09328  0.74678  0.33310  1.0000
  C   C562      1.0  0.09081  0.73291  0.32181  1.0000
  C   C563      1.0  0.10765  0.71705  0.31578  1.0000
  C   C564      1.0  0.12646  0.71426  0.32212  1.0000
  C   C565      1.0  0.12872  0.72767  0.33387  1.0000
  H   H673      1.0  0.08053  0.75947  0.33712  1.0000
  H   H674      1.0  0.07618  0.73503  0.31700  1.0000
  H   H675      1.0  0.13939  0.70185  0.31786  1.0000
  H   H676      1.0  0.14334  0.72536  0.33876  1.0000
  C   C566      1.0  0.07105  0.96864  0.31378  1.0000
  H   H677      1.0  0.17775  0.79210  0.40866  1.0000
  H   H678      1.0  0.13380  0.79810  0.40631  1.0000
  H   H679      1.0  0.03037  0.81576  0.41171  1.0000
  H   H680      1.0  0.15779  0.79866  0.43016  1.0000
  H   H681      1.0  0.23751  0.89498  0.29417  1.0000
  C   C567      1.0  0.03845  0.85333  0.44869  1.0000
  C   C568      1.0  0.05255  0.84452  0.43234  1.0000
  C   C569      1.0  0.07223  0.83287  0.43546  1.0000
  C   C570      1.0  0.07768  0.82995  0.45481  1.0000
  S   S149      1.0  0.20893  0.68333  0.30256  1.0000
  C   C571      1.0  0.01333  0.88697  0.39399  1.0000
  H   H682      1.0  0.04817  0.84663  0.41745  1.0000
  C   C572      1.0  0.23272  0.79643  0.40797  1.0000
  H   H683      1.0  0.16957  0.91783  0.25210  1.0000
  N   N38       1.0  0.12011  0.77256  0.25638  1.0000
  C   C573      1.0  0.10735  0.77328  0.24114  1.0000
  C   C574      1.0  0.14252  0.76617  0.24697  1.0000
  C   C575      1.0  0.11492  0.75581  0.27484  1.0000
  C   C576      1.0  0.11611  0.79358  0.26153  1.0000
  C   C577      1.0  0.10756  0.79738  0.28220  1.0000
  C   C578      1.0  0.12038  0.81121  0.24545  1.0000
  C   C579      1.0  0.10346  0.81764  0.28623  1.0000
  C   C580      1.0  0.11630  0.83134  0.24971  1.0000
  C   C581      1.0  0.10768  0.83457  0.27003  1.0000
  H   H684      1.0  0.11101  0.78470  0.22625  1.0000
  H   H685      1.0  0.11014  0.75778  0.23666  1.0000
  H   H686      1.0  0.09038  0.77790  0.24773  1.0000
  H   H687      1.0  0.14778  0.77753  0.23267  1.0000
  H   H688      1.0  0.14587  0.75080  0.24205  1.0000
  H   H689      1.0  0.15250  0.76471  0.25825  1.0000
  H   H690      1.0  0.09802  0.75894  0.28222  1.0000
  H   H691      1.0  0.11829  0.74021  0.27042  1.0000
  H   H692      1.0  0.12423  0.75395  0.28691  1.0000
  H   H693      1.0  0.10374  0.78504  0.29552  1.0000
  H   H694      1.0  0.12667  0.80962  0.22932  1.0000
  H   H695      1.0  0.09668  0.82035  0.30199  1.0000
  H   H696      1.0  0.11960  0.84457  0.23711  1.0000
  H   H697      1.0  0.10401  0.85030  0.27318  1.0000
  N   N39       1.0  0.17444  0.80470  0.05981  1.0000
  C   C582      1.0  0.17673  0.78160  0.06721  1.0000
  C   C583      1.0  0.16970  0.81054  0.03848  1.0000
  C   C584      1.0  0.19494  0.80999  0.05810  1.0000
  C   C585      1.0  0.15716  0.81551  0.07432  1.0000
  C   C586      1.0  0.16001  0.82969  0.08539  1.0000
  C   C587      1.0  0.13678  0.81139  0.07828  1.0000
  C   C588      1.0  0.14353  0.83874  0.09978  1.0000
  C   C589      1.0  0.12041  0.82051  0.09272  1.0000
  C   C590      1.0  0.12379  0.83412  0.10349  1.0000
  H   H698      1.0  0.17723  0.77690  0.08415  1.0000
  H   H699      1.0  0.16360  0.77563  0.06517  1.0000
  H   H700      1.0  0.19123  0.77285  0.05857  1.0000
  H   H701      1.0  0.16733  0.82785  0.03258  1.0000
  H   H702      1.0  0.15541  0.80547  0.03805  1.0000
  H   H703      1.0  0.18260  0.80302  0.02703  1.0000
  H   H704      1.0  0.19978  0.80527  0.07352  1.0000
  H   H705      1.0  0.20760  0.80168  0.04705  1.0000
  H   H706      1.0  0.19460  0.82707  0.05193  1.0000
  H   H707      1.0  0.17485  0.83378  0.08366  1.0000
  H   H708      1.0  0.13353  0.80038  0.07087  1.0000
  H   H709      1.0  0.14625  0.84911  0.10840  1.0000
  H   H710      1.0  0.10519  0.81648  0.09600  1.0000
  H   H711      1.0  0.11119  0.84084  0.11498  1.0000
  N   N40       1.0  0.21501  0.75470  0.13031  1.0000
  H   H712      1.0  0.20328  0.78822  0.12725  1.0000
  Fe  Fe82      1.0  0.13901  0.68805  0.28433  1.0000
  C   C591      1.0  0.00513  0.82567  0.43622  1.0000
  H   H713      1.0  0.09342  0.98189  0.28813  1.0000
  H   H714      1.0  0.21974  0.74625  0.22483  1.0000
  H   H715      1.0  0.23140  0.67046  0.36872  1.0000
  S   S150      1.0  0.00017  0.91826  0.29209  1.0000
  H   H716      1.0  0.07113  0.67651  0.20390  1.0000
  C   C592      1.0  0.20459  0.94489  0.42100  1.0000
  C   C593      1.0  0.04666  0.89764  0.37969  1.0000
  H   H717      1.0  0.18160  0.94589  0.36256  1.0000
  C   C594      1.0  0.22787  0.66925  0.15210  1.0000
  H   H718      1.0  0.15914  0.70419  0.14986  1.0000
  H   H719      1.0  0.19250  0.75962  0.15881  1.0000
  H   H720      1.0  0.03422  0.89550  0.45862  1.0000
  C   C595      1.0  0.02982  0.91269  0.45261  1.0000
  S   S151      1.0  0.05019  0.98889  0.30680  1.0000
  H   H721      1.0  0.13001  0.69108  0.20002  1.0000
  H   H722      1.0  0.04932  0.79612  0.44129  1.0000
  H   H723      1.0  0.02052  0.75897  0.47975  1.0000
  C   C596      1.0  0.17150  0.66332  0.18933  1.0000
  H   H724      1.0  0.01324  0.87348  0.30349  1.0000
  H   H725      1.0  0.15154  0.93179  0.41688  1.0000
  H   H726      1.0  0.99859  0.91774  0.24790  1.0000
  C   C597      1.0  0.15640  0.78498  0.29393  1.0000
  C   C598      1.0  0.02529  0.89637  0.35637  1.0000
  H   H727      1.0  0.21717  0.97277  0.47944  1.0000
  C   C599      1.0  0.08748  0.68763  0.25950  1.0000
  S   S152      1.0  0.18092  0.86585  0.47002  1.0000
  S   S153      1.0  0.22132  0.77394  0.01779  1.0000
  S   S154      1.0  0.01136  0.80857  0.38121  1.0000
  C   C600      1.0  0.14105  0.98843  0.36436  1.0000
  S   S155      1.0  0.18006  0.70999  0.21200  1.0000
  C   C601      1.0  0.09926  0.67511  0.22629  1.0000
  H   H728      1.0  0.09279  0.82079  0.45723  1.0000
  S   S156      1.0  0.23367  0.79645  0.20385  1.0000
  H   H729      1.0  0.03441  0.88840  0.41260  1.0000
  H   H730      1.0  0.23805  0.74209  0.14980  1.0000
  H   H731      1.0  0.23445  0.69756  0.04234  1.0000
  H   H732      1.0  0.21718  0.71548  0.32559  1.0000
  H   H733      1.0  0.14282  0.79328  0.30331  1.0000
  H   H734      1.0  0.04696  0.74437  0.47848  1.0000
  H   H735      1.0  0.08286  0.78031  0.44509  1.0000
  C   C602      1.0  0.06464  0.77609  0.47752  1.0000
  H   H736      1.0  0.16221  0.81265  0.27076  1.0000
  C   C603      1.0  0.18631  0.96082  0.45090  1.0000
  H   H737      1.0  0.21335  0.78281  0.39645  1.0000
  H   H738      1.0  0.22070  0.80061  0.42116  1.0000
  H   H739      1.0  0.21487  0.94579  0.40571  1.0000
  C   C604      1.0  0.09032  0.67082  0.07388  1.0000
  N   N41       1.0  0.23751  0.69912  0.34737  1.0000
  H   H740      1.0  0.18450  0.73562  0.29407  1.0000
  N   N42       1.0  0.14426  0.86799  0.30924  1.0000
  C   C605      1.0  0.13373  0.86791  0.29249  1.0000
  C   C606      1.0  0.12862  0.86842  0.32927  1.0000
  C   C607      1.0  0.15200  0.88787  0.30388  1.0000
  C   C608      1.0  0.16111  0.84897  0.31104  1.0000
  C   C609      1.0  0.18235  0.84940  0.30126  1.0000
  C   C610      1.0  0.15636  0.82893  0.32112  1.0000
  C   C611      1.0  0.19777  0.83102  0.30203  1.0000
  C   C612      1.0  0.17198  0.81072  0.32229  1.0000
  C   C613      1.0  0.19262  0.81175  0.31270  1.0000
  H   H741      1.0  0.12705  0.85359  0.29595  1.0000
  H   H742      1.0  0.12057  0.88170  0.29069  1.0000
  H   H743      1.0  0.14478  0.86831  0.27701  1.0000
  H   H744      1.0  0.11938  0.85599  0.33321  1.0000
  H   H745      1.0  0.11671  0.88338  0.32851  1.0000
  H   H746      1.0  0.13623  0.86685  0.34258  1.0000
  H   H747      1.0  0.16195  0.89032  0.28801  1.0000
  H   H748      1.0  0.13897  0.90191  0.30359  1.0000
  H   H749      1.0  0.16086  0.88825  0.31551  1.0000
  H   H750      1.0  0.18746  0.86372  0.29270  1.0000
  H   H751      1.0  0.14050  0.82702  0.32780  1.0000
  H   H752      1.0  0.21382  0.83175  0.29416  1.0000
  H   H753      1.0  0.16796  0.79564  0.33030  1.0000
  H   H754      1.0  0.20462  0.79756  0.31341  1.0000
  N   N43       1.0  0.15427  0.81977  0.40046  1.0000
  C   C614      1.0  0.16741  0.80562  0.41513  1.0000
  C   C615      1.0  0.13773  0.83391  0.41258  1.0000
  C   C616      1.0  0.14391  0.80692  0.39300  1.0000
  C   C617      1.0  0.16743  0.83121  0.38226  1.0000
  C   C618      1.0  0.16298  0.85346  0.37571  1.0000
  C   C619      1.0  0.18523  0.82003  0.37030  1.0000
  C   C620      1.0  0.17584  0.86374  0.35854  1.0000
  C   C621      1.0  0.19815  0.83048  0.35335  1.0000
  C   C622      1.0  0.19340  0.85230  0.34740  1.0000
  H   H755      1.0  0.17733  0.81429  0.41926  1.0000
  C   C623      1.0  0.08597  0.93913  0.33883  1.0000
  C   C624      1.0  0.17835  0.94265  0.46069  1.0000
  H   H756      1.0  0.09289  0.66487  0.28749  1.0000
  S   S157      1.0  0.14634  0.67419  0.25563  1.0000
  H   H757      1.0  0.14489  0.94616  0.36249  1.0000
  C   C625      1.0  0.21370  0.97370  0.35109  1.0000
  C   C626      1.0  0.23609  0.81751  0.08142  1.0000
  S   S158      1.0  0.20913  0.89617  0.26471  1.0000
  Fe  Fe83      1.0  0.20230  0.93876  0.31953  1.0000
  Fe  Fe84      1.0  0.19577  0.92175  0.28370  1.0000
  C   C627      1.0  0.09116  0.96981  0.30213  1.0000
  H   H758      1.0  0.12386  0.95709  0.29968  1.0000
  C   C628      1.0  0.23201  0.75696  0.13939  1.0000
  H   H759      1.0  0.02388  0.89806  0.34039  1.0000
  H   H760      1.0  0.23877  0.69947  0.07859  1.0000
  C   C629      1.0  0.22719  0.95398  0.35257  1.0000
  C   C630      1.0  0.19809  0.74836  0.14797  1.0000
  C   C631      1.0  0.22593  0.82222  0.12299  1.0000
  C   C632      1.0  0.20696  0.77564  0.11808  1.0000
  H   H761      1.0  0.08459  0.70732  0.22974  1.0000
  H   H762      1.0  0.18858  0.94726  0.38592  1.0000
  S   S159      1.0  0.15367  0.82731  0.45833  1.0000
  S   S160      1.0  0.16480  0.94341  0.28223  1.0000
  H   H763      1.0  0.14110  0.98259  0.29599  1.0000
  H   H764      1.0  0.00846  0.96147  0.23229  1.0000
  S   S161      1.0  0.21215  0.94685  0.28443  1.0000
  H   H765      1.0  0.08072  0.70037  0.26790  1.0000
  C   C633      1.0  0.22849  0.78656  0.39390  1.0000
  C   C634      1.0  0.16733  0.79581  0.27569  1.0000
  C   C635      1.0  0.17643  0.67425  0.20199  1.0000
  H   H766      1.0  0.23590  0.84859  0.39363  1.0000
  S   S162      1.0  0.00508  0.95515  0.32677  1.0000
  H   H767      1.0  0.16847  0.72330  0.17194  1.0000
  S   S163      1.0  0.23202  0.85850  0.45263  1.0000
  C   C636      1.0  0.99268  0.96003  0.24187  1.0000
  C   C637      1.0  0.20705  0.89575  0.18538  1.0000
  Fe  Fe85      1.0  0.99849  0.95018  0.29751  1.0000
  H   H768      1.0  0.05463  0.76798  0.44311  1.0000
  H   H769      1.0  0.17763  0.91146  0.45840  1.0000
  C   C638      1.0  0.15373  0.97656  0.37903  1.0000
  S   S164      1.0  0.17148  0.96103  0.32141  1.0000
  H   H770      1.0  0.19246  0.74739  0.23618  1.0000
  N   N44       1.0  0.04389  0.77788  0.47288  1.0000
  H   H771      1.0  0.20320  0.72088  0.08304  1.0000
  H   H772      1.0  0.08749  0.68625  0.99329  1.0000
  H   H773      1.0  0.18805  0.92354  0.19580  1.0000
  N   N45       1.0  0.10217  0.67976  0.20311  1.0000
  H   H774      1.0  0.14237  0.92750  0.38652  1.0000
  H   H775      1.0  0.05536  0.90512  0.34599  1.0000
  H   H776      1.0  0.14447  0.84443  0.41822  1.0000
  C   C639      1.0  0.14110  0.94463  0.37984  1.0000
  C   C640      1.0  0.08162  0.68797  0.19686  1.0000
  H   H777      1.0  0.22186  0.82416  0.13891  1.0000
  C   C641      1.0  0.18043  0.75239  0.28831  1.0000
  H   H778      1.0  0.01431  0.95336  0.45503  1.0000
  C   C642      1.0  0.99504  0.96414  0.19605  1.0000
  S   S165      1.0  0.19567  0.66604  0.25884  1.0000
  H   H779      1.0  0.22640  0.77821  0.24624  1.0000
  C   C643      1.0  0.15027  0.94897  0.41036  1.0000
  H   H780      1.0  0.00858  0.86781  0.34517  1.0000
  H   H781      1.0  0.20562  0.97589  0.42332  1.0000
  H   H782      1.0  0.17891  0.92521  0.38532  1.0000
  N   N46       1.0  0.00886  0.92178  0.46392  1.0000
  C   C644      1.0  0.16516  0.67404  0.17057  1.0000
  H   H783      1.0  0.20290  0.77095  0.22700  1.0000
  H   H784      1.0  0.15461  0.75523  0.31467  1.0000
  H   H785      1.0  0.21256  0.68261  0.35213  1.0000
  H   H786      1.0  0.02838  0.78247  0.44713  1.0000
  C   C645      1.0  0.20612  0.75427  0.23524  1.0000
  C   C646      1.0  0.21735  0.98950  0.35930  1.0000
  C   C647      1.0  0.18380  0.92545  0.45078  1.0000
  N   N47       1.0  0.21040  0.75200  0.25636  1.0000
  C   C648      1.0  0.00056  0.81684  0.40512  1.0000
  Fe  Fe86      1.0  0.22940  0.83065  0.44153  1.0000
  C   C649      1.0  0.00362  0.94411  0.45315  1.0000
  H   H787      1.0  0.21330  0.92656  0.21524  1.0000
  Fe  Fe87      1.0  0.18028  0.96766  0.28621  1.0000
  H   H788      1.0  0.22655  0.76914  0.14920  1.0000
  C   C650      1.0  0.17696  0.94256  0.37992  1.0000
  H   H789      1.0  0.16807  0.94184  0.47598  1.0000
  H   H790      1.0  0.11573  0.77850  0.45415  1.0000
  S   S166      1.0  0.20199  0.84771  0.42686  1.0000
  C   C651      1.0  0.03585  0.75841  0.48346  1.0000
  C   C652      1.0  0.11524  0.69588  0.19401  1.0000
  H   H791      1.0  0.00594  0.85223  0.37109  1.0000
  N   N48       1.0  0.15534  0.95363  0.38704  1.0000
  H   H792      1.0  0.22879  0.89156  0.36542  1.0000
  H   H793      1.0  0.12448  0.95232  0.38457  1.0000
  H   H794      1.0  0.00461  0.94570  0.43605  1.0000
  S   S167      1.0  0.20990  0.81731  0.47212  1.0000
  C   C653      1.0  0.19196  0.76297  0.26959  1.0000
  H   H795      1.0  0.21866  0.78002  0.10363  1.0000
  Fe  Fe88      1.0  0.18428  0.68045  0.28723  1.0000
  H   H796      1.0  0.23204  0.76039  0.26970  1.0000
  Fe  Fe89      1.0  0.20324  0.87464  0.43990  1.0000
  H   H797      1.0  0.03033  0.91468  0.43557  1.0000
  C   C654      1.0  0.19945  0.96191  0.43106  1.0000
  H   H798      1.0  0.20342  0.73256  0.15744  1.0000
  H   H799      1.0  0.12882  0.82494  0.42688  1.0000
  S   S168      1.0  0.20292  0.90580  0.41773  1.0000
  H   H800      1.0  0.04208  0.92027  0.45410  1.0000
  S   S169      1.0  0.10622  0.70241  0.29822  1.0000
  S   S170      1.0  0.16305  0.70829  0.27202  1.0000
  H   H801      1.0  0.01528  0.82723  0.44549  1.0000
  C   C655      1.0  0.19681  0.92664  0.43086  1.0000
  H   H802      1.0  0.20212  0.65933  0.14781  1.0000
  C   C656      1.0  0.17540  0.69593  0.19564  1.0000
  C   C657      1.0  0.21636  0.72915  0.26501  1.0000
  S   S171      1.0  0.17986  0.98213  0.46344  1.0000
  C   C658      1.0  0.13937  0.81891  0.48331  1.0000
  H   H803      1.0  0.13421  0.95722  0.41642  1.0000
  H   H804      1.0  0.05283  0.95192  0.34105  1.0000
  H   H805      1.0  0.02308  0.86206  0.44649  1.0000
  H   H806      1.0  0.18413  0.74765  0.14250  1.0000
  Fe  Fe90      1.0  0.02095  0.98022  0.30480  1.0000
  C   C659      1.0  0.22866  0.76142  0.25411  1.0000
  C   C660      1.0  0.04392  0.84996  0.46821  1.0000
  H   H807      1.0  0.19160  0.74455  0.10775  1.0000
  C   C661      1.0  0.20767  0.73613  0.10570  1.0000
  H   H808      1.0  0.19225  0.77621  0.11334  1.0000
  C   C662      1.0  0.23402  0.84995  0.37736  1.0000
  S   S172      1.0  0.08899  0.68558  0.09274  1.0000
  H   H809      1.0  0.19307  0.79415  0.24989  1.0000
  H   H810      1.0  0.20091  0.97693  0.34310  1.0000
  C   C663      1.0  0.20277  0.91236  0.19567  1.0000
  H   H811      1.0  0.11954  0.69839  0.17654  1.0000
  C   C664      1.0  0.22893  0.73113  0.03144  1.0000
  H   H812      1.0  0.01327  0.79816  0.47723  1.0000
  C   C665      1.0  0.22182  0.73912  0.11656  1.0000
  C   C666      1.0  0.03162  0.89100  0.39691  1.0000
  H   H813      1.0  0.12259  0.67110  0.05961  1.0000
  H   H814      1.0  0.23611  0.83363  0.37535  1.0000
  H   H815      1.0  0.00260  0.88132  0.40800  1.0000
  S   S173      1.0  0.14726  0.66783  0.09922  1.0000
  Fe  Fe91      1.0  0.20968  0.84709  0.48180  1.0000
  C   C667      1.0  0.10877  0.66594  0.05932  1.0000
  H   H816      1.0  0.21838  0.67741  0.16441  1.0000
  H   H817      1.0  0.23071  0.72153  0.25509  1.0000
  H   H818      1.0  0.24106  0.72481  0.32095  1.0000
  C   C668      1.0  0.10213  0.77661  0.46658  1.0000
  C   C669      1.0  0.11767  0.82381  0.48636  1.0000
  H   H819      1.0  0.01152  0.92825  0.22227  1.0000
  C   C670      1.0  0.02902  0.79592  0.48080  1.0000
  H   H820      1.0  0.21765  0.85796  0.37634  1.0000
  H   H821      1.0  0.17596  0.97967  0.39614  1.0000
  H   H822      1.0  0.99815  0.99017  0.48486  1.0000
  C   C671      1.0  0.00956  0.88970  0.37350  1.0000
  H   H823      1.0  0.22473  0.91920  0.47868  1.0000
  S   S174      1.0  0.15783  0.66016  0.15572  1.0000
  C   C672      1.0  0.24002  0.69824  0.99049  1.0000
  C   C673      1.0  0.22942  0.67945  0.35275  1.0000
  C   C674      1.0  0.99765  0.86546  0.36057  1.0000
  C   C675      1.0  0.22481  0.71259  0.36241  1.0000
  H   H824      1.0  0.19018  0.65878  0.11961  1.0000
  C   C676      1.0  0.07246  0.66407  0.07325  1.0000
  H   H825      1.0  0.22547  0.70455  0.37894  1.0000
  H   H826      1.0  0.99706  0.89350  0.46985  1.0000
  H   H827      1.0  0.23766  0.66885  0.34164  1.0000
  H   H828      1.0  0.06765  0.83586  0.48616  1.0000
  H   H829      1.0  0.05812  0.66781  0.08445  1.0000
  C   C677      1.0  0.22569  0.88085  0.18583  1.0000
  C   C678      1.0  0.00778  0.92048  0.48648  1.0000
  H   H830      1.0  0.11440  0.66504  0.17614  1.0000
  C   C679      1.0  0.24189  0.98308  0.29784  1.0000
  H   H831      1.0  0.23013  0.72775  0.35910  1.0000
  H   H832      1.0  0.03476  0.81076  0.47360  1.0000
  C   C680      1.0  0.23566  0.89914  0.20727  1.0000
  H   H833      1.0  0.00485  0.97907  0.16377  1.0000
  S   S175      1.0  0.23756  0.77036  0.35854  1.0000
  H   H834      1.0  0.20888  0.66560  0.09610  1.0000
  C   C681      1.0  0.23460  0.98576  0.36872  1.0000
  C   C682      1.0  0.23413  0.71030  0.08918  1.0000
  C   C683      1.0  0.21861  0.65890  0.14249  1.0000
  S   S176      1.0  0.15947  0.66151  0.30215  1.0000
  H   H835      1.0  0.22470  0.69631  0.99029  1.0000
  H   H836      1.0  0.23986  0.81565  0.06537  1.0000
  C   C684      1.0  0.23706  0.92506  0.46666  1.0000
  H   H837      1.0  0.22191  0.66724  0.02148  1.0000
  C   C685      1.0  0.24065  0.88212  0.19668  1.0000
  H   H838      1.0  0.22809  0.86800  0.17804  1.0000
  C   C686      1.0  0.10367  0.77399  0.48738  1.0000
  C   C687      1.0  0.24105  0.88038  0.30530  1.0000
  C   C688      1.0  0.09431  0.66756  0.27062  1.0000
  H   H839      1.0  0.24095  0.70071  0.31411  1.0000
  C   C689      1.0  0.99367  0.91032  0.46183  1.0000
  C   C690      1.0  0.24219  0.91792  0.44786  1.0000
  H   H840      1.0  0.24199  0.86123  0.28377  1.0000
  H   H841      1.0  0.01709  0.99171  0.37371  1.0000
  Fe  Fe92      1.0  0.06714  0.81526  0.54539  1.0000
  S   S177      1.0  0.06324  0.84970  0.53071  1.0000
  S   S178      1.0  0.09900  0.79470  0.54568  1.0000
  Fe  Fe93      1.0  0.02072  0.81699  0.56069  1.0000
  S   S179      1.0  0.01301  0.85184  0.54870  1.0000
  S   S180      1.0  0.99510  0.79860  0.57679  1.0000
  Fe  Fe94      1.0  0.03636  0.84493  0.51983  1.0000
  C   C691      1.0  0.99501  0.78526  0.54103  1.0000
  Fe  Fe95      1.0  0.04052  0.85361  0.56068  1.0000
  S   S181      1.0  0.04041  0.88138  0.57380  1.0000
  S   S182      1.0  0.04274  0.80997  0.53117  1.0000
  S   S183      1.0  0.04575  0.81943  0.57616  1.0000
  N   N49       1.0  0.24127  0.94730  0.48972  1.0000
  C   C692      1.0  0.12680  0.82563  0.56537  1.0000
  H   H842      1.0  0.11519  0.79751  0.58137  1.0000
  C   C693      1.0  0.14909  0.80662  0.49973  1.0000
  C   C694      1.0  0.00509  0.92408  0.61698  1.0000
  N   N50       1.0  0.14086  0.85842  0.54773  1.0000
  H   H843      1.0  0.03609  0.90053  0.52561  1.0000
  H   H844      1.0  0.03867  0.90037  0.48903  1.0000
  H   H845      1.0  0.23891  0.93437  0.52294  1.0000
  H   H846      1.0  0.16443  0.86832  0.55717  1.0000
  H   H847      1.0  0.05374  0.77156  0.51152  1.0000
  H   H848      1.0  0.05424  0.93256  0.59934  1.0000
  H   H849      1.0  0.12285  0.82510  0.55096  1.0000
  C   C695      1.0  0.15656  0.84865  0.53128  1.0000
  H   H850      1.0  0.14811  0.85262  0.58864  1.0000
  C   C696      1.0  0.21926  0.95883  0.49237  1.0000
  Fe  Fe96      1.0  0.14831  0.94905  0.61176  1.0000
  S   S184      1.0  0.15132  0.96856  0.57911  1.0000
  S   S185      1.0  0.14778  0.96454  0.63843  1.0000
  Fe  Fe97      1.0  0.13103  0.91609  0.59913  1.0000
  S   S186      1.0  0.13286  0.93362  0.56594  1.0000
  S   S187      1.0  0.11741  0.88663  0.60893  1.0000
  Fe  Fe98      1.0  0.16386  0.93770  0.56871  1.0000
  S   S188      1.0  0.18982  0.93446  0.54062  1.0000
  Fe  Fe99      1.0  0.12025  0.96227  0.57982  1.0000
  H   H851      1.0  0.18817  0.92274  0.50296  1.0000
  S   S189      1.0  0.16326  0.91812  0.60137  1.0000
  S   S190      1.0  0.11614  0.94462  0.61290  1.0000
  C   C697      1.0  0.16437  0.98424  0.65951  1.0000
  C   C698      1.0  0.20125  0.98426  0.65492  1.0000
  S   S191      1.0  0.21240  0.84625  0.51462  1.0000
  C   C699      1.0  0.00503  0.85392  0.61225  1.0000
  S   S192      1.0  0.09282  0.98772  0.57349  1.0000
  H   H852      1.0  0.01039  0.84842  0.59715  1.0000
  C   C700      1.0  0.02411  0.92620  0.60347  1.0000
  H   H853      1.0  0.11553  0.85822  0.53345  1.0000
  C   C701      1.0  0.16875  0.97229  0.64394  1.0000
  C   C702      1.0  0.18947  0.96662  0.63362  1.0000
  H   H854      1.0  0.01634  0.86340  0.61238  1.0000
  H   H855      1.0  0.99847  0.75562  0.61592  1.0000
  H   H856      1.0  0.00650  0.79466  0.53286  1.0000
  H   H857      1.0  0.05915  0.69929  0.97321  1.0000
  H   H858      1.0  0.19307  0.95731  0.62172  1.0000
  C   C703      1.0  0.07195  0.67707  0.95284  1.0000
  H   H859      1.0  0.08885  0.81926  0.50766  1.0000
  C   C704      1.0  0.10557  0.81606  0.50554  1.0000
  C   C705      1.0  0.04491  0.96309  0.55487  1.0000
  C   C706      1.0  0.06619  0.95645  0.54694  1.0000
  C   C707      1.0  0.08111  0.96384  0.55271  1.0000
  C   C708      1.0  0.07466  0.97828  0.56595  1.0000
  H   H860      1.0  0.02665  0.79408  0.49803  1.0000
  H   H861      1.0  0.11842  0.77379  0.49114  1.0000
  H   H862      1.0  0.07115  0.94549  0.53645  1.0000
  H   H863      1.0  0.09754  0.95867  0.54658  1.0000
  H   H864      1.0  0.01213  0.68177  0.88311  1.0000
  C   C709      1.0  0.07177  0.68646  0.96914  1.0000
  C   C710      1.0  0.14936  0.87497  0.55190  1.0000
  C   C711      1.0  0.20565  0.97243  0.63923  1.0000
  C   C712      1.0  0.19303  0.90859  0.51395  1.0000
  C   C713      1.0  0.19401  0.90981  0.53414  1.0000
  C   C714      1.0  0.19999  0.89143  0.54844  1.0000
  H   H865      1.0  0.01383  0.93214  0.66116  1.0000
  H   H866      1.0  0.99580  0.89276  0.59376  1.0000
  H   H867      1.0  0.20089  0.89229  0.56402  1.0000
  H   H868      1.0  0.21068  0.85778  0.55326  1.0000
  C   C715      1.0  0.08794  0.66012  0.94793  1.0000
  H   H869      1.0  0.12431  0.88238  0.52619  1.0000
  C   C716      1.0  0.03860  0.97734  0.56828  1.0000
  H   H870      1.0  0.08565  0.92089  0.64303  1.0000
  C   C717      1.0  0.08611  0.77210  0.50335  1.0000
  C   C718      1.0  0.08778  0.67921  0.98034  1.0000
  S   S193      1.0  0.02636  0.95417  0.54724  1.0000
  H   H871      1.0  0.12388  0.79689  0.61518  1.0000
  H   H872      1.0  0.04531  0.92426  0.67174  1.0000
  C   C719      1.0  0.02448  0.90928  0.49682  1.0000
  H   H873      1.0  0.03578  0.95232  0.66384  1.0000
  H   H874      1.0  0.06249  0.94214  0.66586  1.0000
  H   H875      1.0  0.10892  0.87509  0.55199  1.0000
  H   H876      1.0  0.13819  0.88311  0.56404  1.0000
  H   H877      1.0  0.08492  0.66090  0.87025  1.0000
  H   H878      1.0  0.02535  0.72551  0.56403  1.0000
  C   C720      1.0  0.13670  0.82485  0.60339  1.0000
  H   H879      1.0  0.99377  0.66729  0.81518  1.0000
  H   H880      1.0  0.15058  0.83755  0.52566  1.0000
  H   H881      1.0  0.00481  0.91974  0.54564  1.0000
  C   C721      1.0  0.12734  0.80927  0.60173  1.0000
  C   C722      1.0  0.06360  0.88179  0.58122  1.0000
  C   C723      1.0  0.07120  0.90045  0.57565  1.0000
  C   C724      1.0  0.08821  0.90190  0.58335  1.0000
  C   C725      1.0  0.09743  0.88478  0.59715  1.0000
  C   C726      1.0  0.09007  0.86598  0.60237  1.0000
  C   C727      1.0  0.07344  0.86436  0.59421  1.0000
  H   H882      1.0  0.06364  0.91395  0.56561  1.0000
  H   H883      1.0  0.09364  0.91652  0.57915  1.0000
  H   H884      1.0  0.09700  0.85268  0.61308  1.0000
  H   H885      1.0  0.06769  0.84989  0.59869  1.0000
  H   H886      1.0  0.23269  0.91845  0.50912  1.0000
  C   C728      1.0  0.12242  0.80966  0.58274  1.0000
  H   H887      1.0  0.04646  0.97001  0.62536  1.0000
  H   H888      1.0  0.17087  0.83965  0.53729  1.0000
  H   H889      1.0  0.06852  0.90396  0.64405  1.0000
  H   H890      1.0  0.02227  0.98274  0.57430  1.0000
  C   C729      1.0  0.06691  0.77296  0.49858  1.0000
  C   C730      1.0  0.07277  0.91948  0.63628  1.0000
  C   C731      1.0  0.13616  0.84187  0.56651  1.0000
  H   H891      1.0  0.14036  0.82470  0.61822  1.0000
  C   C732      1.0  0.11501  0.80357  0.52187  1.0000
  C   C733      1.0  0.13683  0.79879  0.51908  1.0000
  C   C734      1.0  0.01754  0.93056  0.64499  1.0000
  C   C735      1.0  0.20508  0.87078  0.52195  1.0000
  N   N51       1.0  0.05445  0.93700  0.63871  1.0000
  H   H892      1.0  0.16159  0.86061  0.51727  1.0000
  H   H893      1.0  0.14420  0.78912  0.53179  1.0000
  C   C736      1.0  0.20566  0.87195  0.54229  1.0000
  H   H894      1.0  0.02662  0.92451  0.58734  1.0000
  C   C737      1.0  0.19859  0.88912  0.50783  1.0000
  H   H895      1.0  0.07206  0.96157  0.63163  1.0000
  C   C738      1.0  0.00175  0.92634  0.63765  1.0000
  H   H896      1.0  0.06754  0.95556  0.60915  1.0000
  H   H897      1.0  0.03321  0.75576  0.50084  1.0000
  C   C739      1.0  0.03719  0.93281  0.63157  1.0000
  C   C740      1.0  0.14111  0.84094  0.58610  1.0000
  C   C741      1.0  0.01382  0.72671  0.57842  1.0000
  H   H898      1.0  0.99923  0.70278  0.57591  1.0000
  H   H899      1.0  0.07960  0.91881  0.61955  1.0000
  C   C742      1.0  0.03988  0.93070  0.61054  1.0000
  C   C743      1.0  0.04915  0.93902  0.66103  1.0000
  S   S194      1.0  0.22213  0.99049  0.66213  1.0000
  C   C744      1.0  0.02315  0.90900  0.51797  1.0000
  C   C745      1.0  0.12159  0.86895  0.53950  1.0000
  H   H900      1.0  0.16595  0.80275  0.49737  1.0000
  C   C746      1.0  0.99910  0.71394  0.58513  1.0000
  H   H901      1.0  0.08736  0.77037  0.51951  1.0000
  H   H902      1.0  0.05946  0.68276  0.94415  1.0000
  H   H903      1.0  0.02465  0.75159  0.58449  1.0000
  C   C747      1.0  0.01347  0.74130  0.59002  1.0000
  H   H904      1.0  0.22167  0.96745  0.63159  1.0000
  C   C748      1.0  0.06034  0.95687  0.62571  1.0000
  C   C749      1.0  0.05343  0.98518  0.57353  1.0000
  H   H905      1.0  0.00655  0.84015  0.62548  1.0000
  H   H906      1.0  0.21383  0.96439  0.50747  1.0000
  H   H907      1.0  0.99271  0.66832  0.88209  1.0000
  H   H908      1.0  0.15271  0.88726  0.53756  1.0000
  C   C750      1.0  0.00532  0.91971  0.52941  1.0000
  H   H909      1.0  0.00697  0.66781  0.92250  1.0000
  C   C751      1.0  0.00963  0.66648  0.88174  1.0000
  C   C752      1.0  0.99818  0.74346  0.60821  1.0000
  C   C753      1.0  0.18048  0.99040  0.66482  1.0000
  Fe  Fe100     1.0  0.99372  0.96455  0.56441  1.0000
  H   H910      1.0  0.01786  0.66335  0.86591  1.0000
  H   H911      1.0  0.22657  0.66496  0.98478  1.0000
  H   H912      1.0  0.23106  0.73194  0.98138  1.0000
  C   C754      1.0  0.10392  0.66243  0.97543  1.0000
  H   H913      1.0  0.14845  0.98846  0.66778  1.0000
  H   H914      1.0  0.99487  0.77403  0.51370  1.0000
  H   H915      1.0  0.04804  0.66869  0.86980  1.0000
  H   H916      1.0  0.20828  0.94900  0.49245  1.0000
  H   H917      1.0  0.19820  0.88838  0.49208  1.0000
  S   S195      1.0  0.02614  0.85969  0.48911  1.0000
  H   H918      1.0  0.99270  0.92119  0.61128  1.0000
  C   C755      1.0  0.42773  0.08798  0.99945  1.0000
  C   C756      1.0  0.34203  0.21893  0.48167  1.0000
  C   C757      1.0  0.47693  0.03466  0.07721  1.0000
  H   H919      1.0  0.44369  0.30540  0.40742  1.0000
  C   C758      1.0  0.28801  0.05760  0.48430  1.0000
  C   C759      1.0  0.36297  0.20750  0.47971  1.0000
  H   H920      1.0  0.31360  0.25198  0.46653  1.0000
  H   H921      1.0  0.25079  0.16092  0.47822  1.0000
  C   C760      1.0  0.46104  0.05188  0.00231  1.0000
  C   C761      1.0  0.45402  0.28639  0.43530  1.0000
  C   C762      1.0  0.27202  0.03938  0.46729  1.0000
  H   H922      1.0  0.32060  0.18020  0.47535  1.0000
  H   H923      1.0  0.48119  0.31380  0.42289  1.0000
  C   C763      1.0  0.49043  0.31998  0.42988  1.0000
  H   H924      1.0  0.24592  0.07782  0.47030  1.0000
  C   C764      1.0  0.41286  0.10652  0.99598  1.0000
  H   H925      1.0  0.41555  0.01489  0.03941  1.0000
  C   C765      1.0  0.44135  0.08503  0.01341  1.0000
  C   C766      1.0  0.24557  0.14949  0.47295  1.0000
  H   H926      1.0  0.45668  0.03729  0.04306  1.0000
  S   S196      1.0  0.48513  0.12869  0.99746  1.0000
  C   C767      1.0  0.44031  0.30185  0.42444  1.0000
  C   C768      1.0  0.43880  0.10164  0.02393  1.0000
  C   C769      1.0  0.31534  0.25176  0.48260  1.0000
  C   C770      1.0  0.33252  0.18807  0.47605  1.0000
  C   C771      1.0  0.27959  0.05130  0.44780  1.0000
  H   H927      1.0  0.44346  0.06121  0.05171  1.0000
  H   H928      1.0  0.48302  0.07934  0.00669  1.0000
  N   N52       1.0  0.45612  0.06491  0.01848  1.0000
  H   H929      1.0  0.29771  0.07499  0.43139  1.0000
  H   H930      1.0  0.47483  0.07478  0.03477  1.0000
  H   H931      1.0  0.26574  0.00269  0.32509  1.0000
  C   C772      1.0  0.47629  0.06836  0.02068  1.0000
  H   H932      1.0  0.46810  0.27798  0.42664  1.0000
  C   C773      1.0  0.40258  0.04005  0.99218  1.0000
  H   H933      1.0  0.46133  0.27035  0.46495  1.0000
  H   H934      1.0  0.42814  0.07616  0.99104  1.0000
  S   S197      1.0  0.45286  0.02676  0.08750  1.0000
  H   H935      1.0  0.43121  0.04987  0.03788  1.0000
  C   C774      1.0  0.29578  0.06936  0.46477  1.0000
  H   H936      1.0  0.47319  0.03755  0.00572  1.0000
  H   H937      1.0  0.31220  0.26846  0.48419  1.0000
  C   C775      1.0  0.41802  0.30855  0.45745  1.0000
  C   C776      1.0  0.41306  0.00247  0.99429  1.0000
  C   C777      1.0  0.44646  0.05279  0.03862  1.0000
  C   C778      1.0  0.35154  0.25341  0.47272  1.0000
  C   C779      1.0  0.36853  0.18735  0.47523  1.0000
  H   H938      1.0  0.39959  0.13705  0.00340  1.0000
  C   C780      1.0  0.27643  0.04244  0.48550  1.0000
  H   H939      1.0  0.46039  0.99441  0.99824  1.0000
  H   H940      1.0  0.27646  0.04893  0.43367  1.0000
  H   H941      1.0  0.38454  0.17872  0.47429  1.0000
  C   C781      1.0  0.47988  0.05372  0.07966  1.0000
  H   H942      1.0  0.46720  0.06383  0.08808  1.0000
  H   H943      1.0  0.44811  0.10053  0.03518  1.0000
  C   C782      1.0  0.32684  0.20836  0.48018  1.0000
  C   C783      1.0  0.45001  0.28217  0.45724  1.0000
  Fe  Fe101     1.0  0.45492  0.99582  0.07912  1.0000
  H   H944      1.0  0.48810  0.05345  0.02271  1.0000
  S   S198      1.0  0.24288  0.00691  0.37316  1.0000
  C   C784      1.0  0.25991  0.13218  0.46677  1.0000
  C   C785      1.0  0.42404  0.12024  0.02015  1.0000
  H   H945      1.0  0.42274  0.13284  0.02806  1.0000
  H   H946      1.0  0.49091  0.00742  0.06397  1.0000
  C   C786      1.0  0.29166  0.06602  0.44655  1.0000
  H   H947      1.0  0.40259  0.05082  0.01972  1.0000
  C   C787      1.0  0.42238  0.31292  0.43549  1.0000
  H   H948      1.0  0.27628  0.13014  0.46720  1.0000
  C   C788      1.0  0.41292  0.01705  0.02372  1.0000
  C   C789      1.0  0.40552  0.03729  0.01267  1.0000
  S   S199      1.0  0.30999  0.08893  0.46238  1.0000
  C   C790      1.0  0.25334  0.11729  0.46014  1.0000
  H   H949      1.0  0.31036  0.21523  0.48253  1.0000
  H   H950      1.0  0.37513  0.21364  0.48245  1.0000
  H   H951      1.0  0.26511  0.10412  0.45569  1.0000
  C   C791      1.0  0.35334  0.17766  0.47338  1.0000
  H   H952      1.0  0.35313  0.25342  0.45584  1.0000
  H   H953      1.0  0.35764  0.16171  0.47074  1.0000
  S   S200      1.0  0.25680  0.02075  0.46958  1.0000
  C   C792      1.0  0.43188  0.29312  0.46902  1.0000
  H   H954      1.0  0.36727  0.24800  0.47667  1.0000
  C   C793      1.0  0.41106  0.12266  0.00623  1.0000
  S   S201      1.0  0.32427  0.13060  0.48384  1.0000
  H   H955      1.0  0.44732  0.04588  0.00181  1.0000
  C   C794      1.0  0.25431  0.00190  0.31668  1.0000
  H   H956      1.0  0.40384  0.31775  0.46492  1.0000
  H   H957      1.0  0.34656  0.27007  0.47470  1.0000
  C   C795      1.0  0.41665  0.99967  0.01442  1.0000
  H   H958      1.0  0.25471  0.09293  0.43219  1.0000
  N   N53       1.0  0.33644  0.24035  0.48621  1.0000
  H   H959      1.0  0.41186  0.32513  0.42697  1.0000
  S   S202      1.0  0.31763  0.10656  0.66644  1.0000
  H   H960      1.0  0.33461  0.05939  0.62814  1.0000
  H   H961      1.0  0.41408  0.10044  0.55165  1.0000
  C   C796      1.0  0.44561  0.29285  0.49907  1.0000
  H   H962      1.0  0.28204  0.01054  0.71345  1.0000
  S   S203      1.0  0.41762  0.08270  0.86751  1.0000
  S   S204      1.0  0.46233  0.05426  0.89805  1.0000
  Fe  Fe102     1.0  0.33268  0.06492  0.82248  1.0000
  S   S205      1.0  0.34455  0.07693  0.78829  1.0000
  S   S206      1.0  0.35316  0.04265  0.84385  1.0000
  Fe  Fe103     1.0  0.31373  0.07389  0.78344  1.0000
  S   S207      1.0  0.30975  0.06863  0.75283  1.0000
  Fe  Fe104     1.0  0.32747  0.10827  0.79561  1.0000
  S   S208      1.0  0.34025  0.13752  0.78150  1.0000
  H   H963      1.0  0.27537  0.03701  0.53876  1.0000
  H   H964      1.0  0.26541  0.08433  0.80105  1.0000
  Fe  Fe105     1.0  0.30770  0.25900  0.81128  1.0000
  S   S209      1.0  0.30132  0.25925  0.78006  1.0000
  S   S210      1.0  0.34092  0.25311  0.81468  1.0000
  Fe  Fe106     1.0  0.27800  0.28868  0.78535  1.0000
  C   C797      1.0  0.25296  0.15013  0.56654  1.0000
  Fe  Fe107     1.0  0.27589  0.24251  0.79939  1.0000
  S   S211      1.0  0.28656  0.29013  0.81477  1.0000
  S   S212      1.0  0.28403  0.23969  0.83048  1.0000
  H   H965      1.0  0.29767  0.14155  0.80438  1.0000
  C   C798      1.0  0.31572  0.02080  0.71761  1.0000
  C   C799      1.0  0.28168  0.04217  0.76879  1.0000
  C   C800      1.0  0.28747  0.19469  0.78839  1.0000
  S   S213      1.0  0.37131  0.08501  0.63882  1.0000
  Fe  Fe108     1.0  0.39315  0.07404  0.66116  1.0000
  S   S214      1.0  0.42161  0.08549  0.66090  1.0000
  Fe  Fe109     1.0  0.42123  0.17416  0.76073  1.0000
  S   S215      1.0  0.44743  0.18489  0.76705  1.0000
  S   S216      1.0  0.39056  0.17055  0.78225  1.0000
  Fe  Fe110     1.0  0.44432  0.16748  0.71708  1.0000
  C   C801      1.0  0.27447  0.07394  0.66680  1.0000
  H   H966      1.0  0.38541  0.08132  0.55851  1.0000
  Fe  Fe111     1.0  0.46795  0.15806  0.75257  1.0000
  Fe  Fe112     1.0  0.44989  0.20277  0.73358  1.0000
  S   S217      1.0  0.45382  0.23619  0.72202  1.0000
  S   S218      1.0  0.44146  0.14606  0.74869  1.0000
  S   S219      1.0  0.42153  0.19455  0.72881  1.0000
  S   S220      1.0  0.38342  0.20213  0.53196  1.0000
  S   S221      1.0  0.39826  0.21917  0.61972  1.0000
  S   S222      1.0  0.40889  0.18201  0.58072  1.0000
  S   S223      1.0  0.39920  0.27814  0.65315  1.0000
  C   C802      1.0  0.43048  0.17294  0.66993  1.0000
  C   C803      1.0  0.43436  0.16882  0.64976  1.0000
  C   C804      1.0  0.42391  0.18263  0.63453  1.0000
  C   C805      1.0  0.40936  0.20051  0.63944  1.0000
  H   H967      1.0  0.44578  0.15515  0.64573  1.0000
  H   H968      1.0  0.42727  0.17940  0.61895  1.0000
  C   C806      1.0  0.43978  0.24825  0.70204  1.0000
  C   C807      1.0  0.43528  0.23606  0.69038  1.0000
  C   C808      1.0  0.42300  0.24549  0.67528  1.0000
  C   C809      1.0  0.41505  0.26709  0.67179  1.0000
  C   C810      1.0  0.41969  0.27939  0.68328  1.0000
  C   C811      1.0  0.43222  0.26999  0.69828  1.0000
  H   H969      1.0  0.44135  0.21935  0.69294  1.0000
  H   H970      1.0  0.41937  0.23602  0.66648  1.0000
  H   H971      1.0  0.41364  0.29606  0.68077  1.0000
  H   H972      1.0  0.43564  0.27947  0.70732  1.0000
  C   C812      1.0  0.43188  0.10274  0.63856  1.0000
  C   C813      1.0  0.45306  0.10330  0.63484  1.0000
  C   C814      1.0  0.46226  0.11574  0.61647  1.0000
  C   C815      1.0  0.41970  0.11516  0.62416  1.0000
  H   H973      1.0  0.46254  0.09373  0.64594  1.0000
  H   H974      1.0  0.47876  0.11580  0.61349  1.0000
  H   H975      1.0  0.40331  0.11479  0.62698  1.0000
  H   H976      1.0  0.28825  0.12850  0.64051  1.0000
  H   H977      1.0  0.25886  0.11854  0.63238  1.0000
  H   H978      1.0  0.26484  0.18619  0.56364  1.0000
  C   C816      1.0  0.32238  0.00304  0.68896  1.0000
  C   C817      1.0  0.43700  0.07561  0.70955  1.0000
  C   C818      1.0  0.40630  0.02261  0.98309  1.0000
  H   H979      1.0  0.29112  0.06005  0.49840  1.0000
  N   N54       1.0  0.25853  0.02841  0.61235  1.0000
  Fe  Fe113     1.0  0.29758  0.13869  0.50993  1.0000
  C   C819      1.0  0.41627  0.09790  0.73502  1.0000
  C   C820      1.0  0.28289  0.18831  0.51737  1.0000
  C   C821      1.0  0.25871  0.30952  0.89947  1.0000
  C   C822      1.0  0.27317  0.29892  0.88473  1.0000
  C   C823      1.0  0.26631  0.28954  0.87201  1.0000
  H   H980      1.0  0.28972  0.29785  0.88323  1.0000
  H   H981      1.0  0.27760  0.28106  0.86094  1.0000
  C   C824      1.0  0.35482  0.22962  0.80687  1.0000
  C   C825      1.0  0.34416  0.21504  0.80515  1.0000
  C   C826      1.0  0.35534  0.19671  0.79805  1.0000
  C   C827      1.0  0.37709  0.19331  0.79176  1.0000
  C   C828      1.0  0.38778  0.20790  0.79345  1.0000
  C   C829      1.0  0.37664  0.22584  0.80142  1.0000
  H   H982      1.0  0.32730  0.21778  0.80942  1.0000
  H   H983      1.0  0.34710  0.18522  0.79728  1.0000
  H   H984      1.0  0.40461  0.20524  0.78892  1.0000
  H   H985      1.0  0.38488  0.23698  0.80304  1.0000
  C   C830      1.0  0.28877  0.05774  0.75223  1.0000
  C   C831      1.0  0.28073  0.06301  0.73383  1.0000
  H   H986      1.0  0.28617  0.07504  0.72094  1.0000
  C   C832      1.0  0.31999  0.15955  0.78409  1.0000
  C   C833      1.0  0.30719  0.19736  0.77644  1.0000
  C   C834      1.0  0.32333  0.17973  0.77394  1.0000
  H   H987      1.0  0.30995  0.21296  0.76895  1.0000
  H   H988      1.0  0.33856  0.18177  0.76458  1.0000
  C   C835      1.0  0.46834  0.10406  0.95626  1.0000
  C   C836      1.0  0.28473  0.11310  0.64751  1.0000
  H   H989      1.0  0.45396  0.10377  0.95216  1.0000
  H   H990      1.0  0.40776  0.13349  0.56413  1.0000
  C   C837      1.0  0.40079  0.07044  0.86054  1.0000
  C   C838      1.0  0.39340  0.07929  0.84184  1.0000
  C   C839      1.0  0.37869  0.07095  0.83670  1.0000
  C   C840      1.0  0.37185  0.05319  0.84982  1.0000
  C   C841      1.0  0.38020  0.04353  0.86782  1.0000
  C   C842      1.0  0.39445  0.05224  0.87329  1.0000
  H   H991      1.0  0.39872  0.09290  0.83149  1.0000
  H   H992      1.0  0.37255  0.07828  0.82266  1.0000
  H   H993      1.0  0.37516  0.02962  0.87793  1.0000
  H   H994      1.0  0.35265  0.23151  0.51190  1.0000
  H   H995      1.0  0.33854  0.22227  0.59670  1.0000
  C   C843      1.0  0.31919  0.06686  0.58196  1.0000
  C   C844      1.0  0.31786  0.06684  0.60307  1.0000
  C   C845      1.0  0.33561  0.05876  0.61204  1.0000
  C   C846      1.0  0.35448  0.04982  0.60018  1.0000
  C   C847      1.0  0.35558  0.04922  0.57929  1.0000
  C   C848      1.0  0.33805  0.05801  0.57010  1.0000
  H   H996      1.0  0.30329  0.07370  0.61233  1.0000
  H   H997      1.0  0.37009  0.04226  0.57007  1.0000
  H   H998      1.0  0.33910  0.05763  0.55391  1.0000
  H   H999      1.0  0.41954  0.13733  0.59469  1.0000
  H   H1000     1.0  0.44054  0.03214  0.71133  1.0000
  H   H1001     1.0  0.43617  0.23502  0.76891  1.0000
  C   C849      1.0  0.25650  0.21556  0.74002  1.0000
  Fe  Fe114     1.0  0.40874  0.20167  0.54844  1.0000
  C   C850      1.0  0.37734  0.14153  0.51654  1.0000
  H   H1002     1.0  0.26839  0.01086  0.64107  1.0000
  C   C851      1.0  0.34889  0.99624  0.65749  1.0000
  C   C852      1.0  0.48637  0.11561  0.97722  1.0000
  Fe  Fe115     1.0  0.44956  0.02985  0.92425  1.0000
  N   N55       1.0  0.34220  0.27016  0.63464  1.0000
  C   C853      1.0  0.34961  0.25384  0.65215  1.0000
  C   C854      1.0  0.36062  0.27690  0.61950  1.0000
  C   C855      1.0  0.32948  0.28859  0.64354  1.0000
  C   C856      1.0  0.33067  0.26147  0.62395  1.0000
  C   C857      1.0  0.34071  0.24380  0.61463  1.0000
  C   C858      1.0  0.30958  0.27032  0.62202  1.0000
  H   H1003     1.0  0.40603  0.29714  0.51959  1.0000
  S   S224      1.0  0.24525  0.02585  0.68363  1.0000
  Fe  Fe116     1.0  0.28249  0.26064  0.55119  1.0000
  C   C859      1.0  0.25731  0.02436  0.59210  1.0000
  C   C860      1.0  0.48832  0.27221  0.52970  1.0000
  H   H1004     1.0  0.37215  0.26337  0.61404  1.0000
  H   H1005     1.0  0.27054  0.12022  0.55965  1.0000
  H   H1006     1.0  0.35597  0.28831  0.60548  1.0000
  H   H1007     1.0  0.31558  0.28452  0.65552  1.0000
  H   H1008     1.0  0.30277  0.24469  0.49427  1.0000
  H   H1009     1.0  0.32407  0.30189  0.63113  1.0000
  N   N56       1.0  0.42818  0.28846  0.49225  1.0000
  H   H1010     1.0  0.30060  0.28399  0.62821  1.0000
  C   C861      1.0  0.26623  0.05228  0.73170  1.0000
  H   H1011     1.0  0.44763  0.30936  0.49244  1.0000
  C   C862      1.0  0.47185  0.27385  0.57182  1.0000
  C   C863      1.0  0.27043  0.20839  0.51801  1.0000
  S   S225      1.0  0.46243  0.14299  0.57878  1.0000
  N   N57       1.0  0.36529  0.13961  0.84667  1.0000
  C   C864      1.0  0.35312  0.15989  0.85205  1.0000
  C   C865      1.0  0.38776  0.14081  0.84018  1.0000
  C   C866      1.0  0.35871  0.13692  0.82818  1.0000
  C   C867      1.0  0.36198  0.12249  0.86530  1.0000
  C   C868      1.0  0.37001  0.12110  0.88329  1.0000
  C   C869      1.0  0.35049  0.10707  0.86640  1.0000
  C   C870      1.0  0.36759  0.10473  0.90079  1.0000
  C   C871      1.0  0.34812  0.09078  0.88400  1.0000
  C   C872      1.0  0.35681  0.08950  0.90107  1.0000
  H   H1012     1.0  0.35537  0.17324  0.83850  1.0000
  H   H1013     1.0  0.33611  0.15982  0.85671  1.0000
  H   H1014     1.0  0.35782  0.16344  0.86525  1.0000
  H   H1015     1.0  0.39777  0.12525  0.83818  1.0000
  H   H1016     1.0  0.39330  0.14625  0.85165  1.0000
  H   H1017     1.0  0.39107  0.15213  0.82506  1.0000
  H   H1018     1.0  0.36700  0.12173  0.82355  1.0000
  H   H1019     1.0  0.34156  0.13794  0.83099  1.0000
  H   H1020     1.0  0.36220  0.14943  0.81413  1.0000
  H   H1021     1.0  0.37853  0.13247  0.88385  1.0000
  H   H1022     1.0  0.34365  0.10685  0.85366  1.0000
  H   H1023     1.0  0.37444  0.10361  0.91407  1.0000
  H   H1024     1.0  0.33993  0.07877  0.88413  1.0000
  H   H1025     1.0  0.35535  0.07659  0.91446  1.0000
  N   N58       1.0  0.46511  0.02137  0.84832  1.0000
  H   H1026     1.0  0.44216  0.01029  0.87499  1.0000
  C   C873      1.0  0.45028  0.02729  0.83387  1.0000
  C   C874      1.0  0.24477  0.01044  0.59170  1.0000
  S   S226      1.0  0.25393  0.27954  0.56800  1.0000
  S   S227      1.0  0.37457  0.01242  0.71518  1.0000
  C   C875      1.0  0.47077  0.05840  0.84077  1.0000
  H   H1027     1.0  0.27837  0.04452  0.57104  1.0000
  H   H1028     1.0  0.26392  0.18413  0.75782  1.0000
  H   H1029     1.0  0.44295  0.03733  0.87155  1.0000
  S   S228      1.0  0.37508  0.11913  0.50870  1.0000
  H   H1030     1.0  0.25757  0.99648  0.62922  1.0000
  H   H1031     1.0  0.42086  0.26676  0.61340  1.0000
  H   H1032     1.0  0.43872  0.04206  0.83604  1.0000
  C   C876      1.0  0.25669  0.31877  0.69210  1.0000
  H   H1033     1.0  0.45875  0.02964  0.81722  1.0000
  H   H1034     1.0  0.26046  0.05620  0.71730  1.0000
  C   C877      1.0  0.45367  0.02647  0.65441  1.0000
  H   H1035     1.0  0.44560  0.21138  0.64839  1.0000
  H   H1036     1.0  0.25749  0.21387  0.50995  1.0000
  H   H1037     1.0  0.45413  0.06427  0.84385  1.0000
  H   H1038     1.0  0.30559  0.03447  0.70940  1.0000
  H   H1039     1.0  0.44306  0.29023  0.51649  1.0000
  H   H1040     1.0  0.45614  0.32120  0.55070  1.0000
  S   S229      1.0  0.41050  0.23114  0.55743  1.0000
  H   H1041     1.0  0.48267  0.13387  0.91853  1.0000
  S   S230      1.0  0.39762  0.04014  0.66015  1.0000
  C   C878      1.0  0.28401  0.17446  0.79798  1.0000
  C   C879      1.0  0.30032  0.15698  0.79615  1.0000
  N   N59       1.0  0.47851  0.20998  0.63723  1.0000
  N   N60       1.0  0.31549  0.00095  0.71201  1.0000
  C   C880      1.0  0.29685  0.09891  0.66108  1.0000
  C   C881      1.0  0.41104  0.30643  0.56214  1.0000
  Fe  Fe117     1.0  0.34616  0.08082  0.66764  1.0000
  H   H1042     1.0  0.27180  0.32504  0.83721  1.0000
  S   S231      1.0  0.45051  0.04586  0.94917  1.0000
  H   H1043     1.0  0.39905  0.28630  0.79740  1.0000
  C   C882      1.0  0.26261  0.08805  0.65288  1.0000
  C   C883      1.0  0.26804  0.10747  0.64296  1.0000
  H   H1044     1.0  0.46567  0.27420  0.58824  1.0000
  H   H1045     1.0  0.41125  0.00286  0.82660  1.0000
  C   C884      1.0  0.26010  0.03587  0.74781  1.0000
  S   S232      1.0  0.24405  0.02025  0.74476  1.0000
  C   C885      1.0  0.47643  0.99940  0.84772  1.0000
  H   H1046     1.0  0.36923  0.28439  0.62668  1.0000
  H   H1047     1.0  0.38813  0.13416  0.76510  1.0000
  C   C886      1.0  0.24871  0.11652  0.58904  1.0000
  H   H1048     1.0  0.48676  0.99348  0.85933  1.0000
  H   H1049     1.0  0.28325  0.00153  0.61768  1.0000
  C   C887      1.0  0.45710  0.06651  0.59343  1.0000
  Fe  Fe118     1.0  0.29706  0.29847  0.52104  1.0000
  C   C888      1.0  0.33551  0.00910  0.64459  1.0000
  H   H1050     1.0  0.34836  0.18768  0.52912  1.0000
  H   H1051     1.0  0.27087  0.21948  0.74083  1.0000
  C   C889      1.0  0.44412  0.03759  0.61972  1.0000
  H   H1052     1.0  0.45310  0.12308  0.97946  1.0000
  C   C890      1.0  0.31579  0.01925  0.65347  1.0000
  C   C891      1.0  0.46553  0.26064  0.56245  1.0000
  H   H1053     1.0  0.42040  0.07474  0.62167  1.0000
  C   C892      1.0  0.48909  0.04121  0.76811  1.0000
  H   H1054     1.0  0.40680  0.06105  0.61197  1.0000
  Fe  Fe119     1.0  0.42865  0.06990  0.89839  1.0000
  H   H1055     1.0  0.45803  0.09173  0.72863  1.0000
  H   H1056     1.0  0.39456  0.29824  0.49814  1.0000
  H   H1057     1.0  0.40020  0.04501  0.88752  1.0000
  C   C893      1.0  0.26734  0.00849  0.62561  1.0000
  Fe  Fe120     1.0  0.46044  0.07160  0.92310  1.0000
  H   H1058     1.0  0.47972  0.14337  0.89207  1.0000
  S   S233      1.0  0.31765  0.09661  0.83012  1.0000
  H   H1059     1.0  0.36078  0.24013  0.64661  1.0000
  S   S234      1.0  0.37679  0.03944  0.61120  1.0000
  C   C894      1.0  0.45072  0.10253  0.71574  1.0000
  C   C895      1.0  0.27174  0.04377  0.61016  1.0000
  C   C896      1.0  0.48748  0.09419  0.94566  1.0000
  S   S235      1.0  0.41599  0.04425  0.92305  1.0000
  C   C897      1.0  0.36073  0.02099  0.77114  1.0000
  N   N61       1.0  0.33341  0.12588  0.72260  1.0000
  C   C898      1.0  0.32017  0.11652  0.71441  1.0000
  C   C899      1.0  0.34318  0.10923  0.73836  1.0000
  C   C900      1.0  0.31926  0.14266  0.73317  1.0000
  C   C901      1.0  0.35007  0.13450  0.70624  1.0000
  C   C902      1.0  0.36267  0.14576  0.71131  1.0000
  C   C903      1.0  0.35492  0.13130  0.68529  1.0000
  C   C904      1.0  0.37845  0.15411  0.69612  1.0000
  C   C905      1.0  0.37100  0.13941  0.67031  1.0000
  C   C906      1.0  0.38257  0.15097  0.67565  1.0000
  H   H1060     1.0  0.32914  0.10228  0.70821  1.0000
  H   H1061     1.0  0.30719  0.11109  0.72694  1.0000
  H   H1062     1.0  0.31290  0.12800  0.70184  1.0000
  H   H1063     1.0  0.35418  0.09646  0.73100  1.0000
  H   H1064     1.0  0.33121  0.10188  0.75058  1.0000
  H   H1065     1.0  0.35198  0.11536  0.74658  1.0000
  H   H1066     1.0  0.31240  0.15596  0.72162  1.0000
  H   H1067     1.0  0.30618  0.13670  0.74511  1.0000
  H   H1068     1.0  0.32725  0.14907  0.74190  1.0000
  H   H1069     1.0  0.36051  0.14807  0.72714  1.0000
  H   H1070     1.0  0.34662  0.12246  0.68012  1.0000
  H   H1071     1.0  0.38772  0.16285  0.70031  1.0000
  H   H1072     1.0  0.37458  0.13664  0.65447  1.0000
  H   H1073     1.0  0.39491  0.15729  0.66392  1.0000
  C   C907      1.0  0.26835  0.03382  0.57240  1.0000
  S   S236      1.0  0.31647  0.12514  0.53506  1.0000
  H   H1074     1.0  0.49066  0.15167  0.93905  1.0000
  C   C908      1.0  0.48311  0.18735  0.63625  1.0000
  S   S237      1.0  0.30345  0.05841  0.81710  1.0000
  S   S238      1.0  0.33448  0.08364  0.51321  1.0000
  S   S239      1.0  0.29795  0.10633  0.78809  1.0000
  H   H1075     1.0  0.42137  0.00194  0.94290  1.0000
  C   C909      1.0  0.48628  0.14629  0.90443  1.0000
  H   H1076     1.0  0.39194  0.01253  0.77576  1.0000
  C   C910      1.0  0.48296  0.07503  0.77720  1.0000
  S   S240      1.0  0.47283  0.17699  0.71964  1.0000
  C   C911      1.0  0.30297  0.19370  0.53992  1.0000
  H   H1077     1.0  0.37817  0.10237  0.78915  1.0000
  C   C912      1.0  0.40847  0.30106  0.50220  1.0000
  H   H1078     1.0  0.26369  0.23591  0.53150  1.0000
  H   H1079     1.0  0.30184  0.23825  0.59408  1.0000
  C   C913      1.0  0.48363  0.07313  0.83517  1.0000
  S   S241      1.0  0.36790  0.07303  0.69012  1.0000
  C   C914      1.0  0.47917  0.03657  0.84238  1.0000
  C   C915      1.0  0.39671  0.08147  0.76869  1.0000
  S   S242      1.0  0.25647  0.10075  0.83850  1.0000
  N   N62       1.0  0.33710  0.13270  0.59165  1.0000
  C   C916      1.0  0.32157  0.11911  0.59626  1.0000
  C   C917      1.0  0.33726  0.13789  0.61179  1.0000
  C   C918      1.0  0.32982  0.15231  0.57712  1.0000
  C   C919      1.0  0.35841  0.12285  0.58195  1.0000
  C   C920      1.0  0.37533  0.13322  0.57799  1.0000
  C   C921      1.0  0.36278  0.10364  0.57495  1.0000
  C   C922      1.0  0.39528  0.12489  0.56765  1.0000
  C   C923      1.0  0.38273  0.09557  0.56442  1.0000
  C   C924      1.0  0.39890  0.10626  0.56063  1.0000
  H   H1080     1.0  0.32613  0.10416  0.60735  1.0000
  H   H1081     1.0  0.30577  0.12681  0.60367  1.0000
  H   H1082     1.0  0.31956  0.11540  0.58175  1.0000
  H   H1083     1.0  0.34361  0.12364  0.62274  1.0000
  H   H1084     1.0  0.32125  0.14428  0.61999  1.0000
  H   H1085     1.0  0.34667  0.14990  0.60968  1.0000
  H   H1086     1.0  0.32988  0.14899  0.56169  1.0000
  H   H1087     1.0  0.31368  0.16020  0.58347  1.0000
  H   H1088     1.0  0.34000  0.16393  0.57385  1.0000
  H   H1089     1.0  0.37314  0.14829  0.58209  1.0000
  H   H1090     1.0  0.35096  0.09476  0.57684  1.0000
  C   C925      1.0  0.29383  0.31845  0.67919  1.0000
  H   H1091     1.0  0.25792  0.32298  0.63319  1.0000
  C   C926      1.0  0.43792  0.04640  0.58340  1.0000
  C   C927      1.0  0.42885  0.12802  0.60595  1.0000
  C   C928      1.0  0.45020  0.12821  0.60203  1.0000
  C   C929      1.0  0.39704  0.14433  0.51720  1.0000
  H   H1092     1.0  0.43630  0.05913  0.56926  1.0000
  C   C930      1.0  0.40457  0.20398  0.65994  1.0000
  H   H1093     1.0  0.28091  0.29778  0.70717  1.0000
  C   C931      1.0  0.41148  0.02359  0.71305  1.0000
  S   S243      1.0  0.34662  0.04725  0.66824  1.0000
  H   H1094     1.0  0.32822  0.02718  0.77024  1.0000
  C   C932      1.0  0.27747  0.31037  0.69407  1.0000
  N   N63       1.0  0.37471  0.27124  0.74488  1.0000
  C   C933      1.0  0.37895  0.25551  0.73151  1.0000
  C   C934      1.0  0.35315  0.27162  0.75746  1.0000
  C   C935      1.0  0.37560  0.29206  0.73083  1.0000
  C   C936      1.0  0.38976  0.26681  0.75883  1.0000
  C   C937      1.0  0.38710  0.27970  0.77349  1.0000
  C   C938      1.0  0.40787  0.25048  0.75768  1.0000
  C   C939      1.0  0.42234  0.24742  0.77033  1.0000
  H   H1095     1.0  0.39434  0.25530  0.72051  1.0000
  H   H1096     1.0  0.37866  0.23941  0.74125  1.0000
  H   H1097     1.0  0.36713  0.25906  0.72154  1.0000
  H   H1098     1.0  0.34790  0.28386  0.76713  1.0000
  H   H1099     1.0  0.35196  0.25627  0.76838  1.0000
  H   H1100     1.0  0.34149  0.27495  0.74736  1.0000
  H   H1101     1.0  0.37150  0.30488  0.73973  1.0000
  H   H1102     1.0  0.39156  0.29251  0.72117  1.0000
  H   H1103     1.0  0.36453  0.29624  0.71998  1.0000
  H   H1104     1.0  0.37383  0.29254  0.77517  1.0000
  H   H1105     1.0  0.41136  0.23985  0.74708  1.0000
  H   H1106     1.0  0.36843  0.99970  0.84769  1.0000
  C   C940      1.0  0.33686  0.23880  0.50846  1.0000
  Fe  Fe121     1.0  0.44358  0.17531  0.56979  1.0000
  H   H1107     1.0  0.40532  0.25720  0.58873  1.0000
  S   S244      1.0  0.35220  0.31649  0.67724  1.0000
  H   H1108     1.0  0.34473  0.15523  0.52033  1.0000
  H   H1109     1.0  0.44201  0.25524  0.49530  1.0000
  H   H1110     1.0  0.45438  0.25106  0.57161  1.0000
  N   N64       1.0  0.38679  0.99383  0.81764  1.0000
  H   H1111     1.0  0.39229  0.06753  0.77944  1.0000
  C   C941      1.0  0.42227  0.11165  0.69737  1.0000
  H   H1112     1.0  0.27019  0.05907  0.67471  1.0000
  C   C942      1.0  0.42061  0.31230  0.57571  1.0000
  H   H1113     1.0  0.32603  0.22886  0.51921  1.0000
  C   C943      1.0  0.39433  0.11898  0.76060  1.0000
  H   H1114     1.0  0.44091  0.01504  0.83654  1.0000
  H   H1115     1.0  0.41456  0.26186  0.49518  1.0000
  C   C944      1.0  0.47531  0.05921  0.77347  1.0000
  H   H1116     1.0  0.24905  0.20943  0.57192  1.0000
  S   S245      1.0  0.46628  0.24339  0.52897  1.0000
  N   N65       1.0  0.43126  0.09677  0.71482  1.0000
  H   H1117     1.0  0.39041  0.02403  0.81980  1.0000
  H   H1118     1.0  0.26564  0.05933  0.60082  1.0000
  C   C945      1.0  0.34873  0.00434  0.81385  1.0000
  H   H1119     1.0  0.46239  0.10221  0.70071  1.0000
  H   H1120     1.0  0.27207  0.04670  0.62564  1.0000
  H   H1121     1.0  0.31030  0.02024  0.73477  1.0000
  H   H1122     1.0  0.43046  0.25778  0.79435  1.0000
  Fe  Fe122     1.0  0.41407  0.21033  0.58870  1.0000
  C   C946      1.0  0.41919  0.26030  0.78457  1.0000
  Fe  Fe123     1.0  0.30701  0.09509  0.53725  1.0000
  Fe  Fe124     1.0  0.37313  0.05088  0.64071  1.0000
  Fe  Fe125     1.0  0.34252  0.11519  0.50930  1.0000
  C   C947      1.0  0.41530  0.19032  0.67513  1.0000
  S   S246      1.0  0.44530  0.15634  0.68793  1.0000
  H   H1123     1.0  0.39317  0.21767  0.66388  1.0000
  H   H1124     1.0  0.28778  0.03800  0.78302  1.0000
  H   H1125     1.0  0.47673  0.08974  0.83404  1.0000
  S   S247      1.0  0.30405  0.28042  0.55214  1.0000
  Fe  Fe126     1.0  0.37108  0.03959  0.68779  1.0000
  H   H1126     1.0  0.40709  0.03654  0.70066  1.0000
  C   C948      1.0  0.36185  0.17529  0.52648  1.0000
  S   S248      1.0  0.42798  0.08989  0.92112  1.0000
  S   S249      1.0  0.29732  0.07828  0.57046  1.0000
  C   C949      1.0  0.38145  0.17811  0.52721  1.0000
  H   H1127     1.0  0.26293  0.01841  0.77898  1.0000
  C   C950      1.0  0.43031  0.02129  0.71931  1.0000
  H   H1128     1.0  0.48605  0.99801  0.83185  1.0000
  C   C951      1.0  0.45657  0.21913  0.63525  1.0000
  C   C952      1.0  0.40544  0.28683  0.56691  1.0000
  H   H1129     1.0  0.47234  0.08928  0.78101  1.0000
  H   H1130     1.0  0.41197  0.19347  0.69070  1.0000
  H   H1131     1.0  0.40970  0.01263  0.79977  1.0000
  H   H1132     1.0  0.31739  0.01291  0.80813  1.0000
  H   H1133     1.0  0.39813  0.28258  0.55644  1.0000
  C   C953      1.0  0.43975  0.01727  0.62270  1.0000
  H   H1134     1.0  0.30974  0.16665  0.52638  1.0000
  C   C954      1.0  0.40929  0.27252  0.58518  1.0000
  H   H1135     1.0  0.28890  0.99376  0.73645  1.0000
  H   H1136     1.0  0.47104  0.20116  0.67115  1.0000
  C   C955      1.0  0.39908  0.16245  0.52280  1.0000
  H   H1137     1.0  0.46417  0.99924  0.97015  1.0000
  C   C956      1.0  0.29186  0.07920  0.67057  1.0000
  H   H1138     1.0  0.42354  0.03978  0.58708  1.0000
  C   C957      1.0  0.46787  0.11501  0.97172  1.0000
  H   H1139     1.0  0.46078  0.28239  0.49412  1.0000
  H   H1140     1.0  0.47831  0.18455  0.62273  1.0000
  Fe  Fe127     1.0  0.41810  0.06269  0.94571  1.0000
  S   S250      1.0  0.44329  0.19290  0.53660  1.0000
  S   S251      1.0  0.44900  0.20223  0.58038  1.0000
  C   C958      1.0  0.38877  0.10101  0.77426  1.0000
  S   S252      1.0  0.29255  0.22595  0.56007  1.0000
  C   C959      1.0  0.29938  0.26182  0.61149  1.0000
  H   H1141     1.0  0.30094  0.06834  0.68139  1.0000
  H   H1142     1.0  0.25334  0.09953  0.59237  1.0000
  H   H1143     1.0  0.45548  0.07778  0.57832  1.0000
  C   C960      1.0  0.25104  0.09591  0.80145  1.0000
  H   H1144     1.0  0.29427  0.02531  0.68135  1.0000
  H   H1145     1.0  0.47266  0.05582  0.59096  1.0000
  H   H1146     1.0  0.26119  0.15842  0.55210  1.0000
  S   S253      1.0  0.27781  0.27671  0.51887  1.0000
  C   C961      1.0  0.28998  0.21317  0.54155  1.0000
  H   H1147     1.0  0.30977  0.31198  0.68088  1.0000
  H   H1148     1.0  0.33633  0.24789  0.66369  1.0000
  C   C962      1.0  0.27404  0.22093  0.53007  1.0000
  H   H1149     1.0  0.45871  0.06101  0.77451  1.0000
  C   C963      1.0  0.41022  0.07982  0.74933  1.0000
  C   C964      1.0  0.40010  0.00900  0.81579  1.0000
  Fe  Fe128     1.0  0.28954  0.09124  0.82201  1.0000
  C   C965      1.0  0.45289  0.02162  0.86998  1.0000
  H   H1150     1.0  0.28339  0.26898  0.60997  1.0000
  S   S254      1.0  0.27271  0.31700  0.75982  1.0000
  H   H1151     1.0  0.30576  0.02993  0.64337  1.0000
  Fe  Fe129     1.0  0.27497  0.30140  0.56545  1.0000
  H   H1152     1.0  0.45255  0.23622  0.63546  1.0000
  Fe  Fe130     1.0  0.38252  0.31112  0.65466  1.0000
  S   S255      1.0  0.26674  0.21630  0.79091  1.0000
  S   S256      1.0  0.39671  0.06519  0.97675  1.0000
  Fe  Fe131     1.0  0.44532  0.22079  0.54835  1.0000
  H   H1153     1.0  0.42294  0.07033  0.70867  1.0000
  C   C966      1.0  0.40791  0.11751  0.74131  1.0000
  H   H1154     1.0  0.45716  0.07651  0.60427  1.0000
  S   S257      1.0  0.28526  0.10941  0.51475  1.0000
  Fe  Fe132     1.0  0.26216  0.27096  0.83119  1.0000
  H   H1155     1.0  0.33855  0.29473  0.65147  1.0000
  C   C967      1.0  0.30932  0.01640  0.67529  1.0000
  H   H1156     1.0  0.48866  0.17173  0.77944  1.0000
  H   H1157     1.0  0.33005  0.30898  0.53462  1.0000
  C   C968      1.0  0.26762  0.03108  0.76645  1.0000
  H   H1158     1.0  0.45331  0.21732  0.62047  1.0000
  H   H1159     1.0  0.44784  0.11869  0.71855  1.0000
  H   H1160     1.0  0.41434  0.16458  0.52306  1.0000
  H   H1161     1.0  0.41076  0.13252  0.51325  1.0000
  H   H1162     1.0  0.40384  0.02466  0.96740  1.0000
  H   H1163     1.0  0.47768  0.16189  0.90790  1.0000
  H   H1164     1.0  0.44762  0.07556  0.69387  1.0000
  H   H1165     1.0  0.43332  0.11134  0.68197  1.0000
  H   H1166     1.0  0.40756  0.10788  0.69615  1.0000
  S   S258      1.0  0.45913  0.00394  0.74385  1.0000
  C   C969      1.0  0.37585  0.01247  0.78347  1.0000
  C   C970      1.0  0.40156  0.27637  0.78621  1.0000
  C   C971      1.0  0.25257  0.19561  0.74972  1.0000
  H   H1167     1.0  0.44539  0.06369  0.72105  1.0000
  S   S259      1.0  0.27578  0.31434  0.59258  1.0000
  C   C972      1.0  0.42362  0.29755  0.59460  1.0000
  S   S260      1.0  0.27645  0.17089  0.50568  1.0000
  H   H1168     1.0  0.43046  0.30057  0.60614  1.0000
  C   C973      1.0  0.35976  0.15697  0.52146  1.0000
  S   S261      1.0  0.26932  0.32117  0.53440  1.0000
  H   H1169     1.0  0.35817  0.26003  0.66064  1.0000
  C   C974      1.0  0.48662  0.28607  0.56026  1.0000
  C   C975      1.0  0.30976  0.24454  0.60247  1.0000
  H   H1170     1.0  0.40857  0.31814  0.49753  1.0000
  H   H1171     1.0  0.45176  0.03412  0.57889  1.0000
  H   H1172     1.0  0.36525  0.02759  0.75456  1.0000
  S   S262      1.0  0.46901  0.99280  0.79837  1.0000
  C   C976      1.0  0.29962  0.18151  0.52762  1.0000
  H   H1173     1.0  0.47445  0.17795  0.65038  1.0000
  C   C977      1.0  0.41815  0.27793  0.59906  1.0000
  C   C978      1.0  0.25428  0.01593  0.55378  1.0000
  H   H1174     1.0  0.41876  0.12818  0.69906  1.0000
  N   N66       1.0  0.44003  0.05444  0.60126  1.0000
  H   H1175     1.0  0.31531  0.18787  0.54865  1.0000
  H   H1176     1.0  0.35673  0.23631  0.61531  1.0000
  C   C979      1.0  0.33040  0.23557  0.60399  1.0000
  C   C980      1.0  0.39842  0.00926  0.72286  1.0000
  C   C981      1.0  0.25164  0.19193  0.57572  1.0000
  H   H1177     1.0  0.41574  0.06421  0.74599  1.0000
  C   C982      1.0  0.37034  0.00373  0.80520  1.0000
  Fe  Fe133     1.0  0.25071  0.29735  0.53555  1.0000
  H   H1178     1.0  0.33171  0.02422  0.71317  1.0000
  H   H1179     1.0  0.27066  0.03324  0.50061  1.0000
  C   C983      1.0  0.47382  0.25973  0.54136  1.0000
  H   H1180     1.0  0.41209  0.13190  0.73153  1.0000
  C   C984      1.0  0.25849  0.12822  0.57068  1.0000
  S   S263      1.0  0.26742  0.32166  0.91491  1.0000
  H   H1181     1.0  0.28824  0.03820  0.60256  1.0000
  H   H1182     1.0  0.47493  0.22731  0.66148  1.0000
  H   H1183     1.0  0.41717  0.08296  0.59500  1.0000
  H   H1184     1.0  0.43354  0.01292  0.61150  1.0000
  S   S264      1.0  0.48899  0.08215  0.92468  1.0000
  C   C985      1.0  0.34012  0.31783  0.52250  1.0000
  C   C986      1.0  0.42028  0.06899  0.60766  1.0000
  C   C987      1.0  0.43605  0.00499  0.73574  1.0000
  H   H1185     1.0  0.30794  0.31809  0.77648  1.0000
  S   S265      1.0  0.25190  0.27203  0.80191  1.0000
  H   H1186     1.0  0.26891  0.17221  0.80732  1.0000
  C   C988      1.0  0.48060  0.21109  0.65839  1.0000
  S   S266      1.0  0.32297  0.30787  0.49428  1.0000
  H   H1187     1.0  0.45351  0.05710  0.63582  1.0000
  H   H1188     1.0  0.33224  0.25453  0.51281  1.0000
  C   C989      1.0  0.31119  0.32387  0.75969  1.0000
  H   H1189     1.0  0.46336  0.01723  0.88143  1.0000
  C   C990      1.0  0.45096  0.04175  0.63629  1.0000
  H   H1190     1.0  0.42396  0.26203  0.51788  1.0000
  C   C991      1.0  0.34257  0.99325  0.67936  1.0000
  C   C992      1.0  0.42710  0.26598  0.50041  1.0000
  C   C993      1.0  0.24495  0.29098  0.87382  1.0000
  C   C994      1.0  0.29658  0.32480  0.74781  1.0000
  S   S267      1.0  0.46552  0.99589  0.92532  1.0000
  C   C995      1.0  0.26678  0.02961  0.55359  1.0000
  H   H1191     1.0  0.34074  0.01171  0.62767  1.0000
  C   C996      1.0  0.44264  0.00205  0.64087  1.0000
  H   H1192     1.0  0.25687  0.18638  0.59096  1.0000
  H   H1193     1.0  0.24592  0.24576  0.72261  1.0000
  H   H1194     1.0  0.40786  0.31703  0.54773  1.0000
  H   H1195     1.0  0.24361  0.26372  0.75158  1.0000
  H   H1196     1.0  0.48321  0.02902  0.76483  1.0000
  C   C997      1.0  0.33975  0.31985  0.50139  1.0000
  C   C998      1.0  0.40435  0.99258  0.73901  1.0000
  Fe  Fe134     1.0  0.31337  0.10006  0.49030  1.0000
  H   H1197     1.0  0.49081  0.01751  0.95538  1.0000
  H   H1198     1.0  0.24930  0.09601  0.76995  1.0000
  H   H1199     1.0  0.25316  0.01271  0.53914  1.0000
  C   C999      1.0  0.33979  0.02084  0.77996  1.0000
  C   C1000     1.0  0.44957  0.00664  0.65669  1.0000
  H   H1200     1.0  0.48633  0.20939  0.59516  1.0000
  H   H1201     1.0  0.40261  0.10821  0.98531  1.0000
  C   C1001     1.0  0.29392  0.99688  0.71902  1.0000
  H   H1202     1.0  0.45843  0.03022  0.66704  1.0000
  C   C1002     1.0  0.24331  0.00635  0.57281  1.0000
  H   H1203     1.0  0.46681  0.06098  0.98644  1.0000
  H   H1204     1.0  0.48554  0.32325  0.61300  1.0000
  C   C1003     1.0  0.33378  0.01264  0.80126  1.0000
  H   H1205     1.0  0.45128  0.99500  0.67098  1.0000
  H   H1206     1.0  0.34293  0.99867  0.83031  1.0000
  H   H1207     1.0  0.45130  0.32463  0.58787  1.0000
  Fe  Fe135     1.0  0.47074  0.48374  0.28348  1.0000
  S   S268      1.0  0.43858  0.63806  0.25687  1.0000
  S   S269      1.0  0.45869  0.51038  0.25873  1.0000
  Fe  Fe136     1.0  0.46323  0.46934  0.33076  1.0000
  S   S270      1.0  0.44339  0.47426  0.36198  1.0000
  S   S271      1.0  0.45289  0.46018  0.30584  1.0000
  Fe  Fe137     1.0  0.38436  0.51430  0.13419  1.0000
  S   S272      1.0  0.38055  0.54906  0.12272  1.0000
  S   S273      1.0  0.37093  0.49229  0.12378  1.0000
  Fe  Fe138     1.0  0.41085  0.51327  0.16470  1.0000
  S   S274      1.0  0.40983  0.54813  0.15575  1.0000
  S   S275      1.0  0.42562  0.48807  0.18893  1.0000
  Fe  Fe139     1.0  0.37593  0.55074  0.15635  1.0000
  S   S276      1.0  0.35184  0.57754  0.16750  1.0000
  Fe  Fe140     1.0  0.41457  0.54388  0.12268  1.0000
  S   S277      1.0  0.43216  0.56103  0.09299  1.0000
  S   S278      1.0  0.37638  0.51636  0.16807  1.0000
  S   S279      1.0  0.41887  0.50878  0.13140  1.0000
  S   S280      1.0  0.26876  0.58665  0.13624  1.0000
  S   S281      1.0  0.44675  0.57144  0.39669  1.0000
  H   H1208     1.0  0.25324  0.53836  0.29967  1.0000
  Fe  Fe141     1.0  0.44095  0.54252  0.42101  1.0000
  S   S282      1.0  0.45282  0.51029  0.41347  1.0000
  C   C1004     1.0  0.35370  0.63183  0.09527  1.0000
  C   C1005     1.0  0.48660  0.62286  0.47539  1.0000
  Fe  Fe142     1.0  0.44889  0.36660  0.47586  1.0000
  S   S283      1.0  0.42497  0.35381  0.46805  1.0000
  C   C1006     1.0  0.41144  0.55452  0.02006  1.0000
  Fe  Fe143     1.0  0.42036  0.40906  0.47871  1.0000
  S   S284      1.0  0.39358  0.39984  0.47170  1.0000
  H   H1209     1.0  0.44107  0.59074  0.31737  1.0000
  C   C1007     1.0  0.41728  0.59718  0.18983  1.0000
  Fe  Fe144     1.0  0.41829  0.38552  0.44712  1.0000
  S   S285      1.0  0.41554  0.38977  0.41376  1.0000
  S   S286      1.0  0.44445  0.39680  0.45266  1.0000
  Fe  Fe145     1.0  0.32726  0.57608  0.26687  1.0000
  S   S287      1.0  0.32848  0.56292  0.23880  1.0000
  Fe  Fe146     1.0  0.33038  0.61701  0.27637  1.0000
  H   H1210     1.0  0.24557  0.64241  0.24956  1.0000
  Fe  Fe147     1.0  0.34472  0.57601  0.30502  1.0000
  S   S288      1.0  0.37085  0.55871  0.32267  1.0000
  S   S289      1.0  0.35412  0.58810  0.27029  1.0000
  H   H1211     1.0  0.30832  0.55116  0.08029  1.0000
  C   C1008     1.0  0.37178  0.64817  0.01963  1.0000
  H   H1212     1.0  0.27772  0.64248  0.01625  1.0000
  C   C1009     1.0  0.45114  0.60083  0.11696  1.0000
  C   C1010     1.0  0.45444  0.62602  0.36465  1.0000
  H   H1213     1.0  0.42057  0.54362  0.00946  1.0000
  S   S290      1.0  0.33299  0.58761  0.04964  1.0000
  Fe  Fe148     1.0  0.41686  0.56728  0.45436  1.0000
  S   S291      1.0  0.32986  0.53047  0.04433  1.0000
  H   H1214     1.0  0.44383  0.53604  0.22233  1.0000
  H   H1215     1.0  0.38232  0.61990  0.30389  1.0000
  H   H1216     1.0  0.38012  0.61261  0.06662  1.0000
  C   C1011     1.0  0.42672  0.49651  0.45009  1.0000
  H   H1217     1.0  0.41760  0.63098  0.32356  1.0000
  H   H1218     1.0  0.44589  0.62853  0.38001  1.0000
  S   S292      1.0  0.40677  0.55460  0.43158  1.0000
  H   H1219     1.0  0.48484  0.53429  0.40591  1.0000
  C   C1012     1.0  0.48724  0.65176  0.39767  1.0000
  H   H1220     1.0  0.30635  0.36176  0.01046  1.0000
  C   C1013     1.0  0.28791  0.65193  0.05365  1.0000
  H   H1221     1.0  0.37707  0.47762  0.46714  1.0000
  C   C1014     1.0  0.41755  0.57573  0.19447  1.0000
  C   C1015     1.0  0.41199  0.64814  0.36829  1.0000
  S   S293      1.0  0.25997  0.52911  0.16768  1.0000
  Fe  Fe149     1.0  0.29864  0.59197  0.30405  1.0000
  H   H1222     1.0  0.25581  0.50524  0.99988  1.0000
  H   H1223     1.0  0.39886  0.62798  0.18791  1.0000
  H   H1224     1.0  0.34138  0.60232  0.22661  1.0000
  H   H1225     1.0  0.39501  0.63733  0.07856  1.0000
  C   C1016     1.0  0.46986  0.58810  0.29447  1.0000
  H   H1226     1.0  0.25830  0.57578  0.25580  1.0000
  C   C1017     1.0  0.30134  0.37361  0.99680  1.0000
  C   C1018     1.0  0.27988  0.53305  0.25215  1.0000
  S   S294      1.0  0.48138  0.34932  0.47801  1.0000
  C   C1019     1.0  0.48269  0.38904  0.36295  1.0000
  H   H1227     1.0  0.25916  0.62604  0.26948  1.0000
  S   S295      1.0  0.48150  0.59581  0.42080  1.0000
  H   H1228     1.0  0.40780  0.48560  0.47998  1.0000
  C   C1020     1.0  0.26305  0.58939  0.25860  1.0000
  C   C1021     1.0  0.47872  0.61719  0.32644  1.0000
  C   C1022     1.0  0.25892  0.63557  0.30786  1.0000
  C   C1023     1.0  0.38503  0.58924  0.36997  1.0000
  C   C1024     1.0  0.39879  0.57150  0.36366  1.0000
  C   C1025     1.0  0.39458  0.56251  0.34877  1.0000
  C   C1026     1.0  0.37644  0.57100  0.34040  1.0000
  C   C1027     1.0  0.36305  0.58898  0.34641  1.0000
  C   C1028     1.0  0.36739  0.59813  0.36100  1.0000
  H   H1229     1.0  0.41264  0.56478  0.37022  1.0000
  H   H1230     1.0  0.40529  0.54886  0.34387  1.0000
  S   S296      1.0  0.34708  0.57724  0.00174  1.0000
  H   H1231     1.0  0.35680  0.61199  0.36561  1.0000
  C   C1029     1.0  0.44189  0.49093  0.43299  1.0000
  C   C1030     1.0  0.44066  0.45423  0.44788  1.0000
  C   C1031     1.0  0.44863  0.46977  0.43171  1.0000
  H   H1232     1.0  0.44625  0.43800  0.44684  1.0000
  H   H1233     1.0  0.46006  0.46537  0.41827  1.0000
  C   C1032     1.0  0.30704  0.55347  0.23690  1.0000
  C   C1033     1.0  0.30218  0.55635  0.21717  1.0000
  C   C1034     1.0  0.28594  0.54798  0.21495  1.0000
  H   H1234     1.0  0.31105  0.56503  0.20351  1.0000
  H   H1235     1.0  0.28236  0.55030  0.19963  1.0000
  C   C1035     1.0  0.44962  0.61685  0.08065  1.0000
  C   C1036     1.0  0.44350  0.59916  0.07853  1.0000
  C   C1037     1.0  0.44063  0.58257  0.09579  1.0000
  C   C1038     1.0  0.44427  0.58350  0.11505  1.0000
  H   H1236     1.0  0.24354  0.65839  0.03446  1.0000
  C   C1039     1.0  0.40307  0.48447  0.07034  1.0000
  H   H1237     1.0  0.44240  0.57061  0.12831  1.0000
  C   C1040     1.0  0.32866  0.57982  0.15913  1.0000
  C   C1041     1.0  0.32120  0.56192  0.16004  1.0000
  C   C1042     1.0  0.30243  0.56400  0.15364  1.0000
  C   C1043     1.0  0.29175  0.58384  0.14520  1.0000
  C   C1044     1.0  0.29947  0.60168  0.14389  1.0000
  C   C1045     1.0  0.31762  0.59973  0.15131  1.0000
  H   H1238     1.0  0.32954  0.54651  0.16630  1.0000
  H   H1239     1.0  0.29634  0.55021  0.15507  1.0000
  H   H1240     1.0  0.29108  0.61705  0.13769  1.0000
  H   H1241     1.0  0.32330  0.61361  0.15058  1.0000
  C   C1046     1.0  0.36012  0.50304  0.10133  1.0000
  C   C1047     1.0  0.36183  0.52326  0.08984  1.0000
  C   C1048     1.0  0.35286  0.53163  0.07210  1.0000
  C   C1049     1.0  0.34221  0.51980  0.06576  1.0000
  C   C1050     1.0  0.34084  0.49942  0.07699  1.0000
  C   C1051     1.0  0.34972  0.49108  0.09479  1.0000
  H   H1242     1.0  0.37039  0.53227  0.09434  1.0000
  H   H1243     1.0  0.35449  0.54707  0.06315  1.0000
  H   H1244     1.0  0.33268  0.49016  0.07210  1.0000
  H   H1245     1.0  0.34839  0.47542  0.10362  1.0000
  H   H1246     1.0  0.44992  0.61453  0.45311  1.0000
  H   H1247     1.0  0.37314  0.44081  0.42540  1.0000
  H   H1248     1.0  0.40567  0.61762  0.09845  1.0000
  C   C1052     1.0  0.43431  0.45137  0.37609  1.0000
  C   C1053     1.0  0.42819  0.44819  0.39795  1.0000
  C   C1054     1.0  0.42215  0.42941  0.40955  1.0000
  C   C1055     1.0  0.42166  0.41393  0.39928  1.0000
  C   C1056     1.0  0.42704  0.41741  0.37734  1.0000
  C   C1057     1.0  0.43366  0.43597  0.36578  1.0000
  H   H1249     1.0  0.42835  0.46012  0.40600  1.0000
  H   H1250     1.0  0.41763  0.42709  0.42645  1.0000
  H   H1251     1.0  0.42664  0.40550  0.36931  1.0000
  H   H1252     1.0  0.43830  0.43828  0.34889  1.0000
  C   C1058     1.0  0.45068  0.50386  0.23873  1.0000
  C   C1059     1.0  0.45082  0.48301  0.23885  1.0000
  C   C1060     1.0  0.44345  0.47832  0.22320  1.0000
  C   C1061     1.0  0.43591  0.49443  0.20745  1.0000
  C   C1062     1.0  0.43612  0.51523  0.20710  1.0000
  C   C1063     1.0  0.44351  0.51995  0.22273  1.0000
  H   H1253     1.0  0.45648  0.47051  0.25105  1.0000
  H   H1254     1.0  0.44347  0.46216  0.22338  1.0000
  H   H1255     1.0  0.43086  0.52753  0.19461  1.0000
  H   H1256     1.0  0.39454  0.55714  0.01984  1.0000
  H   H1257     1.0  0.41918  0.65826  0.37394  1.0000
  H   H1258     1.0  0.27796  0.65774  0.12599  1.0000
  C   C1064     1.0  0.41922  0.48103  0.46657  1.0000
  C   C1065     1.0  0.27493  0.53602  0.23240  1.0000
  C   C1066     1.0  0.25068  0.49043  0.00103  1.0000
  H   H1259     1.0  0.29721  0.51771  0.07682  1.0000
  H   H1260     1.0  0.37742  0.64599  0.27148  1.0000
  H   H1261     1.0  0.25973  0.55476  0.12066  1.0000
  C   C1067     1.0  0.37891  0.60492  0.19922  1.0000
  C   C1068     1.0  0.39829  0.61154  0.19211  1.0000
  C   C1069     1.0  0.37972  0.58290  0.20397  1.0000
  C   C1070     1.0  0.48313  0.60513  0.44269  1.0000
  C   C1071     1.0  0.39882  0.56862  0.20166  1.0000
  S   S297      1.0  0.41616  0.44076  0.48633  1.0000
  C   C1072     1.0  0.47618  0.37624  0.40053  1.0000
  C   C1073     1.0  0.25996  0.54636  0.10834  1.0000
  H   H1262     1.0  0.26821  0.62654  0.00510  1.0000
  H   H1263     1.0  0.41699  0.48627  0.09499  1.0000
  N   N67       1.0  0.37385  0.61751  0.09811  1.0000
  C   C1074     1.0  0.24970  0.61796  0.31593  1.0000
  H   H1264     1.0  0.36975  0.64051  0.17080  1.0000
  H   H1265     1.0  0.43181  0.60282  0.18411  1.0000
  N   N68       1.0  0.35908  0.62069  0.20044  1.0000
  H   H1266     1.0  0.46257  0.38937  0.40286  1.0000
  C   C1075     1.0  0.25658  0.62723  0.25349  1.0000
  H   H1267     1.0  0.34391  0.64699  0.21570  1.0000
  H   H1268     1.0  0.39901  0.55196  0.20494  1.0000
  C   C1076     1.0  0.39685  0.49494  0.05154  1.0000
  C   C1077     1.0  0.25213  0.64788  0.12062  1.0000
  N   N69       1.0  0.49228  0.38211  0.38174  1.0000
  C   C1078     1.0  0.26745  0.38197  0.01843  1.0000
  H   H1269     1.0  0.28382  0.56677  0.07513  1.0000
  H   H1270     1.0  0.36609  0.61446  0.13166  1.0000
  H   H1271     1.0  0.46880  0.40192  0.36465  1.0000
  H   H1272     1.0  0.47741  0.37610  0.35949  1.0000
  H   H1273     1.0  0.43229  0.56465  0.19215  1.0000
  H   H1274     1.0  0.39324  0.63674  0.23687  1.0000
  H   H1275     1.0  0.46977  0.36297  0.39933  1.0000
  C   C1079     1.0  0.46327  0.56269  0.32663  1.0000
  C   C1080     1.0  0.38635  0.62946  0.02307  1.0000
  H   H1276     1.0  0.35266  0.33322  0.46945  1.0000
  H   H1277     1.0  0.25026  0.38395  0.02043  1.0000
  H   H1278     1.0  0.39500  0.63838  0.34257  1.0000
  Fe  Fe150     1.0  0.48411  0.43792  0.30312  1.0000
  H   H1279     1.0  0.27172  0.62812  0.24226  1.0000
  H   H1280     1.0  0.27070  0.51550  0.08825  1.0000
  H   H1281     1.0  0.30554  0.38864  0.99668  1.0000
  C   C1081     1.0  0.26206  0.60650  0.21453  1.0000
  H   H1282     1.0  0.48809  0.61354  0.31172  1.0000
  H   H1283     1.0  0.27768  0.59993  0.21725  1.0000
  S   S298      1.0  0.32250  0.62433  0.00841  1.0000
  H   H1284     1.0  0.48045  0.64626  0.38711  1.0000
  C   C1082     1.0  0.42610  0.45980  0.46549  1.0000
  H   H1285     1.0  0.45278  0.55738  0.34112  1.0000
  S   S299      1.0  0.38969  0.60133  0.38831  1.0000
  C   C1083     1.0  0.40083  0.51501  0.04199  1.0000
  H   H1286     1.0  0.46475  0.60271  0.28401  1.0000
  H   H1287     1.0  0.48325  0.47323  0.45299  1.0000
  S   S300      1.0  0.27925  0.62840  0.05876  1.0000
  C   C1084     1.0  0.27115  0.64265  0.00269  1.0000
  H   H1288     1.0  0.32024  0.63669  0.04667  1.0000
  C   C1085     1.0  0.48730  0.61078  0.34431  1.0000
  H   H1289     1.0  0.29108  0.56648  0.09883  1.0000
  S   S301      1.0  0.47865  0.49467  0.30884  1.0000
  C   C1086     1.0  0.48332  0.55067  0.32141  1.0000
  H   H1290     1.0  0.25102  0.53365  0.11602  1.0000
  C   C1087     1.0  0.24631  0.65568  0.30397  1.0000
  H   H1291     1.0  0.27573  0.63372  0.30459  1.0000
  S   S302      1.0  0.41967  0.59845  0.43289  1.0000
  H   H1292     1.0  0.42408  0.52126  0.07901  1.0000
  N   N70       1.0  0.36860  0.50090  0.24094  1.0000
  C   C1088     1.0  0.34594  0.50076  0.24832  1.0000
  C   C1089     1.0  0.37133  0.51856  0.22278  1.0000
  C   C1090     1.0  0.37866  0.48098  0.23349  1.0000
  C   C1091     1.0  0.37747  0.50376  0.25780  1.0000
  C   C1092     1.0  0.36720  0.51978  0.26938  1.0000
  C   C1093     1.0  0.39684  0.49163  0.26255  1.0000
  C   C1094     1.0  0.37528  0.52275  0.28533  1.0000
  C   C1095     1.0  0.40501  0.49504  0.27825  1.0000
  C   C1096     1.0  0.39417  0.51041  0.28977  1.0000
  H   H1293     1.0  0.33652  0.51636  0.25079  1.0000
  H   H1294     1.0  0.33929  0.49682  0.23658  1.0000
  H   H1295     1.0  0.34299  0.48915  0.26329  1.0000
  H   H1296     1.0  0.36538  0.53406  0.22741  1.0000
  H   H1297     1.0  0.36262  0.51858  0.21081  1.0000
  H   H1298     1.0  0.38810  0.51768  0.21504  1.0000
  H   H1299     1.0  0.37771  0.46707  0.24661  1.0000
  H   H1300     1.0  0.37129  0.47899  0.22125  1.0000
  H   H1301     1.0  0.39533  0.48058  0.22578  1.0000
  H   H1302     1.0  0.35286  0.53027  0.26613  1.0000
  H   H1303     1.0  0.40612  0.47948  0.25428  1.0000
  H   H1304     1.0  0.36693  0.53481  0.29422  1.0000
  H   H1305     1.0  0.41996  0.48577  0.28138  1.0000
  H   H1306     1.0  0.40048  0.51287  0.30205  1.0000
  H   H1307     1.0  0.41576  0.61509  0.03265  1.0000
  H   H1308     1.0  0.42067  0.51279  0.45049  1.0000
  H   H1309     1.0  0.38685  0.59406  0.12258  1.0000
  H   H1310     1.0  0.26396  0.58613  0.27548  1.0000
  Fe  Fe151     1.0  0.35062  0.60131  0.01808  1.0000
  C   C1097     1.0  0.46694  0.62302  0.47185  1.0000
  H   H1311     1.0  0.41147  0.63317  0.38001  1.0000
  H   H1312     1.0  0.27090  0.39660  0.02042  1.0000
  C   C1098     1.0  0.25933  0.60933  0.19402  1.0000
  C   C1099     1.0  0.46519  0.61408  0.45571  1.0000
  H   H1313     1.0  0.40550  0.57725  0.04929  1.0000
  H   H1314     1.0  0.44843  0.53483  0.03201  1.0000
  H   H1315     1.0  0.39929  0.46926  0.07811  1.0000
  S   S303      1.0  0.45075  0.55258  0.44565  1.0000
  C   C1100     1.0  0.40425  0.62947  0.03013  1.0000
  H   H1316     1.0  0.44068  0.59850  0.06360  1.0000
  Fe  Fe152     1.0  0.30468  0.60878  0.03899  1.0000
  C   C1101     1.0  0.43765  0.54683  0.04056  1.0000
  C   C1102     1.0  0.45659  0.58143  0.31325  1.0000
  H   H1317     1.0  0.35812  0.64838  0.01395  1.0000
  H   H1318     1.0  0.45166  0.62972  0.06734  1.0000
  S   S304      1.0  0.26510  0.59259  0.31991  1.0000
  C   C1103     1.0  0.38659  0.63037  0.27050  1.0000
  H   H1319     1.0  0.38822  0.48778  0.04471  1.0000
  N   N71       1.0  0.28174  0.53808  0.09852  1.0000
  H   H1320     1.0  0.39496  0.52246  0.02783  1.0000
  H   H1321     1.0  0.41580  0.57011  0.01299  1.0000
  H   H1322     1.0  0.25128  0.55757  0.09668  1.0000
  C   C1104     1.0  0.29244  0.52344  0.11488  1.0000
  C   C1105     1.0  0.30895  0.52792  0.12145  1.0000
  C   C1106     1.0  0.28594  0.50423  0.12524  1.0000
  C   C1107     1.0  0.31834  0.51391  0.13729  1.0000
  C   C1108     1.0  0.29562  0.49023  0.14088  1.0000
  C   C1109     1.0  0.31187  0.49503  0.14682  1.0000
  H   H1323     1.0  0.27196  0.36938  0.03182  1.0000
  H   H1324     1.0  0.45241  0.63329  0.31291  1.0000
  H   H1325     1.0  0.42430  0.52677  0.47417  1.0000
  C   C1110     1.0  0.29175  0.55637  0.08777  1.0000
  C   C1111     1.0  0.35292  0.33155  0.48582  1.0000
  S   S305      1.0  0.42872  0.64603  0.20089  1.0000
  H   H1326     1.0  0.27626  0.53773  0.06826  1.0000
  C   C1112     1.0  0.48995  0.57625  0.28913  1.0000
  H   H1327     1.0  0.46215  0.65011  0.15955  1.0000
  H   H1328     1.0  0.31500  0.54209  0.11465  1.0000
  H   H1329     1.0  0.27304  0.50004  0.12161  1.0000
  H   H1330     1.0  0.33103  0.51755  0.14195  1.0000
  H   H1331     1.0  0.29027  0.47574  0.14861  1.0000
  H   H1332     1.0  0.31950  0.48414  0.15883  1.0000
  S   S306      1.0  0.29737  0.58495  0.02562  1.0000
  C   C1113     1.0  0.37173  0.60450  0.11965  1.0000
  H   H1333     1.0  0.42110  0.64786  0.03950  1.0000
  S   S307      1.0  0.38269  0.60592  0.01860  1.0000
  N   N72       1.0  0.41548  0.54652  0.04169  1.0000
  H   H1334     1.0  0.24706  0.61458  0.10567  1.0000
  H   H1335     1.0  0.38711  0.63979  0.10588  1.0000
  C   C1114     1.0  0.41309  0.49409  0.07984  1.0000
  S   S308      1.0  0.46220  0.63915  0.10242  1.0000
  H   H1336     1.0  0.32571  0.62357  0.21186  1.0000
  H   H1337     1.0  0.27239  0.60432  0.18199  1.0000
  C   C1115     1.0  0.41211  0.63174  0.34043  1.0000
  Fe  Fe153     1.0  0.24922  0.56369  0.15677  1.0000
  H   H1338     1.0  0.44149  0.54383  0.05630  1.0000
  H   H1339     1.0  0.27166  0.52357  0.26563  1.0000
  C   C1116     1.0  0.38005  0.60341  0.08289  1.0000
  H   H1340     1.0  0.34912  0.59575  0.34008  1.0000
  H   H1341     1.0  0.48178  0.60971  0.37737  1.0000
  C   C1117     1.0  0.41705  0.51417  0.07052  1.0000
  N   N73       1.0  0.42326  0.56835  0.26622  1.0000
  C   C1118     1.0  0.44397  0.56990  0.25227  1.0000
  C   C1119     1.0  0.42699  0.55474  0.28667  1.0000
  C   C1120     1.0  0.41194  0.55780  0.25714  1.0000
  C   C1121     1.0  0.41086  0.58963  0.26802  1.0000
  C   C1122     1.0  0.40159  0.59559  0.28767  1.0000
  C   C1123     1.0  0.40722  0.60495  0.24970  1.0000
  C   C1124     1.0  0.38951  0.61565  0.28878  1.0000
  C   C1125     1.0  0.39541  0.62507  0.25101  1.0000
  C   C1126     1.0  0.30924  0.65147  0.04691  1.0000
  H   H1342     1.0  0.45217  0.57927  0.25777  1.0000
  H   H1343     1.0  0.45427  0.55416  0.25170  1.0000
  H   H1344     1.0  0.44283  0.57735  0.23574  1.0000
  H   H1345     1.0  0.41214  0.55159  0.29744  1.0000
  H   H1346     1.0  0.43529  0.56185  0.29448  1.0000
  H   H1347     1.0  0.43680  0.53906  0.28474  1.0000
  H   H1348     1.0  0.41024  0.56598  0.24092  1.0000
  H   H1349     1.0  0.42009  0.54129  0.25648  1.0000
  H   H1350     1.0  0.39597  0.55733  0.26676  1.0000
  H   H1351     1.0  0.40315  0.58502  0.30245  1.0000
  H   H1352     1.0  0.41355  0.60159  0.23419  1.0000
  H   H1353     1.0  0.48202  0.52304  0.37831  1.0000
  C   C1127     1.0  0.48221  0.44690  0.47910  1.0000
  H   H1354     1.0  0.42598  0.64345  0.16001  1.0000
  N   N74       1.0  0.38647  0.50873  0.39581  1.0000
  C   C1128     1.0  0.40734  0.51277  0.39475  1.0000
  C   C1129     1.0  0.38637  0.50477  0.37508  1.0000
  C   C1130     1.0  0.37045  0.52796  0.39913  1.0000
  C   C1131     1.0  0.38212  0.49107  0.41352  1.0000
  C   C1132     1.0  0.38125  0.49267  0.43438  1.0000
  C   C1133     1.0  0.37886  0.47191  0.41077  1.0000
  C   C1134     1.0  0.37729  0.47621  0.45138  1.0000
  C   C1135     1.0  0.37499  0.45551  0.42791  1.0000
  C   C1136     1.0  0.37425  0.45765  0.44815  1.0000
  H   H1355     1.0  0.41967  0.49829  0.39367  1.0000
  H   H1356     1.0  0.41189  0.52501  0.38087  1.0000
  H   H1357     1.0  0.40808  0.51818  0.40878  1.0000
  H   H1358     1.0  0.39882  0.49111  0.37109  1.0000
  H   H1359     1.0  0.38940  0.51839  0.36211  1.0000
  H   H1360     1.0  0.37098  0.50193  0.37466  1.0000
  H   H1361     1.0  0.37127  0.53369  0.41296  1.0000
  H   H1362     1.0  0.37233  0.54126  0.38549  1.0000
  H   H1363     1.0  0.35443  0.52508  0.40148  1.0000
  H   H1364     1.0  0.38400  0.50657  0.43766  1.0000
  H   H1365     1.0  0.37978  0.46890  0.39551  1.0000
  H   H1366     1.0  0.40366  0.55600  0.07156  1.0000
  H   H1367     1.0  0.45296  0.63012  0.48168  1.0000
  Fe  Fe154     1.0  0.31684  0.59885  0.99561  1.0000
  H   H1368     1.0  0.41423  0.61533  0.34955  1.0000
  Fe  Fe155     1.0  0.32776  0.56517  0.03277  1.0000
  H   H1369     1.0  0.36581  0.57632  0.20894  1.0000
  H   H1370     1.0  0.37164  0.44480  0.46135  1.0000
  C   C1137     1.0  0.45373  0.61754  0.09979  1.0000
  C   C1138     1.0  0.41136  0.52513  0.05110  1.0000
  H   H1371     1.0  0.36280  0.62768  0.22851  1.0000
  H   H1372     1.0  0.38511  0.56274  0.05492  1.0000
  Fe  Fe156     1.0  0.45304  0.58288  0.42287  1.0000
  H   H1373     1.0  0.29936  0.53957  0.26976  1.0000
  C   C1139     1.0  0.39107  0.62867  0.09505  1.0000
  C   C1140     1.0  0.29561  0.54206  0.25449  1.0000
  C   C1141     1.0  0.40187  0.56125  0.05496  1.0000
  S   S309      1.0  0.30455  0.60626  0.26977  1.0000
  H   H1374     1.0  0.36059  0.59395  0.12271  1.0000
  S   S310      1.0  0.32231  0.60587  0.31124  1.0000
  H   H1375     1.0  0.35673  0.62091  0.16918  1.0000
  Fe  Fe157     1.0  0.41294  0.58418  0.40893  1.0000
  C   C1142     1.0  0.48681  0.45624  0.45783  1.0000
  H   H1376     1.0  0.45435  0.60134  0.13175  1.0000
  S   S311      1.0  0.32012  0.56088  0.30088  1.0000
  C   C1143     1.0  0.47515  0.61505  0.36340  1.0000
  C   C1144     1.0  0.24503  0.61190  0.23094  1.0000
  H   H1377     1.0  0.33589  0.60689  0.10343  1.0000
  H   H1378     1.0  0.37570  0.35104  0.47937  1.0000
  C   C1145     1.0  0.40727  0.64800  0.03411  1.0000
  C   C1146     1.0  0.28140  0.52680  0.08231  1.0000
  C   C1147     1.0  0.44536  0.63317  0.34651  1.0000
  H   H1379     1.0  0.25880  0.47785  0.01229  1.0000
  H   H1380     1.0  0.34195  0.64400  0.17901  1.0000
  H   H1381     1.0  0.27932  0.58969  0.24993  1.0000
  H   H1382     1.0  0.37089  0.64611  0.20504  1.0000
  C   C1148     1.0  0.35678  0.63207  0.17892  1.0000
  H   H1383     1.0  0.36920  0.59250  0.08600  1.0000
  H   H1384     1.0  0.33811  0.60076  0.20124  1.0000
  C   C1149     1.0  0.34032  0.61137  0.21046  1.0000
  S   S312      1.0  0.33848  0.64852  0.26149  1.0000
  H   H1385     1.0  0.44147  0.56247  0.03250  1.0000
  C   C1150     1.0  0.33540  0.62362  0.09897  1.0000
  H   H1386     1.0  0.39594  0.59355  0.08335  1.0000
  C   C1151     1.0  0.45819  0.62842  0.32736  1.0000
  C   C1152     1.0  0.31614  0.63679  0.09665  1.0000
  C   C1153     1.0  0.35926  0.63599  0.21285  1.0000
  S   S313      1.0  0.25539  0.52407  0.22998  1.0000
  H   H1387     1.0  0.47063  0.42156  0.38682  1.0000
  H   H1388     1.0  0.26240  0.63974  0.10873  1.0000
  H   H1389     1.0  0.48273  0.37140  0.41506  1.0000
  H   H1390     1.0  0.48357  0.64581  0.13812  1.0000
  C   C1154     1.0  0.48711  0.41911  0.38659  1.0000
  N   N75       1.0  0.24818  0.60927  0.25255  1.0000
  H   H1391     1.0  0.48733  0.53615  0.33228  1.0000
  N   N76       1.0  0.27864  0.37654  0.99782  1.0000
  H   H1392     1.0  0.48208  0.49387  0.36290  1.0000
  S   S314      1.0  0.48947  0.40340  0.30408  1.0000
  C   C1155     1.0  0.27397  0.35627  0.99729  1.0000
  H   H1393     1.0  0.25763  0.35850  0.99544  1.0000
  H   H1394     1.0  0.30255  0.63006  0.09891  1.0000
  H   H1395     1.0  0.27573  0.34428  0.01193  1.0000
  C   C1156     1.0  0.48596  0.42465  0.48588  1.0000
  Fe  Fe158     1.0  0.24316  0.53500  0.19969  1.0000
  H   H1396     1.0  0.48401  0.45109  0.38908  1.0000
  H   H1397     1.0  0.25114  0.41618  0.99667  1.0000
  H   H1398     1.0  0.46455  0.33033  0.45356  1.0000
  C   C1157     1.0  0.35167  0.65398  0.08827  1.0000
  C   C1158     1.0  0.26131  0.65821  0.13041  1.0000
  C   C1159     1.0  0.48097  0.32960  0.44710  1.0000
  N   N77       1.0  0.42339  0.64436  0.34714  1.0000
  Fe  Fe159     1.0  0.46517  0.65379  0.25319  1.0000
  H   H1399     1.0  0.48708  0.57536  0.48245  1.0000
  H   H1400     1.0  0.48379  0.64178  0.41360  1.0000
  C   C1160     1.0  0.47084  0.65811  0.14450  1.0000
  H   H1401     1.0  0.49089  0.55605  0.37048  1.0000
  H   H1402     1.0  0.39538  0.65613  0.36829  1.0000
  H   H1403     1.0  0.48304  0.65734  0.17826  1.0000
  H   H1404     1.0  0.29578  0.65715  0.25709  1.0000
  C   C1161     1.0  0.31453  0.65847  0.09064  1.0000
  H   H1405     1.0  0.45145  0.58005  0.48838  1.0000
  C   C1162     1.0  0.46389  0.40256  0.51076  1.0000
  C   C1163     1.0  0.25368  0.34851  0.81695  1.0000
  H   H1406     1.0  0.31878  0.37723  0.49327  1.0000
  N   N78       1.0  0.24859  0.37857  0.71637  1.0000
  N   N79       1.0  0.42696  0.33290  0.56999  1.0000
  S   S315      1.0  0.36981  0.33180  0.62711  1.0000
  C   C1164     1.0  0.41810  0.54061  0.50083  1.0000
  C   C1165     1.0  0.31734  0.55937  0.91362  1.0000
  C   C1166     1.0  0.33411  0.33845  0.72809  1.0000
  H   H1407     1.0  0.36695  0.41903  0.60078  1.0000
  S   S316      1.0  0.39532  0.33578  0.66139  1.0000
  C   C1167     1.0  0.25237  0.33544  0.67558  1.0000
  H   H1408     1.0  0.36130  0.49210  0.55550  1.0000
  H   H1409     1.0  0.39599  0.34868  0.58205  1.0000
  H   H1410     1.0  0.45898  0.39477  0.52740  1.0000
  H   H1411     1.0  0.42079  0.58924  0.56143  1.0000
  S   S317      1.0  0.30171  0.60698  0.96736  1.0000
  H   H1412     1.0  0.28995  0.33291  0.71681  1.0000
  C   C1168     1.0  0.26240  0.34080  0.83477  1.0000
  C   C1169     1.0  0.44233  0.33434  0.54977  1.0000
  H   H1413     1.0  0.25579  0.34480  0.72079  1.0000
  H   H1414     1.0  0.29163  0.34792  0.55476  1.0000
  C   C1170     1.0  0.30095  0.52643  0.86343  1.0000
  H   H1415     1.0  0.44996  0.38860  0.63923  1.0000
  C   C1171     1.0  0.30092  0.33235  0.72614  1.0000
  S   S318      1.0  0.25975  0.53699  0.95606  1.0000
  H   H1416     1.0  0.45666  0.57030  0.55347  1.0000
  C   C1172     1.0  0.26862  0.34308  0.66039  1.0000
  H   H1417     1.0  0.42449  0.46013  0.55603  1.0000
  H   H1418     1.0  0.31327  0.38424  0.74677  1.0000
  H   H1419     1.0  0.29113  0.51023  0.90540  1.0000
  H   H1420     1.0  0.25033  0.38849  0.89147  1.0000
  H   H1421     1.0  0.44820  0.34924  0.54538  1.0000
  C   C1173     1.0  0.31961  0.33907  0.71631  1.0000
  C   C1174     1.0  0.28108  0.38911  0.95887  1.0000
  C   C1175     1.0  0.29020  0.36680  0.58820  1.0000
  Fe  Fe160     1.0  0.46558  0.48061  0.55955  1.0000
  S   S319      1.0  0.44167  0.49456  0.58468  1.0000
  S   S320      1.0  0.46004  0.48070  0.52817  1.0000
  H   H1422     1.0  0.28102  0.40023  0.92582  1.0000
  C   C1176     1.0  0.36614  0.33959  0.51260  1.0000
  C   C1177     1.0  0.40841  0.35004  0.56757  1.0000
  Fe  Fe161     1.0  0.45213  0.46451  0.60628  1.0000
  S   S321      1.0  0.42935  0.44754  0.63102  1.0000
  Fe  Fe162     1.0  0.46856  0.50505  0.58996  1.0000
  S   S322      1.0  0.46280  0.53893  0.59205  1.0000
  C   C1178     1.0  0.45851  0.37470  0.63325  1.0000
  H   H1423     1.0  0.28758  0.38847  0.69400  1.0000
  H   H1424     1.0  0.28792  0.53582  0.98172  1.0000
  S   S323      1.0  0.34972  0.36731  0.65651  1.0000
  S   S324      1.0  0.30927  0.34436  0.64235  1.0000
  C   C1179     1.0  0.37861  0.44514  0.57903  1.0000
  C   C1180     1.0  0.24290  0.35770  0.72560  1.0000
  Fe  Fe163     1.0  0.36358  0.34322  0.68186  1.0000
  S   S325      1.0  0.35770  0.34649  0.71531  1.0000
  Fe  Fe164     1.0  0.38034  0.35713  0.63543  1.0000
  S   S326      1.0  0.39806  0.37691  0.60793  1.0000
  H   H1425     1.0  0.48594  0.40181  0.58734  1.0000
  N   N80       1.0  0.24312  0.38766  0.86218  1.0000
  C   C1181     1.0  0.26533  0.37711  0.74630  1.0000
  C   C1182     1.0  0.44753  0.35868  0.63657  1.0000
  C   C1183     1.0  0.28509  0.38583  0.71087  1.0000
  H   H1426     1.0  0.26502  0.35567  0.64735  1.0000
  C   C1184     1.0  0.26064  0.42213  0.94402  1.0000
  C   C1185     1.0  0.25841  0.41202  0.98162  1.0000
  C   C1186     1.0  0.47975  0.40841  0.62644  1.0000
  S   S327      1.0  0.48801  0.63451  0.49578  1.0000
  C   C1187     1.0  0.24269  0.65570  0.98484  1.0000
  C   C1188     1.0  0.48551  0.54918  0.58602  1.0000
  C   C1189     1.0  0.42052  0.42822  0.62422  1.0000
  C   C1190     1.0  0.40776  0.41606  0.63970  1.0000
  C   C1191     1.0  0.40090  0.40017  0.63483  1.0000
  C   C1192     1.0  0.40679  0.39642  0.61444  1.0000
  C   C1193     1.0  0.41948  0.40862  0.59890  1.0000
  C   C1194     1.0  0.42631  0.42452  0.60377  1.0000
  H   H1427     1.0  0.40325  0.41887  0.65554  1.0000
  H   H1428     1.0  0.39104  0.39086  0.64689  1.0000
  H   H1429     1.0  0.42387  0.40587  0.58305  1.0000
  H   H1430     1.0  0.43596  0.43394  0.59172  1.0000
  H   H1431     1.0  0.45828  0.44001  0.51979  1.0000
  H   H1432     1.0  0.33810  0.38578  0.54546  1.0000
  H   H1433     1.0  0.46898  0.39002  0.50136  1.0000
  H   H1434     1.0  0.25653  0.48659  0.98511  1.0000
  H   H1435     1.0  0.31834  0.33429  0.60154  1.0000
  C   C1195     1.0  0.30157  0.38749  0.71901  1.0000
  H   H1436     1.0  0.34131  0.36920  0.57843  1.0000
  C   C1196     1.0  0.38639  0.45415  0.55784  1.0000
  C   C1197     1.0  0.37250  0.42577  0.58442  1.0000
  C   C1198     1.0  0.38814  0.44228  0.54250  1.0000
  H   H1437     1.0  0.26900  0.51871  0.89287  1.0000
  C   C1199     1.0  0.31717  0.37467  0.51013  1.0000
  H   H1438     1.0  0.31092  0.36798  0.98245  1.0000
  H   H1439     1.0  0.28855  0.36388  0.60557  1.0000
  H   H1440     1.0  0.31188  0.51146  0.86819  1.0000
  C   C1200     1.0  0.31395  0.36669  0.55427  1.0000
  Fe  Fe165     1.0  0.40283  0.36918  0.49333  1.0000
  C   C1201     1.0  0.47798  0.33763  0.61871  1.0000
  H   H1441     1.0  0.40156  0.35001  0.55425  1.0000
  C   C1202     1.0  0.33002  0.53980  0.87913  1.0000
  H   H1442     1.0  0.37767  0.45274  0.59171  1.0000
  H   H1443     1.0  0.46885  0.58131  0.58003  1.0000
  H   H1444     1.0  0.38406  0.41391  0.53610  1.0000
  C   C1203     1.0  0.37448  0.41451  0.56903  1.0000
  C   C1204     1.0  0.39894  0.48269  0.52958  1.0000
  C   C1205     1.0  0.28920  0.58783  0.96494  1.0000
  C   C1206     1.0  0.27514  0.59319  0.95129  1.0000
  C   C1207     1.0  0.26544  0.57795  0.94883  1.0000
  C   C1208     1.0  0.27011  0.55716  0.95970  1.0000
  C   C1209     1.0  0.36596  0.34162  0.49142  1.0000
  H   H1445     1.0  0.47420  0.40500  0.64378  1.0000
  H   H1446     1.0  0.28330  0.64489  0.98805  1.0000
  H   H1447     1.0  0.42576  0.33635  0.60134  1.0000
  H   H1448     1.0  0.32244  0.34541  0.69962  1.0000
  N   N81       1.0  0.49185  0.38923  0.61850  1.0000
  H   H1449     1.0  0.27123  0.37454  0.87460  1.0000
  C   C1210     1.0  0.32928  0.38312  0.51848  1.0000
  C   C1211     1.0  0.32986  0.33096  0.74986  1.0000
  H   H1450     1.0  0.41230  0.36582  0.56464  1.0000
  H   H1451     1.0  0.26984  0.56650  0.88571  1.0000
  C   C1212     1.0  0.27502  0.40361  0.94142  1.0000
  S   S328      1.0  0.47686  0.47621  0.61434  1.0000
  H   H1452     1.0  0.40258  0.49863  0.52609  1.0000
  H   H1453     1.0  0.26504  0.55358  0.86775  1.0000
  H   H1454     1.0  0.24911  0.36307  0.88900  1.0000
  H   H1455     1.0  0.43134  0.36068  0.64479  1.0000
  C   C1213     1.0  0.48398  0.57099  0.58025  1.0000
  C   C1214     1.0  0.45723  0.34019  0.62938  1.0000
  C   C1215     1.0  0.27767  0.55729  0.87329  1.0000
  C   C1216     1.0  0.41625  0.59566  0.52973  1.0000
  H   H1456     1.0  0.44989  0.41339  0.50548  1.0000
  C   C1217     1.0  0.42733  0.52477  0.48949  1.0000
  H   H1457     1.0  0.31286  0.32905  0.57904  1.0000
  H   H1458     1.0  0.47222  0.53155  0.52618  1.0000
  H   H1459     1.0  0.31596  0.39091  0.70852  1.0000
  H   H1460     1.0  0.24699  0.50221  0.83340  1.0000
  N   N82       1.0  0.29234  0.53796  0.88091  1.0000
  H   H1461     1.0  0.28300  0.38351  0.58273  1.0000
  H   H1462     1.0  0.27138  0.53256  0.91116  1.0000
  C   C1218     1.0  0.30012  0.38368  0.74061  1.0000
  C   C1219     1.0  0.48915  0.35348  0.61543  1.0000
  C   C1220     1.0  0.42166  0.53810  0.52099  1.0000
  C   C1221     1.0  0.43498  0.51991  0.52939  1.0000
  C   C1222     1.0  0.44432  0.50410  0.51780  1.0000
  H   H1463     1.0  0.28642  0.55742  0.91392  1.0000
  S   S329      1.0  0.42731  0.37970  0.50276  1.0000
  H   H1464     1.0  0.41462  0.55040  0.52983  1.0000
  H   H1465     1.0  0.43811  0.51833  0.54470  1.0000
  H   H1466     1.0  0.28831  0.52216  0.85838  1.0000
  H   H1467     1.0  0.49026  0.57450  0.53703  1.0000
  H   H1468     1.0  0.26663  0.36904  0.68778  1.0000
  C   C1223     1.0  0.33837  0.55524  0.90409  1.0000
  H   H1469     1.0  0.28050  0.35695  0.58571  1.0000
  C   C1224     1.0  0.28940  0.33461  0.66211  1.0000
  H   H1470     1.0  0.27181  0.60916  0.94256  1.0000
  H   H1471     1.0  0.32204  0.36993  0.60194  1.0000
  H   H1472     1.0  0.46599  0.41573  0.61904  1.0000
  C   C1225     1.0  0.42524  0.59299  0.50928  1.0000
  S   S330      1.0  0.38225  0.35182  0.52022  1.0000
  C   C1226     1.0  0.38230  0.42275  0.54810  1.0000
  H   H1473     1.0  0.33600  0.53234  0.86576  1.0000
  N   N83       1.0  0.31237  0.36173  0.57732  1.0000
  C   C1227     1.0  0.30255  0.55380  0.90598  1.0000
  H   H1474     1.0  0.49163  0.59020  0.51116  1.0000
  H   H1475     1.0  0.25564  0.39689  0.68493  1.0000
  C   C1228     1.0  0.41123  0.47228  0.56191  1.0000
  C   C1229     1.0  0.28411  0.55187  0.97335  1.0000
  C   C1230     1.0  0.25397  0.37797  0.88002  1.0000
  C   C1231     1.0  0.44040  0.50654  0.49785  1.0000
  H   H1476     1.0  0.26648  0.34613  0.86293  1.0000
  H   H1477     1.0  0.31884  0.39078  0.57964  1.0000
  H   H1478     1.0  0.36111  0.54238  0.87950  1.0000
  H   H1479     1.0  0.30439  0.56279  0.98653  1.0000
  H   H1480     1.0  0.25470  0.58220  0.93824  1.0000
  C   C1232     1.0  0.30197  0.35821  0.54517  1.0000
  C   C1233     1.0  0.28200  0.37860  0.75424  1.0000
  C   C1234     1.0  0.27269  0.39269  0.97957  1.0000
  H   H1481     1.0  0.33766  0.33481  0.57751  1.0000
  H   H1482     1.0  0.25643  0.33879  0.80548  1.0000
  H   H1483     1.0  0.25553  0.43303  0.93049  1.0000
  H   H1484     1.0  0.41326  0.47251  0.52218  1.0000
  C   C1235     1.0  0.44836  0.57637  0.54075  1.0000
  C   C1236     1.0  0.30841  0.54372  0.88857  1.0000
  H   H1485     1.0  0.28593  0.56787  0.86001  1.0000
  H   H1486     1.0  0.41693  0.48724  0.55793  1.0000
  C   C1237     1.0  0.45804  0.57333  0.52009  1.0000
  H   H1487     1.0  0.28103  0.37540  0.77105  1.0000
  C   C1238     1.0  0.37577  0.49077  0.56118  1.0000
  H   H1488     1.0  0.40763  0.46773  0.57935  1.0000
  N   N84       1.0  0.39296  0.47460  0.55255  1.0000
  C   C1239     1.0  0.32782  0.37921  0.54020  1.0000
  C   C1240     1.0  0.24692  0.33111  0.62314  1.0000
  H   H1489     1.0  0.48494  0.43832  0.52162  1.0000
  H   H1490     1.0  0.47871  0.54095  0.54589  1.0000
  H   H1491     1.0  0.37996  0.50658  0.55648  1.0000
  C   C1241     1.0  0.32420  0.37351  0.58450  1.0000
  H   H1492     1.0  0.39418  0.44765  0.52606  1.0000
  H   H1493     1.0  0.37195  0.48736  0.57862  1.0000
  H   H1494     1.0  0.28420  0.34911  0.98409  1.0000
  H   H1495     1.0  0.38608  0.48417  0.52142  1.0000
  C   C1242     1.0  0.28049  0.52431  0.89831  1.0000
  C   C1243     1.0  0.26648  0.38031  0.72436  1.0000
  S   S331      1.0  0.47376  0.44959  0.58058  1.0000
  C   C1244     1.0  0.42778  0.58729  0.54546  1.0000
  H   H1496     1.0  0.26734  0.40444  0.84439  1.0000
  H   H1497     1.0  0.30913  0.53615  0.84926  1.0000
  H   H1498     1.0  0.37038  0.39918  0.57346  1.0000
  H   H1499     1.0  0.34101  0.33051  0.75906  1.0000
  H   H1500     1.0  0.43566  0.33378  0.53648  1.0000
  Fe  Fe166     1.0  0.34049  0.33992  0.65053  1.0000
  C   C1245     1.0  0.43673  0.33656  0.58585  1.0000
  H   H1501     1.0  0.31244  0.56693  0.92705  1.0000
  C   C1246     1.0  0.44574  0.58184  0.50446  1.0000
  C   C1247     1.0  0.25918  0.35324  0.84955  1.0000
  C   C1248     1.0  0.25041  0.40752  0.85159  1.0000
  C   C1249     1.0  0.34470  0.54551  0.88687  1.0000
  C   C1250     1.0  0.32069  0.33900  0.58414  1.0000
  C   C1251     1.0  0.29347  0.56715  0.97610  1.0000
  H   H1502     1.0  0.29199  0.37480  0.95603  1.0000
  H   H1503     1.0  0.29460  0.35526  0.51680  1.0000
  S   S332      1.0  0.49183  0.49320  0.56302  1.0000
  S   S333      1.0  0.24514  0.36112  0.95295  1.0000
  H   H1504     1.0  0.34976  0.55963  0.91009  1.0000
  C   C1252     1.0  0.25178  0.32963  0.60209  1.0000
  C   C1253     1.0  0.48254  0.54070  0.52886  1.0000
  C   C1254     1.0  0.48766  0.55978  0.49331  1.0000
  C   C1255     1.0  0.25238  0.42636  0.96404  1.0000
  H   H1505     1.0  0.25162  0.37318  0.75755  1.0000
  N   N85       1.0  0.48061  0.41416  0.50819  1.0000
  H   H1506     1.0  0.44119  0.35221  0.58128  1.0000
  C   C1256     1.0  0.47975  0.37256  0.62256  1.0000
  C   C1257     1.0  0.24694  0.37400  0.84688  1.0000
  H   H1507     1.0  0.40026  0.60407  0.53338  1.0000
  C   C1258     1.0  0.47306  0.42896  0.52285  1.0000
  H   H1508     1.0  0.46959  0.42067  0.53953  1.0000
  C   C1259     1.0  0.30354  0.36227  0.52344  1.0000
  H   H1509     1.0  0.48934  0.42066  0.62286  1.0000
  H   H1510     1.0  0.24773  0.41810  0.86282  1.0000
  C   C1260     1.0  0.35346  0.32745  0.52807  1.0000
  C   C1261     1.0  0.25283  0.38096  0.69319  1.0000
  H   H1511     1.0  0.34039  0.39217  0.50798  1.0000
  H   H1512     1.0  0.41611  0.59922  0.49712  1.0000
  N   N86       1.0  0.48006  0.56209  0.51552  1.0000
  H   H1513     1.0  0.44866  0.32778  0.63218  1.0000
  H   H1514     1.0  0.35373  0.32569  0.54440  1.0000
  H   H1515     1.0  0.44739  0.49436  0.48883  1.0000
  H   H1516     1.0  0.47825  0.55078  0.48888  1.0000
  H   H1517     1.0  0.47543  0.45750  0.48985  1.0000
  S   S334      1.0  0.40318  0.56374  0.48885  1.0000
  H   H1518     1.0  0.35869  0.86115  0.08147  1.0000
  H   H1519     1.0  0.30657  0.66848  0.32167  1.0000
  C   C1262     1.0  0.30355  0.68276  0.34777  1.0000
  C   C1263     1.0  0.48978  0.96950  0.14162  1.0000
  H   H1520     1.0  0.33413  0.76679  0.99431  1.0000
  C   C1264     1.0  0.48703  0.78298  0.98949  1.0000
  C   C1265     1.0  0.42258  0.66514  0.33260  1.0000
  Fe  Fe167     1.0  0.26164  0.76851  0.32865  1.0000
  C   C1266     1.0  0.39268  0.66678  0.03047  1.0000
  Fe  Fe168     1.0  0.30612  0.76073  0.30387  1.0000
  S   S335      1.0  0.29631  0.76684  0.27315  1.0000
  S   S336      1.0  0.34060  0.75528  0.30187  1.0000
  Fe  Fe169     1.0  0.27298  0.79364  0.28465  1.0000
  S   S337      1.0  0.26671  0.82559  0.26446  1.0000
  Fe  Fe170     1.0  0.27260  0.74762  0.29131  1.0000
  S   S338      1.0  0.28474  0.78952  0.31395  1.0000
  S   S339      1.0  0.28414  0.73910  0.32135  1.0000
  Fe  Fe171     1.0  0.43978  0.69697  0.23915  1.0000
  S   S340      1.0  0.41147  0.68464  0.24105  1.0000
  S   S341      1.0  0.43545  0.73203  0.23198  1.0000
  H   H1521     1.0  0.35165  0.73066  0.02449  1.0000
  H   H1522     1.0  0.43729  0.83773  0.14465  1.0000
  Fe  Fe172     1.0  0.44595  0.71444  0.06374  1.0000
  Fe  Fe173     1.0  0.43390  0.65933  0.22615  1.0000
  S   S342      1.0  0.44575  0.67878  0.27075  1.0000
  Fe  Fe174     1.0  0.27280  0.77833  0.05699  1.0000
  H   H1523     1.0  0.30902  0.82687  0.30195  1.0000
  C   C1267     1.0  0.31663  0.67009  0.04109  1.0000
  N   N87       1.0  0.45309  0.82129  0.11961  1.0000
  H   H1524     1.0  0.37125  0.84691  0.25066  1.0000
  S   S343      1.0  0.39625  0.69088  0.03372  1.0000
  S   S344      1.0  0.44017  0.92585  0.12302  1.0000
  Fe  Fe175     1.0  0.25246  0.77229  0.02475  1.0000
  Fe  Fe176     1.0  0.33993  0.82337  0.14512  1.0000
  S   S345      1.0  0.34260  0.85387  0.15086  1.0000
  S   S346      1.0  0.31118  0.82182  0.13547  1.0000
  Fe  Fe177     1.0  0.38436  0.80261  0.14885  1.0000
  S   S347      1.0  0.39100  0.83099  0.15539  1.0000
  S   S348      1.0  0.40922  0.77396  0.14495  1.0000
  Fe  Fe178     1.0  0.35911  0.83328  0.17613  1.0000
  S   S349      1.0  0.35287  0.84238  0.20730  1.0000
  Fe  Fe179     1.0  0.37403  0.84872  0.12964  1.0000
  S   S350      1.0  0.38616  0.87250  0.10231  1.0000
  S   S351      1.0  0.35394  0.80300  0.17208  1.0000
  S   S352      1.0  0.36988  0.82007  0.12142  1.0000
  C   C1268     1.0  0.25567  0.80351  0.18560  1.0000
  C   C1269     1.0  0.27569  0.79702  0.19029  1.0000
  C   C1270     1.0  0.29301  0.80296  0.17519  1.0000
  C   C1271     1.0  0.29024  0.81475  0.15530  1.0000
  C   C1272     1.0  0.27024  0.82123  0.15086  1.0000
  C   C1273     1.0  0.25303  0.81605  0.16619  1.0000
  H   H1525     1.0  0.27779  0.78757  0.20552  1.0000
  H   H1526     1.0  0.30844  0.79804  0.17878  1.0000
  H   H1527     1.0  0.26793  0.83059  0.13564  1.0000
  S   S353      1.0  0.26103  0.75113  0.05426  1.0000
  C   C1274     1.0  0.42430  0.91172  0.11754  1.0000
  C   C1275     1.0  0.41559  0.89653  0.13344  1.0000
  C   C1276     1.0  0.40334  0.88479  0.12903  1.0000
  C   C1277     1.0  0.40028  0.88784  0.10857  1.0000
  C   C1278     1.0  0.40900  0.90300  0.09270  1.0000
  C   C1279     1.0  0.42065  0.91518  0.09726  1.0000
  H   H1528     1.0  0.41816  0.89398  0.14920  1.0000
  H   H1529     1.0  0.39631  0.87346  0.14146  1.0000
  H   H1530     1.0  0.40675  0.90534  0.07685  1.0000
  H   H1531     1.0  0.42686  0.92716  0.08501  1.0000
  H   H1532     1.0  0.35242  0.78294  0.26203  1.0000
  H   H1533     1.0  0.29218  0.70883  0.99532  1.0000
  C   C1280     1.0  0.39988  0.69410  0.14929  1.0000
  H   H1534     1.0  0.48776  0.66573  0.28031  1.0000
  C   C1281     1.0  0.39861  0.69969  0.16831  1.0000
  H   H1535     1.0  0.39146  0.71552  0.17027  1.0000
  H   H1536     1.0  0.25338  0.66926  0.29769  1.0000
  C   C1282     1.0  0.42850  0.74333  0.20761  1.0000
  C   C1283     1.0  0.43152  0.73123  0.19254  1.0000
  C   C1284     1.0  0.42583  0.74072  0.17310  1.0000
  C   C1285     1.0  0.41662  0.76211  0.16902  1.0000
  C   C1286     1.0  0.41307  0.77399  0.18434  1.0000
  C   C1287     1.0  0.41931  0.76468  0.20347  1.0000
  H   H1537     1.0  0.43839  0.71466  0.19580  1.0000
  H   H1538     1.0  0.42820  0.73148  0.16135  1.0000
  H   H1539     1.0  0.40578  0.79044  0.18138  1.0000
  H   H1540     1.0  0.41692  0.77398  0.21514  1.0000
  C   C1288     1.0  0.29053  0.83021  0.24843  1.0000
  C   C1289     1.0  0.30218  0.81649  0.23519  1.0000
  C   C1290     1.0  0.32113  0.82044  0.22212  1.0000
  C   C1291     1.0  0.32866  0.83784  0.22265  1.0000
  C   C1292     1.0  0.31696  0.85154  0.23588  1.0000
  C   C1293     1.0  0.29784  0.84780  0.24870  1.0000
  H   H1541     1.0  0.29641  0.80302  0.23476  1.0000
  H   H1542     1.0  0.33009  0.80974  0.21204  1.0000
  H   H1543     1.0  0.32260  0.86517  0.23607  1.0000
  H   H1544     1.0  0.28881  0.85844  0.25891  1.0000
  C   C1294     1.0  0.28490  0.70323  0.27381  1.0000
  C   C1295     1.0  0.30420  0.70232  0.27836  1.0000
  H   H1545     1.0  0.28979  0.85867  0.20644  1.0000
  S   S354      1.0  0.26161  0.80050  0.02920  1.0000
  H   H1546     1.0  0.30651  0.71472  0.28456  1.0000
  C   C1296     1.0  0.35432  0.72954  0.30092  1.0000
  C   C1297     1.0  0.34442  0.71239  0.30906  1.0000
  C   C1298     1.0  0.35603  0.69191  0.30855  1.0000
  C   C1299     1.0  0.37732  0.68868  0.29932  1.0000
  C   C1300     1.0  0.38699  0.70590  0.29058  1.0000
  C   C1301     1.0  0.37558  0.72626  0.29165  1.0000
  H   H1547     1.0  0.32798  0.71485  0.31612  1.0000
  S   S355      1.0  0.46192  0.67340  0.22124  1.0000
  H   H1548     1.0  0.40340  0.70356  0.28334  1.0000
  H   H1549     1.0  0.38328  0.73946  0.28519  1.0000
  H   H1550     1.0  0.35796  0.80080  0.23748  1.0000
  C   C1302     1.0  0.24388  0.80803  0.11617  1.0000
  C   C1303     1.0  0.26822  0.79475  0.38821  1.0000
  C   C1304     1.0  0.26379  0.78542  0.37381  1.0000
  H   H1551     1.0  0.40453  0.93975  0.03463  1.0000
  C   C1305     1.0  0.44942  0.75034  0.00080  1.0000
  C   C1306     1.0  0.35118  0.85857  0.07013  1.0000
  H   H1552     1.0  0.28372  0.79768  0.38614  1.0000
  H   H1553     1.0  0.27589  0.78105  0.36079  1.0000
  H   H1554     1.0  0.36777  0.93989  0.00205  1.0000
  C   C1307     1.0  0.25723  0.92558  0.43132  1.0000
  H   H1555     1.0  0.46094  0.95904  0.15594  1.0000
  H   H1556     1.0  0.33338  0.79388  0.02066  1.0000
  H   H1557     1.0  0.38854  0.79756  0.28679  1.0000
  C   C1308     1.0  0.40739  0.68505  0.18435  1.0000
  S   S356      1.0  0.45027  0.68495  0.05160  1.0000
  N   N88       1.0  0.25994  0.86571  0.19744  1.0000
  C   C1309     1.0  0.28145  0.68997  0.04900  1.0000
  C   C1310     1.0  0.28190  0.68702  0.26604  1.0000
  H   H1558     1.0  0.26697  0.68782  0.26242  1.0000
  H   H1559     1.0  0.47624  0.79300  0.12717  1.0000
  H   H1560     1.0  0.37707  0.77776  0.24481  1.0000
  C   C1311     1.0  0.26012  0.69387  0.34764  1.0000
  C   C1312     1.0  0.35778  0.81132  0.01334  1.0000
  N   N89       1.0  0.37420  0.95177  0.02623  1.0000
  C   C1313     1.0  0.36564  0.95497  0.00712  1.0000
  C   C1314     1.0  0.37244  0.97288  0.03042  1.0000
  C   C1315     1.0  0.39660  0.94167  0.02146  1.0000
  C   C1316     1.0  0.36343  0.93854  0.04490  1.0000
  C   C1317     1.0  0.34811  0.92785  0.04397  1.0000
  C   C1318     1.0  0.36864  0.93556  0.06476  1.0000
  C   C1319     1.0  0.33862  0.91511  0.06191  1.0000
  C   C1320     1.0  0.36261  0.74002  0.01290  1.0000
  H   H1561     1.0  0.25440  0.72810  0.12058  1.0000
  H   H1562     1.0  0.34882  0.96263  0.00955  1.0000
  H   H1563     1.0  0.25370  0.79880  0.12710  1.0000
  H   H1564     1.0  0.25641  0.67674  0.15371  1.0000
  H   H1565     1.0  0.25889  0.70833  0.37398  1.0000
  N   N90       1.0  0.24918  0.86161  0.36192  1.0000
  C   C1321     1.0  0.40978  0.67378  0.14645  1.0000
  C   C1322     1.0  0.41586  0.78612  0.04449  1.0000
  H   H1566     1.0  0.33565  0.68457  0.27816  1.0000
  H   H1567     1.0  0.38055  0.94269  0.06660  1.0000
  H   H1568     1.0  0.34330  0.92892  0.02955  1.0000
  C   C1323     1.0  0.43418  0.82611  0.11038  1.0000
  H   H1569     1.0  0.33709  0.90235  0.09495  1.0000
  S   S357      1.0  0.42786  0.98019  0.08390  1.0000
  H   H1570     1.0  0.29969  0.66862  0.08833  1.0000
  C   C1324     1.0  0.29814  0.66969  0.26306  1.0000
  C   C1325     1.0  0.45941  0.82699  0.01791  1.0000
  H   H1571     1.0  0.25742  0.67133  0.06040  1.0000
  H   H1572     1.0  0.43171  0.67479  0.33645  1.0000
  C   C1326     1.0  0.27504  0.87073  0.20712  1.0000
  C   C1327     1.0  0.26764  0.93997  0.43372  1.0000
  C   C1328     1.0  0.25261  0.80060  0.40510  1.0000
  C   C1329     1.0  0.41452  0.77095  0.99968  1.0000
  H   H1573     1.0  0.40473  0.82548  0.07140  1.0000
  H   H1574     1.0  0.24521  0.73189  0.02853  1.0000
  H   H1575     1.0  0.26835  0.83265  0.21072  1.0000
  C   C1330     1.0  0.45807  0.85844  0.10294  1.0000
  H   H1576     1.0  0.46380  0.88954  0.08832  1.0000
  H   H1577     1.0  0.32777  0.74193  0.99871  1.0000
  S   S358      1.0  0.28288  0.76201  0.00369  1.0000
  H   H1578     1.0  0.27152  0.95815  0.45336  1.0000
  H   H1579     1.0  0.25413  0.82764  0.34393  1.0000
  H   H1580     1.0  0.39927  0.82648  0.04639  1.0000
  C   C1331     1.0  0.46106  0.69127  0.15521  1.0000
  H   H1581     1.0  0.32013  0.67862  0.34775  1.0000
  S   S359      1.0  0.25790  0.81426  0.42156  1.0000
  H   H1582     1.0  0.28601  0.85120  0.17600  1.0000
  H   H1583     1.0  0.40537  0.95115  0.00749  1.0000
  H   H1584     1.0  0.40251  0.77811  0.05218  1.0000
  N   N91       1.0  0.30834  0.83110  0.07006  1.0000
  C   C1332     1.0  0.31707  0.80974  0.08099  1.0000
  C   C1333     1.0  0.29092  0.84126  0.08500  1.0000
  C   C1334     1.0  0.34082  0.80561  0.00934  1.0000
  C   C1335     1.0  0.32495  0.84361  0.06246  1.0000
  C   C1336     1.0  0.33499  0.84741  0.07691  1.0000
  C   C1337     1.0  0.33202  0.85188  0.04082  1.0000
  H   H1585     1.0  0.38724  0.81023  0.06930  1.0000
  C   C1338     1.0  0.27055  0.85095  0.36510  1.0000
  C   C1339     1.0  0.43924  0.80638  0.04829  1.0000
  H   H1586     1.0  0.32262  0.80999  0.09510  1.0000
  H   H1587     1.0  0.30519  0.79968  0.08677  1.0000
  H   H1588     1.0  0.33041  0.80168  0.07038  1.0000
  H   H1589     1.0  0.27821  0.83212  0.09106  1.0000
  H   H1590     1.0  0.28402  0.85741  0.07744  1.0000
  H   H1591     1.0  0.29590  0.84247  0.09906  1.0000
  H   H1592     1.0  0.27439  0.83436  0.36326  1.0000
  H   H1593     1.0  0.46080  0.83640  0.00210  1.0000
  C   C1340     1.0  0.32063  0.68526  0.27480  1.0000
  H   H1594     1.0  0.33055  0.84156  0.09360  1.0000
  H   H1595     1.0  0.32567  0.84958  0.02856  1.0000
  H   H1596     1.0  0.42118  0.73873  0.01587  1.0000
  C   C1341     1.0  0.42098  0.78360  0.07902  1.0000
  C   C1342     1.0  0.24743  0.86185  0.34034  1.0000
  H   H1597     1.0  0.38138  0.97240  0.04237  1.0000
  S   S360      1.0  0.38998  0.71260  0.12871  1.0000
  H   H1598     1.0  0.48584  0.96531  0.01616  1.0000
  C   C1343     1.0  0.31757  0.66898  0.26718  1.0000
  C   C1344     1.0  0.34410  0.91257  0.08114  1.0000
  H   H1599     1.0  0.26418  0.70343  0.09728  1.0000
  N   N92       1.0  0.37351  0.80297  0.26075  1.0000
  C   C1345     1.0  0.47078  0.87316  0.09343  1.0000
  H   H1600     1.0  0.32711  0.90695  0.06085  1.0000
  H   H1601     1.0  0.37858  0.70923  0.99279  1.0000
  N   N93       1.0  0.35668  0.72989  0.22810  1.0000
  C   C1346     1.0  0.34221  0.73916  0.24558  1.0000
  C   C1347     1.0  0.35772  0.70691  0.23316  1.0000
  C   C1348     1.0  0.37775  0.73353  0.22708  1.0000
  C   C1349     1.0  0.34913  0.73895  0.20821  1.0000
  C   C1350     1.0  0.36254  0.74573  0.18893  1.0000
  C   C1351     1.0  0.32803  0.74013  0.20743  1.0000
  C   C1352     1.0  0.35525  0.75318  0.17018  1.0000
  C   C1353     1.0  0.32074  0.74827  0.18870  1.0000
  C   C1354     1.0  0.33433  0.75476  0.17010  1.0000
  H   H1602     1.0  0.32688  0.73435  0.24986  1.0000
  H   H1603     1.0  0.34842  0.73389  0.26029  1.0000
  H   H1604     1.0  0.33938  0.75664  0.24155  1.0000
  H   H1605     1.0  0.34224  0.70303  0.23487  1.0000
  H   H1606     1.0  0.36312  0.69935  0.24818  1.0000
  H   H1607     1.0  0.36867  0.69925  0.22056  1.0000
  H   H1608     1.0  0.37826  0.75053  0.22210  1.0000
  H   H1609     1.0  0.38260  0.72780  0.24255  1.0000
  H   H1610     1.0  0.39004  0.72493  0.21602  1.0000
  H   H1611     1.0  0.37888  0.74524  0.18774  1.0000
  H   H1612     1.0  0.31701  0.73459  0.22124  1.0000
  H   H1613     1.0  0.36596  0.75786  0.15560  1.0000
  H   H1614     1.0  0.30447  0.74945  0.18855  1.0000
  H   H1615     1.0  0.32869  0.76098  0.15557  1.0000
  H   H1616     1.0  0.37049  0.87482  0.04360  1.0000
  H   H1617     1.0  0.39865  0.92583  0.01803  1.0000
  H   H1618     1.0  0.24517  0.76196  0.12685  1.0000
  H   H1619     1.0  0.45872  0.73535  0.00665  1.0000
  H   H1620     1.0  0.31119  0.82014  0.04176  1.0000
  H   H1621     1.0  0.29596  0.69851  0.37360  1.0000
  H   H1622     1.0  0.35355  0.86896  0.01762  1.0000
  C   C1355     1.0  0.35779  0.86636  0.04883  1.0000
  H   H1623     1.0  0.40647  0.77721  0.08594  1.0000
  H   H1624     1.0  0.24662  0.84692  0.22640  1.0000
  H   H1625     1.0  0.36373  0.68116  0.02039  1.0000
  C   C1356     1.0  0.24922  0.66888  0.14609  1.0000
  C   C1357     1.0  0.39114  0.81066  0.24491  1.0000
  H   H1626     1.0  0.25031  0.82779  0.30877  1.0000
  H   H1627     1.0  0.48116  0.78185  0.00671  1.0000
  H   H1628     1.0  0.38572  0.82109  0.23072  1.0000
  C   C1358     1.0  0.26847  0.69943  0.36241  1.0000
  S   S361      1.0  0.26961  0.78522  0.08853  1.0000
  H   H1629     1.0  0.33115  0.68381  0.08026  1.0000
  C   C1359     1.0  0.45617  0.80272  0.05858  1.0000
  S   S362      1.0  0.42620  0.97419  0.02721  1.0000
  C   C1360     1.0  0.26300  0.94684  0.45269  1.0000
  H   H1630     1.0  0.28248  0.85916  0.35371  1.0000
  C   C1361     1.0  0.42773  0.75211  0.00633  1.0000
  H   H1631     1.0  0.34408  0.87348  0.26535  1.0000
  C   C1362     1.0  0.33348  0.81529  0.99083  1.0000
  S   S363      1.0  0.41124  0.72283  0.06607  1.0000
  H   H1632     1.0  0.28672  0.81937  0.05939  1.0000
  H   H1633     1.0  0.27046  0.97188  0.30937  1.0000
  H   H1634     1.0  0.37857  0.73226  0.01562  1.0000
  H   H1635     1.0  0.26061  0.92050  0.41653  1.0000
  H   H1636     1.0  0.45137  0.68428  0.17012  1.0000
  C   C1363     1.0  0.24834  0.71250  0.09985  1.0000
  C   C1364     1.0  0.24374  0.94995  0.36299  1.0000
  C   C1365     1.0  0.25031  0.84269  0.33364  1.0000
  H   H1637     1.0  0.29209  0.84413  0.04435  1.0000
  C   C1366     1.0  0.44642  0.82191  0.14220  1.0000
  H   H1638     1.0  0.42980  0.77382  0.04019  1.0000
  C   C1367     1.0  0.35897  0.92289  0.08258  1.0000
  C   C1368     1.0  0.33228  0.66702  0.08615  1.0000
  C   C1369     1.0  0.24757  0.96581  0.37079  1.0000
  H   H1639     1.0  0.28721  0.67302  0.00350  1.0000
  H   H1640     1.0  0.42503  0.81339  0.11643  1.0000
  H   H1641     1.0  0.41179  0.79642  0.02972  1.0000
  H   H1642     1.0  0.45313  0.78820  0.12334  1.0000
  H   H1643     1.0  0.40621  0.67418  0.33313  1.0000
  Fe  Fe180     1.0  0.29222  0.74306  0.03360  1.0000
  C   C1370     1.0  0.30293  0.68933  0.04190  1.0000
  H   H1644     1.0  0.42279  0.79162  0.09081  1.0000
  H   H1645     1.0  0.34850  0.67859  0.31503  1.0000
  H   H1646     1.0  0.26943  0.67755  0.32143  1.0000
  H   H1647     1.0  0.35138  0.71161  0.99658  1.0000
  N   N94       1.0  0.36092  0.74131  0.99107  1.0000
  C   C1371     1.0  0.38221  0.78879  0.27868  1.0000
  C   C1372     1.0  0.36484  0.79058  0.25088  1.0000
  C   C1373     1.0  0.49182  0.66634  0.16390  1.0000
  C   C1374     1.0  0.35836  0.84158  0.26222  1.0000
  C   C1375     1.0  0.34272  0.85714  0.27052  1.0000
  H   H1648     1.0  0.36485  0.66164  0.08395  1.0000
  H   H1649     1.0  0.37025  0.78113  0.29064  1.0000
  H   H1650     1.0  0.39501  0.77584  0.27357  1.0000
  H   H1651     1.0  0.42296  0.84042  0.11447  1.0000
  S   S364      1.0  0.26436  0.72456  0.27764  1.0000
  H   H1652     1.0  0.33632  0.79929  0.28863  1.0000
  H   H1653     1.0  0.41101  0.66929  0.13185  1.0000
  H   H1654     1.0  0.48105  0.75404  0.10881  1.0000
  Fe  Fe181     1.0  0.41523  0.69191  0.05661  1.0000
  C   C1376     1.0  0.35685  0.82003  0.26843  1.0000
  H   H1655     1.0  0.27075  0.70488  0.04964  1.0000
  H   H1656     1.0  0.45074  0.69806  0.14355  1.0000
  H   H1657     1.0  0.46201  0.73843  0.09152  1.0000
  S   S365      1.0  0.46570  0.73864  0.04714  1.0000
  C   C1377     1.0  0.27468  0.68516  0.99816  1.0000
  H   H1658     1.0  0.46013  0.81834  0.14976  1.0000
  H   H1659     1.0  0.36315  0.80409  0.02785  1.0000
  C   C1378     1.0  0.48536  0.75505  0.09201  1.0000
  H   H1660     1.0  0.48668  0.66925  0.10589  1.0000
  H   H1661     1.0  0.49054  0.74240  0.00819  1.0000
  C   C1379     1.0  0.32295  0.83095  0.29108  1.0000
  Fe  Fe182     1.0  0.40970  0.70369  0.09884  1.0000
  Fe  Fe183     1.0  0.29320  0.78806  0.01106  1.0000
  S   S366      1.0  0.41040  0.67371  0.08972  1.0000
  H   H1662     1.0  0.35905  0.75591  0.01667  1.0000
  H   H1663     1.0  0.43847  0.82842  0.09296  1.0000
  H   H1664     1.0  0.42896  0.82288  0.01901  1.0000
  C   C1380     1.0  0.25580  0.68072  0.99630  1.0000
  H   H1665     1.0  0.39912  0.81935  0.25146  1.0000
  S   S367      1.0  0.31375  0.71183  0.03427  1.0000
  C   C1381     1.0  0.24822  0.84255  0.31353  1.0000
  C   C1382     1.0  0.40205  0.81580  0.06149  1.0000
  C   C1383     1.0  0.47995  0.74760  0.06049  1.0000
  H   H1666     1.0  0.48977  0.82923  0.02071  1.0000
  H   H1667     1.0  0.39772  0.77231  0.00386  1.0000
  H   H1668     1.0  0.47142  0.79871  0.10101  1.0000
  H   H1669     1.0  0.37400  0.96513  0.99345  1.0000
  C   C1384     1.0  0.34813  0.86315  0.03425  1.0000
  C   C1385     1.0  0.46669  0.83678  0.10938  1.0000
  C   C1386     1.0  0.36762  0.82657  0.99871  1.0000
  S   S368      1.0  0.30509  0.76813  0.03932  1.0000
  H   H1670     1.0  0.40330  0.79749  0.23940  1.0000
  H   H1671     1.0  0.48402  0.98478  0.14584  1.0000
  S   S369      1.0  0.46796  0.99150  0.04591  1.0000
  S   S370      1.0  0.46303  0.94236  0.06350  1.0000
  H   H1672     1.0  0.31272  0.86401  0.29085  1.0000
  H   H1673     1.0  0.36344  0.92059  0.09753  1.0000
  C   C1387     1.0  0.33863  0.81525  0.28314  1.0000
  Fe  Fe184     1.0  0.44979  0.95056  0.09510  1.0000
  C   C1388     1.0  0.29928  0.82867  0.05307  1.0000
  H   H1674     1.0  0.48672  0.80829  0.05689  1.0000
  H   H1675     1.0  0.44147  0.86437  0.10514  1.0000
  S   S371      1.0  0.24810  0.77509  0.29997  1.0000
  C   C1389     1.0  0.32503  0.85185  0.28486  1.0000
  H   H1676     1.0  0.45961  0.66400  0.13372  1.0000
  C   C1390     1.0  0.47571  0.82307  0.02840  1.0000
  C   C1391     1.0  0.24385  0.78142  0.37659  1.0000
  Fe  Fe185     1.0  0.44299  0.97315  0.05208  1.0000
  C   C1392     1.0  0.24864  0.80517  0.09555  1.0000
  C   C1393     1.0  0.24491  0.88284  0.36687  1.0000
  H   H1677     1.0  0.43404  0.76974  0.07755  1.0000
  S   S372      1.0  0.44403  0.69799  0.09722  1.0000
  H   H1678     1.0  0.40682  0.68965  0.19875  1.0000
  C   C1394     1.0  0.47460  0.74613  0.08225  1.0000
  H   H1679     1.0  0.27938  0.88608  0.19887  1.0000
  H   H1680     1.0  0.24597  0.88200  0.38336  1.0000
  Fe  Fe186     1.0  0.44503  0.66923  0.08574  1.0000
  N   N95       1.0  0.25189  0.65909  0.00127  1.0000
  C   C1395     1.0  0.27780  0.70579  0.99346  1.0000
  S   S373      1.0  0.47545  0.96678  0.09347  1.0000
  S   S374      1.0  0.38818  0.83416  0.00442  1.0000
  H   H1681     1.0  0.25245  0.97639  0.47857  1.0000
  H   H1682     1.0  0.48639  0.94836  0.99961  1.0000
  H   H1683     1.0  0.27434  0.87786  0.16568  1.0000
  H   H1684     1.0  0.24552  0.90099  0.21674  1.0000
  C   C1396     1.0  0.27091  0.86278  0.17593  1.0000
  C   C1397     1.0  0.44133  0.81900  0.02770  1.0000
  H   H1685     1.0  0.45623  0.79307  0.07405  1.0000
  Fe  Fe187     1.0  0.41879  0.66492  0.27136  1.0000
  C   C1398     1.0  0.24295  0.88074  0.32543  1.0000
  H   H1686     1.0  0.27239  0.85038  0.38127  1.0000
  C   C1399     1.0  0.47397  0.81121  0.04878  1.0000
  C   C1400     1.0  0.27394  0.67110  0.05509  1.0000
  N   N96       1.0  0.41996  0.79803  0.05830  1.0000
  H   H1687     1.0  0.26177  0.85652  0.16828  1.0000
  C   C1401     1.0  0.27453  0.68243  0.33306  1.0000
  C   C1402     1.0  0.25434  0.84558  0.20994  1.0000
  C   C1403     1.0  0.41713  0.66467  0.18147  1.0000
  C   C1404     1.0  0.48878  0.83112  0.10703  1.0000
  H   H1688     1.0  0.27917  0.94610  0.42071  1.0000
  C   C1405     1.0  0.24356  0.86136  0.29940  1.0000
  H   H1689     1.0  0.48241  0.90324  0.12208  1.0000
  H   H1690     1.0  0.35588  0.98025  0.03592  1.0000
  C   C1406     1.0  0.24731  0.93973  0.46972  1.0000
  N   N97       1.0  0.47913  0.67542  0.14744  1.0000
  H   H1691     1.0  0.37896  0.98372  0.01613  1.0000
  H   H1692     1.0  0.47857  0.66800  0.39873  1.0000
  C   C1407     1.0  0.41819  0.65907  0.16253  1.0000
  C   C1408     1.0  0.46395  0.79946  0.11763  1.0000
  H   H1693     1.0  0.25412  0.93472  0.36438  1.0000
  H   H1694     1.0  0.46590  0.70455  0.15846  1.0000
  H   H1695     1.0  0.47273  0.92532  0.14576  1.0000
  S   S375      1.0  0.39192  0.66319  0.29875  1.0000
  H   H1696     1.0  0.33313  0.66952  0.03644  1.0000
  H   H1697     1.0  0.26869  0.87103  0.22405  1.0000
  H   H1698     1.0  0.25618  0.89252  0.35653  1.0000
  H   H1699     1.0  0.42883  0.66375  0.31597  1.0000
  H   H1700     1.0  0.43651  0.81015  0.15074  1.0000
  C   C1409     1.0  0.24244  0.72679  0.11326  1.0000
  C   C1410     1.0  0.37507  0.66675  0.02312  1.0000
  C   C1411     1.0  0.29590  0.67706  0.33312  1.0000
  C   C1412     1.0  0.28989  0.69390  0.36237  1.0000
  H   H1701     1.0  0.26110  0.96285  0.37772  1.0000
  C   C1413     1.0  0.25693  0.98448  0.30795  1.0000
  Fe  Fe188     1.0  0.48675  0.96128  0.06063  1.0000
  C   C1414     1.0  0.49189  0.68565  0.12799  1.0000
  H   H1702     1.0  0.24343  0.84041  0.20335  1.0000
  H   H1703     1.0  0.24301  0.75337  0.24453  1.0000
  H   H1704     1.0  0.24389  0.96939  0.29125  1.0000
  C   C1415     1.0  0.47681  0.95497  0.14733  1.0000
  C   C1416     1.0  0.48386  0.93550  0.14132  1.0000
  C   C1417     1.0  0.33917  0.75166  0.98888  1.0000
  H   H1705     1.0  0.49228  0.89172  0.14598  1.0000
  H   H1706     1.0  0.46552  0.98839  0.85173  1.0000
  H   H1707     1.0  0.46386  0.85041  0.89028  1.0000
  C   C1418     1.0  0.39815  0.74303  0.97279  1.0000
  C   C1419     1.0  0.32902  0.98359  0.72407  1.0000
  C   C1420     1.0  0.25416  0.96175  0.49086  1.0000
  C   C1421     1.0  0.40744  0.77452  0.94904  1.0000
  H   H1708     1.0  0.41916  0.78283  0.93856  1.0000
  C   C1422     1.0  0.26234  0.72251  0.98682  1.0000
  C   C1423     1.0  0.36445  0.71962  0.98747  1.0000
  C   C1424     1.0  0.46786  0.98728  0.98422  1.0000
  H   H1709     1.0  0.33729  0.75459  0.97235  1.0000
  C   C1425     1.0  0.45678  0.95634  0.93966  1.0000
  H   H1710     1.0  0.48325  0.75792  0.95294  1.0000
  H   H1711     1.0  0.48210  0.81016  0.90178  1.0000
  S   S376      1.0  0.43520  0.96755  0.84874  1.0000
  H   H1712     1.0  0.36839  0.84749  0.96849  1.0000
  Fe  Fe189     1.0  0.44750  0.86116  0.95689  1.0000
  S   S377      1.0  0.42554  0.84490  0.95035  1.0000
  H   H1713     1.0  0.34497  0.98668  0.72166  1.0000
  Fe  Fe190     1.0  0.41442  0.90009  0.96346  1.0000
  S   S378      1.0  0.38932  0.88695  0.95792  1.0000
  C   C1426     1.0  0.42763  0.98534  0.94464  1.0000
  H   H1714     1.0  0.47319  0.95058  0.93397  1.0000
  Fe  Fe191     1.0  0.41412  0.87651  0.93123  1.0000
  S   S379      1.0  0.41057  0.88097  0.89803  1.0000
  S   S380      1.0  0.43827  0.89170  0.93545  1.0000
  H   H1715     1.0  0.36593  0.71970  0.97060  1.0000
  H   H1716     1.0  0.25252  0.65986  0.96896  1.0000
  H   H1717     1.0  0.47928  0.90148  0.86291  1.0000
  S   S381      1.0  0.45487  0.95211  0.79162  1.0000
  H   H1718     1.0  0.33824  0.83756  0.96155  1.0000
  H   H1719     1.0  0.36941  0.97405  0.84304  1.0000
  C   C1427     1.0  0.49028  0.81171  0.91303  1.0000
  H   H1720     1.0  0.47315  0.84078  0.81342  1.0000
  H   H1721     1.0  0.48051  0.79912  0.98163  1.0000
  C   C1428     1.0  0.44881  0.97804  0.93722  1.0000
  H   H1722     1.0  0.41263  0.80259  0.98193  1.0000
  H   H1723     1.0  0.35400  0.98367  0.68837  1.0000
  C   C1429     1.0  0.49186  0.91053  0.91179  1.0000
  C   C1430     1.0  0.42229  0.94949  0.95728  1.0000
  H   H1724     1.0  0.39119  0.97958  0.84934  1.0000
  H   H1725     1.0  0.24930  0.96697  0.50614  1.0000
  N   N98       1.0  0.49064  0.97967  0.98316  1.0000
  H   H1726     1.0  0.49118  0.73274  0.98529  1.0000
  H   H1727     1.0  0.41206  0.96679  0.81882  1.0000
  H   H1728     1.0  0.45895  0.87791  0.89079  1.0000
  N   N99       1.0  0.48138  0.76642  0.98224  1.0000
  C   C1431     1.0  0.34369  0.83017  0.97601  1.0000
  H   H1729     1.0  0.48364  0.93096  0.88352  1.0000
  S   S382      1.0  0.42621  0.87102  0.98564  1.0000
  H   H1730     1.0  0.35559  0.78321  0.96857  1.0000
  C   C1432     1.0  0.48310  0.88938  0.85316  1.0000
  Fe  Fe192     1.0  0.45798  0.96422  0.81861  1.0000
  C   C1433     1.0  0.49153  0.82783  0.94104  1.0000
  C   C1434     1.0  0.41442  0.97114  0.95468  1.0000
  H   H1731     1.0  0.47650  0.91483  0.92131  1.0000
  H   H1732     1.0  0.41591  0.98902  0.98720  1.0000
  C   C1435     1.0  0.48759  0.76978  0.95906  1.0000
  Fe  Fe193     1.0  0.48829  0.93561  0.79199  1.0000
  C   C1436     1.0  0.44350  0.94205  0.94967  1.0000
  Fe  Fe194     1.0  0.46892  0.97932  0.77127  1.0000
  H   H1733     1.0  0.44968  0.92532  0.95197  1.0000
  C   C1437     1.0  0.41598  0.90555  0.88404  1.0000
  C   C1438     1.0  0.41355  0.92170  0.89464  1.0000
  C   C1439     1.0  0.41920  0.94084  0.88366  1.0000
  C   C1440     1.0  0.42770  0.94373  0.86213  1.0000
  C   C1441     1.0  0.43004  0.92766  0.85145  1.0000
  C   C1442     1.0  0.42382  0.90873  0.86233  1.0000
  H   H1734     1.0  0.40710  0.91955  0.91132  1.0000
  H   H1735     1.0  0.41723  0.95328  0.89198  1.0000
  H   H1736     1.0  0.43648  0.92982  0.83479  1.0000
  H   H1737     1.0  0.42545  0.89641  0.85400  1.0000
  H   H1738     1.0  0.32283  0.98168  0.74131  1.0000
  C   C1443     1.0  0.36076  0.83579  0.97992  1.0000
  C   C1444     1.0  0.38663  0.78485  0.95292  1.0000
  C   C1445     1.0  0.48075  0.82560  0.92680  1.0000
  C   C1446     1.0  0.44457  0.78654  0.98196  1.0000
  H   H1739     1.0  0.27098  0.95409  0.48917  1.0000
  H   H1740     1.0  0.29255  0.98314  0.71345  1.0000
  H   H1741     1.0  0.42780  0.97751  0.75778  1.0000
  C   C1447     1.0  0.46379  0.86636  0.88029  1.0000
  C   C1448     1.0  0.48194  0.83856  0.82550  1.0000
  H   H1742     1.0  0.42948  0.74580  0.95633  1.0000
  C   C1449     1.0  0.24326  0.92920  0.50764  1.0000
  S   S383      1.0  0.40541  0.93225  0.97098  1.0000
  H   H1743     1.0  0.39806  0.97703  0.96045  1.0000
  C   C1450     1.0  0.37140  0.77424  0.96637  1.0000
  H   H1744     1.0  0.40841  0.97964  0.79293  1.0000
  N   N100      1.0  0.48436  0.86780  0.86623  1.0000
  H   H1745     1.0  0.45127  0.86937  0.87130  1.0000
  H   H1746     1.0  0.47074  0.89391  0.84377  1.0000
  H   H1747     1.0  0.39042  0.96389  0.80968  1.0000
  H   H1748     1.0  0.45980  0.97436  0.98529  1.0000
  C   C1451     1.0  0.24343  0.71876  0.98551  1.0000
  C   C1452     1.0  0.41320  0.75366  0.95899  1.0000
  H   H1749     1.0  0.46587  0.86755  0.83413  1.0000
  H   H1750     1.0  0.48001  0.78547  0.95135  1.0000
  H   H1751     1.0  0.46531  0.83485  0.92605  1.0000
  H   H1752     1.0  0.38219  0.80123  0.94549  1.0000
  H   H1753     1.0  0.25946  0.91974  0.50599  1.0000
  S   S384      1.0  0.31192  0.80888  0.98556  1.0000
  C   C1453     1.0  0.48955  0.85183  0.85304  1.0000
  H   H1754     1.0  0.39436  0.98137  0.74657  1.0000
  S   S385      1.0  0.48074  0.84572  0.95771  1.0000
  H   H1755     1.0  0.43897  0.98676  0.64295  1.0000
  H   H1756     1.0  0.45031  0.80033  0.97247  1.0000
  C   C1454     1.0  0.47809  0.85401  0.83732  1.0000
  H   H1757     1.0  0.36449  0.98901  0.65045  1.0000
  C   C1455     1.0  0.39999  0.97527  0.80938  1.0000
  H   H1758     1.0  0.33034  0.96833  0.71971  1.0000
  H   H1759     1.0  0.40354  0.72715  0.98077  1.0000
  Fe  Fe195     1.0  0.40336  0.85684  0.97767  1.0000
  S   S386      1.0  0.48998  0.94559  0.82080  1.0000
  C   C1456     1.0  0.42294  0.78805  0.98737  1.0000
  H   H1760     1.0  0.26466  0.73850  0.98335  1.0000
  C   C1457     1.0  0.37847  0.98652  0.84035  1.0000
  C   C1458     1.0  0.37666  0.75282  0.97646  1.0000
  C   C1459     1.0  0.42317  0.99044  0.74547  1.0000
  C   C1460     1.0  0.45852  0.76763  0.98854  1.0000
  H   H1761     1.0  0.62468  0.24750  0.27723  1.0000
  H   H1762     1.0  0.59027  0.25997  0.16999  1.0000
  C   C1461     1.0  0.51900  0.01331  0.00012  1.0000
  C   C1462     1.0  0.72810  0.20176  0.00620  1.0000
  H   H1763     1.0  0.64284  0.13795  0.10527  1.0000
  C   C1463     1.0  0.51051  0.99640  0.99993  1.0000
  Fe  Fe196     1.0  0.51405  0.12236  0.01129  1.0000
  S   S387      1.0  0.72260  0.29884  0.02515  1.0000
  Fe  Fe197     1.0  0.69217  0.05424  0.20244  1.0000
  S   S388      1.0  0.66589  0.08246  0.20146  1.0000
  C   C1464     1.0  0.70494  0.10704  0.24293  1.0000
  Fe  Fe198     1.0  0.55579  0.31031  0.38518  1.0000
  N   N101      1.0  0.71540  0.15711  0.11741  1.0000
  S   S389      1.0  0.72771  0.01894  0.26257  1.0000
  S   S390      1.0  0.56533  0.10293  0.03367  1.0000
  C   C1465     1.0  0.69839  0.19764  0.36653  1.0000
  H   H1764     1.0  0.58455  0.00273  0.11502  1.0000
  C   C1466     1.0  0.54836  0.09361  0.10101  1.0000
  S   S391      1.0  0.58407  0.29049  0.39719  1.0000
  H   H1765     1.0  0.72223  0.16321  0.01009  1.0000
  Fe  Fe199     1.0  0.59905  0.29130  0.36324  1.0000
  S   S392      1.0  0.62310  0.26532  0.35026  1.0000
  C   C1467     1.0  0.55349  0.07344  0.09672  1.0000
  C   C1468     1.0  0.63087  0.29010  0.23814  1.0000
  C   C1469     1.0  0.73789  0.09005  0.28483  1.0000
  Fe  Fe200     1.0  0.62622  0.20418  0.07516  1.0000
  S   S393      1.0  0.65539  0.18042  0.08048  1.0000
  S   S394      1.0  0.61264  0.19761  0.05056  1.0000
  Fe  Fe201     1.0  0.63276  0.23133  0.10287  1.0000
  S   S395      1.0  0.66214  0.20910  0.10955  1.0000
  S   S396      1.0  0.62382  0.26119  0.11611  1.0000
  Fe  Fe202     1.0  0.67002  0.20807  0.07560  1.0000
  S   S397      1.0  0.70364  0.20761  0.05956  1.0000
  Fe  Fe203     1.0  0.64424  0.18407  0.11377  1.0000
  S   S398      1.0  0.64709  0.15676  0.14079  1.0000
  S   S399      1.0  0.64170  0.23194  0.06808  1.0000
  S   S400      1.0  0.61393  0.20607  0.10923  1.0000
  Fe  Fe204     1.0  0.66852  0.18005  0.28026  1.0000
  S   S401      1.0  0.64356  0.16544  0.30359  1.0000
  S   S402      1.0  0.69578  0.18669  0.28863  1.0000
  Fe  Fe205     1.0  0.64738  0.18604  0.24428  1.0000
  S   S403      1.0  0.61997  0.17271  0.26422  1.0000
  S   S404      1.0  0.64924  0.20207  0.21095  1.0000
  Fe  Fe206     1.0  0.62148  0.19110  0.28711  1.0000
  S   S405      1.0  0.59339  0.20987  0.30483  1.0000
  Fe  Fe207     1.0  0.64460  0.14829  0.27870  1.0000
  S   S406      1.0  0.64444  0.11386  0.28682  1.0000
  S   S407      1.0  0.64644  0.20705  0.26557  1.0000
  S   S408      1.0  0.67204  0.16035  0.25677  1.0000
  C   C1470     1.0  0.64575  0.16787  0.16210  1.0000
  C   C1471     1.0  0.63712  0.18919  0.16092  1.0000
  C   C1472     1.0  0.63759  0.19907  0.17660  1.0000
  C   C1473     1.0  0.64675  0.18787  0.19356  1.0000
  C   C1474     1.0  0.65485  0.16627  0.19533  1.0000
  C   C1475     1.0  0.65442  0.15625  0.17944  1.0000
  H   H1766     1.0  0.63015  0.19826  0.14781  1.0000
  H   H1767     1.0  0.63081  0.21556  0.17555  1.0000
  H   H1768     1.0  0.66201  0.15748  0.20846  1.0000
  H   H1769     1.0  0.66127  0.13973  0.18030  1.0000
  C   C1476     1.0  0.61427  0.24956  0.33855  1.0000
  C   C1477     1.0  0.62895  0.23462  0.32837  1.0000
  C   C1478     1.0  0.62251  0.22223  0.31830  1.0000
  C   C1479     1.0  0.60134  0.22483  0.31820  1.0000
  C   C1480     1.0  0.58659  0.23963  0.32853  1.0000
  C   C1481     1.0  0.59305  0.25199  0.33874  1.0000
  H   H1770     1.0  0.64534  0.23267  0.32820  1.0000
  H   H1771     1.0  0.63399  0.21069  0.31061  1.0000
  H   H1772     1.0  0.57018  0.24161  0.32859  1.0000
  H   H1773     1.0  0.58159  0.26332  0.34677  1.0000
  H   H1774     1.0  0.57108  0.02040  0.02864  1.0000
  H   H1775     1.0  0.66133  0.99807  0.19187  1.0000
  S   S409      1.0  0.53727  0.14316  0.00569  1.0000
  H   H1776     1.0  0.72687  0.29224  0.11149  1.0000
  H   H1777     1.0  0.58655  0.28927  0.44521  1.0000
  N   N102      1.0  0.56937  0.03488  0.10471  1.0000
  H   H1778     1.0  0.69789  0.10093  0.17094  1.0000
  H   H1779     1.0  0.58989  0.26247  0.45960  1.0000
  C   C1482     1.0  0.63465  0.13389  0.09488  1.0000
  H   H1780     1.0  0.57070  0.27274  0.20058  1.0000
  C   C1483     1.0  0.59295  0.18302  0.05530  1.0000
  C   C1484     1.0  0.59198  0.17327  0.03952  1.0000
  C   C1485     1.0  0.57616  0.16207  0.04230  1.0000
  C   C1486     1.0  0.56097  0.16080  0.06082  1.0000
  C   C1487     1.0  0.65687  0.24603  0.16261  1.0000
  C   C1488     1.0  0.57795  0.18149  0.07399  1.0000
  H   H1781     1.0  0.60340  0.17456  0.02495  1.0000
  H   H1782     1.0  0.57547  0.15478  0.02995  1.0000
  H   H1783     1.0  0.57824  0.18942  0.08600  1.0000
  C   C1489     1.0  0.65836  0.09054  0.22566  1.0000
  C   C1490     1.0  0.64832  0.11136  0.22646  1.0000
  C   C1491     1.0  0.64382  0.11852  0.24527  1.0000
  C   C1492     1.0  0.64828  0.10458  0.26367  1.0000
  C   C1493     1.0  0.65724  0.08345  0.26317  1.0000
  C   C1494     1.0  0.66281  0.07658  0.24407  1.0000
  H   H1784     1.0  0.64440  0.12206  0.21242  1.0000
  H   H1785     1.0  0.63683  0.13483  0.24547  1.0000
  H   H1786     1.0  0.66055  0.07252  0.27736  1.0000
  H   H1787     1.0  0.67043  0.06044  0.24365  1.0000
  Fe  Fe208     1.0  0.71720  0.29642  0.19940  1.0000
  C   C1495     1.0  0.71155  0.27325  0.10059  1.0000
  H   H1788     1.0  0.67654  0.24859  0.05171  1.0000
  H   H1789     1.0  0.56075  0.30706  0.48420  1.0000
  Fe  Fe209     1.0  0.53938  0.13048  0.03974  1.0000
  H   H1790     1.0  0.58397  0.20495  0.15368  1.0000
  C   C1496     1.0  0.58305  0.27906  0.46105  1.0000
  Fe  Fe210     1.0  0.56145  0.11412  0.00026  1.0000
  C   C1497     1.0  0.70523  0.13200  0.33069  1.0000
  C   C1498     1.0  0.69552  0.15082  0.31919  1.0000
  C   C1499     1.0  0.70762  0.16370  0.30384  1.0000
  C   C1500     1.0  0.68893  0.28319  0.27829  1.0000
  H   H1791     1.0  0.52685  0.01238  0.01265  1.0000
  H   H1792     1.0  0.69592  0.12196  0.34250  1.0000
  H   H1793     1.0  0.67872  0.15541  0.32238  1.0000
  C   C1501     1.0  0.68490  0.24704  0.28599  1.0000
  C   C1502     1.0  0.58697  0.23369  0.16005  1.0000
  H   H1794     1.0  0.55014  0.16968  0.09098  1.0000
  H   H1795     1.0  0.58742  0.13659  0.12820  1.0000
  H   H1796     1.0  0.73441  0.02873  0.99996  1.0000
  H   H1797     1.0  0.61279  0.26068  0.21594  1.0000
  H   H1798     1.0  0.65104  0.23024  0.14136  1.0000
  C   C1503     1.0  0.71741  0.27345  0.03365  1.0000
  C   C1504     1.0  0.69678  0.27069  0.03930  1.0000
  C   C1505     1.0  0.69249  0.25050  0.04729  1.0000
  C   C1506     1.0  0.70878  0.23299  0.04939  1.0000
  H   H1799     1.0  0.72889  0.18058  0.09280  1.0000
  H   H1800     1.0  0.68408  0.28418  0.03782  1.0000
  H   H1801     1.0  0.72254  0.24979  0.20589  1.0000
  C   C1507     1.0  0.60170  0.14213  0.11842  1.0000
  C   C1508     1.0  0.61748  0.08661  0.12049  1.0000
  C   C1509     1.0  0.63736  0.08725  0.15198  1.0000
  H   H1802     1.0  0.60959  0.14635  0.12895  1.0000
  H   H1803     1.0  0.72667  0.20840  0.31700  1.0000
  C   C1510     1.0  0.56464  0.08064  0.13108  1.0000
  H   H1804     1.0  0.65926  0.27354  0.28681  1.0000
  H   H1805     1.0  0.73608  0.23835  0.23503  1.0000
  C   C1511     1.0  0.56442  0.05613  0.10954  1.0000
  C   C1512     1.0  0.71107  0.27699  0.27416  1.0000
  N   N103      1.0  0.71397  0.20771  0.34984  1.0000
  C   C1513     1.0  0.73762  0.16645  0.00065  1.0000
  H   H1806     1.0  0.72907  0.27890  0.41609  1.0000
  C   C1514     1.0  0.68795  0.24060  0.33946  1.0000
  C   C1515     1.0  0.70467  0.31646  0.36631  1.0000
  C   C1516     1.0  0.68065  0.26236  0.33654  1.0000
  C   C1517     1.0  0.71050  0.26606  0.34757  1.0000
  C   C1518     1.0  0.69193  0.27507  0.34055  1.0000
  H   H1807     1.0  0.71247  0.19883  0.01526  1.0000
  Fe  Fe211     1.0  0.59335  0.32140  0.39222  1.0000
  C   C1519     1.0  0.61486  0.27959  0.28108  1.0000
  S   S410      1.0  0.73919  0.10180  0.33981  1.0000
  S   S411      1.0  0.52321  0.30583  0.40033  1.0000
  C   C1520     1.0  0.60189  0.00081  0.02706  1.0000
  N   N104      1.0  0.67230  0.30903  0.39392  1.0000
  S   S412      1.0  0.53811  0.09446  0.00380  1.0000
  C   C1521     1.0  0.59111  0.02837  0.99861  1.0000
  H   H1808     1.0  0.60922  0.27467  0.29772  1.0000
  H   H1809     1.0  0.62178  0.32194  0.24093  1.0000
  H   H1810     1.0  0.66603  0.26933  0.33135  1.0000
  H   H1811     1.0  0.70435  0.24517  0.19349  1.0000
  H   H1812     1.0  0.68621  0.29192  0.33834  1.0000
  N   N105      1.0  0.71015  0.22166  0.22117  1.0000
  C   C1522     1.0  0.71717  0.23711  0.20215  1.0000
  C   C1523     1.0  0.70003  0.20787  0.21457  1.0000
  H   H1813     1.0  0.70388  0.24956  0.08805  1.0000
  H   H1814     1.0  0.72240  0.99779  0.13731  1.0000
  H   H1815     1.0  0.65236  0.31935  0.42152  1.0000
  C   C1524     1.0  0.70098  0.15602  0.10458  1.0000
  H   H1816     1.0  0.73610  0.24869  0.27425  1.0000
  H   H1817     1.0  0.63780  0.29751  0.16461  1.0000
  C   C1525     1.0  0.72821  0.27750  0.10708  1.0000
  C   C1526     1.0  0.70490  0.17287  0.13071  1.0000
  H   H1818     1.0  0.53263  0.28415  0.45812  1.0000
  H   H1819     1.0  0.67823  0.27715  0.08049  1.0000
  H   H1820     1.0  0.68693  0.21716  0.20666  1.0000
  H   H1821     1.0  0.69298  0.19676  0.22825  1.0000
  H   H1822     1.0  0.73448  0.32163  0.14769  1.0000
  S   S413      1.0  0.56973  0.30797  0.35157  1.0000
  H   H1823     1.0  0.50177  0.07405  0.07370  1.0000
  H   H1824     1.0  0.54862  0.07150  0.08331  1.0000
  C   C1527     1.0  0.73064  0.09620  0.15712  1.0000
  H   H1825     1.0  0.68107  0.31944  0.08176  1.0000
  H   H1826     1.0  0.59643  0.02192  0.11891  1.0000
  H   H1827     1.0  0.58940  0.11875  0.09887  1.0000
  H   H1828     1.0  0.72766  0.30763  0.43346  1.0000
  H   H1829     1.0  0.72986  0.11662  0.19182  1.0000
  C   C1528     1.0  0.59318  0.22990  0.23261  1.0000
  H   H1830     1.0  0.58275  0.29954  0.30789  1.0000
  H   H1831     1.0  0.70343  0.18019  0.36993  1.0000
  H   H1832     1.0  0.68925  0.17018  0.13984  1.0000
  H   H1833     1.0  0.73032  0.22935  0.19113  1.0000
  H   H1834     1.0  0.60830  0.32127  0.46043  1.0000
  N   N106      1.0  0.69174  0.28893  0.10002  1.0000
  C   C1529     1.0  0.63143  0.10581  0.13787  1.0000
  C   C1530     1.0  0.67483  0.28056  0.09649  1.0000
  H   H1835     1.0  0.65958  0.29192  0.09785  1.0000
  H   H1836     1.0  0.69980  0.24512  0.24036  1.0000
  C   C1531     1.0  0.58655  0.01681  0.01896  1.0000
  C   C1532     1.0  0.60985  0.25350  0.20408  1.0000
  H   H1837     1.0  0.71003  0.12685  0.28102  1.0000
  Fe  Fe212     1.0  0.53943  0.08618  0.03758  1.0000
  H   H1838     1.0  0.63501  0.11992  0.13974  1.0000
  C   C1533     1.0  0.72936  0.15794  0.30028  1.0000
  H   H1839     1.0  0.55446  0.26330  0.45101  1.0000
  C   C1534     1.0  0.58109  0.01844  0.11930  1.0000
  H   H1840     1.0  0.66585  0.23192  0.17061  1.0000
  N   N107      1.0  0.56023  0.28198  0.46991  1.0000
  H   H1841     1.0  0.67234  0.26592  0.10815  1.0000
  H   H1842     1.0  0.70801  0.06937  0.30034  1.0000
  H   H1843     1.0  0.73967  0.18270  0.35818  1.0000
  H   H1844     1.0  0.57195  0.01648  0.13572  1.0000
  H   H1845     1.0  0.53986  0.10651  0.09101  1.0000
  H   H1846     1.0  0.52548  0.01707  0.05011  1.0000
  H   H1847     1.0  0.74212  0.22230  0.04487  1.0000
  H   H1848     1.0  0.56874  0.08349  0.14455  1.0000
  H   H1849     1.0  0.69324  0.07919  0.28012  1.0000
  C   C1535     1.0  0.62127  0.10613  0.12168  1.0000
  S   S414      1.0  0.51350  0.11264  0.04602  1.0000
  H   H1850     1.0  0.63832  0.05403  0.16126  1.0000
  S   S415      1.0  0.70873  0.04058  0.17394  1.0000
  N   N108      1.0  0.59112  0.24388  0.21188  1.0000
  N   N109      1.0  0.59449  0.13495  0.33800  1.0000
  C   C1536     1.0  0.60126  0.11213  0.33784  1.0000
  C   C1537     1.0  0.57314  0.13827  0.35117  1.0000
  C   C1538     1.0  0.59353  0.14625  0.31613  1.0000
  C   C1539     1.0  0.60858  0.14323  0.34607  1.0000
  C   C1540     1.0  0.60357  0.16451  0.34833  1.0000
  C   C1541     1.0  0.62769  0.13087  0.35141  1.0000
  C   C1542     1.0  0.61671  0.17282  0.35562  1.0000
  C   C1543     1.0  0.64074  0.13937  0.35867  1.0000
  C   C1544     1.0  0.63526  0.16028  0.36077  1.0000
  H   H1851     1.0  0.60220  0.10258  0.35386  1.0000
  H   H1852     1.0  0.59029  0.10633  0.33186  1.0000
  H   H1853     1.0  0.61673  0.10860  0.32719  1.0000
  H   H1854     1.0  0.56575  0.15520  0.35002  1.0000
  H   H1855     1.0  0.57343  0.13123  0.36801  1.0000
  H   H1856     1.0  0.56243  0.13106  0.34635  1.0000
  H   H1857     1.0  0.60922  0.14369  0.30572  1.0000
  H   H1858     1.0  0.58292  0.14066  0.30950  1.0000
  H   H1859     1.0  0.58795  0.16352  0.31482  1.0000
  H   H1860     1.0  0.58967  0.17511  0.34396  1.0000
  H   H1861     1.0  0.63314  0.11469  0.34979  1.0000
  H   H1862     1.0  0.61261  0.18922  0.35688  1.0000
  H   H1863     1.0  0.65535  0.12974  0.36242  1.0000
  H   H1864     1.0  0.64553  0.16685  0.36616  1.0000
  C   C1545     1.0  0.51180  0.31846  0.42156  1.0000
  H   H1865     1.0  0.67498  0.23555  0.29033  1.0000
  H   H1866     1.0  0.64464  0.30615  0.38503  1.0000
  H   H1867     1.0  0.59536  0.23844  0.24384  1.0000
  H   H1868     1.0  0.60706  0.21684  0.23102  1.0000
  H   H1869     1.0  0.62078  0.05329  0.13341  1.0000
  S   S416      1.0  0.70661  0.29324  0.17165  1.0000
  H   H1870     1.0  0.73055  0.16973  0.03991  1.0000
  H   H1871     1.0  0.70436  0.31441  0.28732  1.0000
  C   C1546     1.0  0.60442  0.12389  0.09117  1.0000
  H   H1872     1.0  0.73389  0.20388  0.37169  1.0000
  C   C1547     1.0  0.55385  0.09722  0.11817  1.0000
  H   H1873     1.0  0.64512  0.08749  0.16423  1.0000
  H   H1874     1.0  0.68620  0.15173  0.11436  1.0000
  H   H1875     1.0  0.68925  0.10693  0.25177  1.0000
  C   C1548     1.0  0.63200  0.26906  0.24805  1.0000
  C   C1549     1.0  0.57239  0.26076  0.21523  1.0000
  H   H1876     1.0  0.57415  0.04610  0.07098  1.0000
  S   S417      1.0  0.54053  0.14740  0.06458  1.0000
  H   H1877     1.0  0.53945  0.02799  0.12169  1.0000
  C   C1550     1.0  0.63558  0.26262  0.13633  1.0000
  H   H1878     1.0  0.63286  0.31768  0.29106  1.0000
  C   C1551     1.0  0.55250  0.30369  0.47350  1.0000
  S   S418      1.0  0.66796  0.30220  0.46030  1.0000
  H   H1879     1.0  0.71442  0.17255  0.14211  1.0000
  S   S419      1.0  0.71239  0.31992  0.47342  1.0000
  Fe  Fe213     1.0  0.70803  0.00943  0.19615  1.0000
  N   N110      1.0  0.72432  0.29298  0.26786  1.0000
  C   C1552     1.0  0.71529  0.25390  0.09394  1.0000
  H   H1880     1.0  0.70077  0.20326  0.32538  1.0000
  C   C1553     1.0  0.70774  0.11244  0.22106  1.0000
  C   C1554     1.0  0.58239  0.31444  0.29598  1.0000
  C   C1555     1.0  0.58229  0.03531  0.08321  1.0000
  H   H1881     1.0  0.59761  0.99253  0.04301  1.0000
  H   H1882     1.0  0.68900  0.22195  0.25095  1.0000
  H   H1883     1.0  0.74128  0.15419  0.09141  1.0000
  H   H1884     1.0  0.69665  0.17138  0.09397  1.0000
  C   C1556     1.0  0.72104  0.13622  0.13087  1.0000
  H   H1885     1.0  0.71922  0.27595  0.35087  1.0000
  C   C1557     1.0  0.72945  0.23574  0.04328  1.0000
  H   H1886     1.0  0.59711  0.04041  0.08167  1.0000
  H   H1887     1.0  0.70115  0.30217  0.06731  1.0000
  C   C1558     1.0  0.69551  0.30709  0.08272  1.0000
  H   H1888     1.0  0.58628  0.01963  0.07893  1.0000
  H   H1889     1.0  0.68292  0.20116  0.36210  1.0000
  H   H1890     1.0  0.66812  0.30659  0.12102  1.0000
  C   C1559     1.0  0.69402  0.23302  0.23613  1.0000
  C   C1560     1.0  0.58523  0.20165  0.18602  1.0000
  C   C1561     1.0  0.70391  0.11205  0.28618  1.0000
  C   C1562     1.0  0.72806  0.21018  0.23123  1.0000
  C   C1563     1.0  0.70537  0.12721  0.14636  1.0000
  Fe  Fe214     1.0  0.73804  0.03984  0.18423  1.0000
  C   C1564     1.0  0.68715  0.29493  0.40686  1.0000
  H   H1891     1.0  0.65028  0.28859  0.40823  1.0000
  C   C1565     1.0  0.72701  0.12588  0.32650  1.0000
  H   H1892     1.0  0.58735  0.24218  0.14393  1.0000
  H   H1893     1.0  0.55446  0.29009  0.43837  1.0000
  C   C1566     1.0  0.68400  0.29639  0.12015  1.0000
  H   H1894     1.0  0.55790  0.25421  0.22064  1.0000
  H   H1895     1.0  0.57307  0.26923  0.22721  1.0000
  C   C1567     1.0  0.62235  0.99580  0.01497  1.0000
  H   H1896     1.0  0.68136  0.29959  0.27699  1.0000
  H   H1897     1.0  0.66614  0.28402  0.38321  1.0000
  C   C1568     1.0  0.64727  0.29637  0.48098  1.0000
  H   H1898     1.0  0.68920  0.13525  0.14847  1.0000
  H   H1899     1.0  0.63726  0.29410  0.22146  1.0000
  H   H1900     1.0  0.68319  0.28293  0.13377  1.0000
  H   H1901     1.0  0.67850  0.23142  0.33638  1.0000
  H   H1902     1.0  0.71120  0.19882  0.20319  1.0000
  N   N111      1.0  0.71853  0.09498  0.27642  1.0000
  C   C1569     1.0  0.70923  0.07596  0.28322  1.0000
  H   H1903     1.0  0.59180  0.28347  0.47067  1.0000
  H   H1904     1.0  0.60993  0.08521  0.10871  1.0000
  S   S420      1.0  0.72153  0.05696  0.21026  1.0000
  H   H1905     1.0  0.69391  0.30621  0.12244  1.0000
  H   H1906     1.0  0.55268  0.01245  0.10217  1.0000
  C   C1570     1.0  0.62173  0.30601  0.24958  1.0000
  H   H1907     1.0  0.71875  0.06339  0.27472  1.0000
  H   H1908     1.0  0.57805  0.04818  0.13765  1.0000
  C   C1571     1.0  0.67611  0.26840  0.28397  1.0000
  H   H1909     1.0  0.57904  0.22311  0.24022  1.0000
  C   C1572     1.0  0.73428  0.23956  0.09443  1.0000
  C   C1573     1.0  0.54967  0.02833  0.10583  1.0000
  C   C1574     1.0  0.71950  0.25503  0.27664  1.0000
  C   C1575     1.0  0.65782  0.29640  0.39240  1.0000
  H   H1910     1.0  0.73264  0.23855  0.35577  1.0000
  S   S421      1.0  0.73867  0.00780  0.20458  1.0000
  C   C1576     1.0  0.56991  0.06033  0.12691  1.0000
  H   H1911     1.0  0.68821  0.11553  0.28233  1.0000
  C   C1577     1.0  0.51591  0.04619  0.06092  1.0000
  H   H1912     1.0  0.70136  0.10776  0.30362  1.0000
  H   H1913     1.0  0.61425  0.11278  0.08107  1.0000
  H   H1914     1.0  0.63099  0.14843  0.08286  1.0000
  H   H1915     1.0  0.54045  0.03900  0.09441  1.0000
  C   C1578     1.0  0.71017  0.10753  0.15928  1.0000
  C   C1579     1.0  0.49939  0.05955  0.07140  1.0000
  C   C1580     1.0  0.64102  0.28289  0.15929  1.0000
  C   C1581     1.0  0.58914  0.23287  0.19621  1.0000
  H   H1916     1.0  0.63920  0.25682  0.23909  1.0000
  H   H1917     1.0  0.60864  0.26618  0.18993  1.0000
  H   H1918     1.0  0.65365  0.26369  0.47934  1.0000
  C   C1582     1.0  0.73853  0.30620  0.41881  1.0000
  C   C1583     1.0  0.63350  0.06841  0.15035  1.0000
  H   H1919     1.0  0.72233  0.29357  0.30009  1.0000
  H   H1920     1.0  0.57921  0.04089  0.99246  1.0000
  S   S422      1.0  0.68948  0.02316  0.22427  1.0000
  C   C1584     1.0  0.58510  0.21274  0.16550  1.0000
  C   C1585     1.0  0.70653  0.24040  0.28235  1.0000
  C   C1586     1.0  0.58721  0.21146  0.20124  1.0000
  H   H1921     1.0  0.62241  0.29554  0.13537  1.0000
  C   C1587     1.0  0.62358  0.06808  0.13466  1.0000
  C   C1588     1.0  0.56200  0.17042  0.07671  1.0000
  C   C1589     1.0  0.63216  0.28171  0.14286  1.0000
  S   S423      1.0  0.68758  0.29018  0.22182  1.0000
  C   C1590     1.0  0.65306  0.26486  0.16951  1.0000
  H   H1922     1.0  0.60040  0.13911  0.08018  1.0000
  C   C1591     1.0  0.73768  0.00191  0.13184  1.0000
  Fe  Fe215     1.0  0.67602  0.29037  0.19332  1.0000
  H   H1923     1.0  0.64592  0.12195  0.08657  1.0000
  C   C1592     1.0  0.64838  0.24501  0.14599  1.0000
  H   H1924     1.0  0.73681  0.22507  0.08901  1.0000
  S   S424      1.0  0.54083  0.05213  0.05171  1.0000
  H   H1925     1.0  0.58771  0.20175  0.21665  1.0000
  H   H1926     1.0  0.58435  0.18516  0.19003  1.0000
  N   N112      1.0  0.61551  0.12603  0.10675  1.0000
  C   C1593     1.0  0.58880  0.24371  0.17514  1.0000
  C   C1594     1.0  0.72205  0.10140  0.25323  1.0000
  C   C1595     1.0  0.71593  0.20039  0.33025  1.0000
  H   H1927     1.0  0.61787  0.30043  0.31065  1.0000
  C   C1596     1.0  0.61323  0.30120  0.27147  1.0000
  C   C1597     1.0  0.54997  0.27964  0.45377  1.0000
  H   H1928     1.0  0.72223  0.18316  0.33196  1.0000
  S   S425      1.0  0.66079  0.26446  0.19281  1.0000
  H   H1929     1.0  0.72577  0.17797  0.23178  1.0000
  H   H1930     1.0  0.62408  0.24153  0.19985  1.0000
  H   H1931     1.0  0.69682  0.30391  0.41089  1.0000
  Fe  Fe216     1.0  0.72035  0.02496  0.23022  1.0000
  H   H1932     1.0  0.67992  0.24127  0.22944  1.0000
  C   C1598     1.0  0.62394  0.26384  0.26948  1.0000
  C   C1599     1.0  0.51278  0.02739  0.05826  1.0000
  H   H1933     1.0  0.69436  0.11612  0.21366  1.0000
  H   H1934     1.0  0.70260  0.31646  0.25105  1.0000
  H   H1935     1.0  0.71339  0.22377  0.28377  1.0000
  H   H1936     1.0  0.69757  0.28233  0.39885  1.0000
  H   H1937     1.0  0.59665  0.15710  0.10757  1.0000
  H   H1938     1.0  0.54955  0.11291  0.12146  1.0000
  H   H1939     1.0  0.69601  0.20317  0.38140  1.0000
  C   C1600     1.0  0.71916  0.30823  0.24877  1.0000
  H   H1940     1.0  0.70227  0.18912  0.12116  1.0000
  C   C1601     1.0  0.73378  0.25593  0.03535  1.0000
  C   C1602     1.0  0.62651  0.00790  0.99423  1.0000
  H   H1941     1.0  0.55498  0.31549  0.45863  1.0000
  C   C1603     1.0  0.71805  0.24433  0.35041  1.0000
  C   C1604     1.0  0.72038  0.30459  0.28497  1.0000
  H   H1942     1.0  0.73427  0.08091  0.16707  1.0000
  H   H1943     1.0  0.70824  0.14407  0.09465  1.0000
  H   H1944     1.0  0.67890  0.28697  0.42223  1.0000
  C   C1605     1.0  0.70693  0.23087  0.34641  1.0000
  N   N113      1.0  0.60354  0.31752  0.28421  1.0000
  H   H1945     1.0  0.71514  0.30774  0.37666  1.0000
  S   S426      1.0  0.61094  0.32058  0.35927  1.0000
  C   C1606     1.0  0.73448  0.20008  0.35635  1.0000
  C   C1607     1.0  0.73919  0.29003  0.40885  1.0000
  H   H1946     1.0  0.57239  0.31434  0.28518  1.0000
  C   C1608     1.0  0.72768  0.11263  0.20877  1.0000
  C   C1609     1.0  0.73898  0.13889  0.31137  1.0000
  H   H1947     1.0  0.73254  0.01723  0.10092  1.0000
  C   C1610     1.0  0.73357  0.16478  0.10264  1.0000
  C   C1611     1.0  0.68263  0.31863  0.37268  1.0000
  C   C1612     1.0  0.61672  0.31582  0.29938  1.0000
  H   H1948     1.0  0.72199  0.30025  0.23551  1.0000
  H   H1949     1.0  0.73134  0.21399  0.01262  1.0000
  C   C1613     1.0  0.73410  0.18788  0.23543  1.0000
  H   H1950     1.0  0.70759  0.31457  0.08468  1.0000
  H   H1951     1.0  0.64811  0.00116  0.03640  1.0000
  C   C1614     1.0  0.49327  0.02182  0.06617  1.0000
  H   H1952     1.0  0.73476  0.08546  0.30231  1.0000
  H   H1953     1.0  0.73878  0.16799  0.28870  1.0000
  H   H1954     1.0  0.53550  0.30661  0.48064  1.0000
  H   H1955     1.0  0.53091  0.25545  0.48399  1.0000
  H   H1956     1.0  0.73140  0.31549  0.28156  1.0000
  H   H1957     1.0  0.73083  0.32390  0.34176  1.0000
  H   H1958     1.0  0.72879  0.32056  0.24367  1.0000
  C   C1615     1.0  0.64379  0.27582  0.48744  1.0000
  C   C1616     1.0  0.73987  0.22139  0.23751  1.0000
  C   C1617     1.0  0.73746  0.32432  0.13087  1.0000
  C   C1618     1.0  0.74181  0.12417  0.12898  1.0000
  C   C1619     1.0  0.74224  0.10165  0.24021  1.0000
  S   S427      1.0  0.66220  0.32475  0.18814  1.0000
  H   H1959     1.0  0.72684  0.20858  0.98956  1.0000
  Fe  Fe217     1.0  0.67648  0.32520  0.21489  1.0000
  S   S428      1.0  0.67156  0.07983  0.91927  1.0000
  H   H1960     1.0  0.66824  0.12952  0.86553  1.0000
  H   H1961     1.0  0.56918  0.01897  0.89268  1.0000
  N   N114      1.0  0.65985  0.29647  0.55139  1.0000
  H   H1962     1.0  0.52456  0.23188  0.51771  1.0000
  H   H1963     1.0  0.57126  0.25063  0.53766  1.0000
  H   H1964     1.0  0.60325  0.16368  0.90784  1.0000
  H   H1965     1.0  0.50575  0.01088  0.90806  1.0000
  Fe  Fe218     1.0  0.73002  0.02006  0.90138  1.0000
  H   H1966     1.0  0.65177  0.15532  0.94915  1.0000
  C   C1620     1.0  0.69716  0.03971  0.84851  1.0000
  H   H1967     1.0  0.64162  0.00544  0.98386  1.0000
  N   N115      1.0  0.53729  0.03412  0.89081  1.0000
  H   H1968     1.0  0.53513  0.01857  0.92335  1.0000
  C   C1621     1.0  0.71854  0.06188  0.82236  1.0000
  S   S429      1.0  0.71475  0.04680  0.94990  1.0000
  Fe  Fe219     1.0  0.56947  0.09314  0.87517  1.0000
  S   S430      1.0  0.58099  0.12300  0.85977  1.0000
  S   S431      1.0  0.55838  0.08058  0.90928  1.0000
  Fe  Fe220     1.0  0.57480  0.07997  0.83392  1.0000
  S   S432      1.0  0.58738  0.10823  0.81461  1.0000
  S   S433      1.0  0.56845  0.05408  0.82266  1.0000
  Fe  Fe221     1.0  0.60549  0.10256  0.84003  1.0000
  S   S434      1.0  0.63978  0.10189  0.83423  1.0000
  Fe  Fe222     1.0  0.56174  0.12581  0.83614  1.0000
  S   S435      1.0  0.53897  0.15496  0.82565  1.0000
  S   S436      1.0  0.59525  0.07251  0.85727  1.0000
  S   S437      1.0  0.54791  0.09784  0.85343  1.0000
  H   H1969     1.0  0.67977  0.05597  0.80238  1.0000
  C   C1622     1.0  0.54044  0.25471  0.49492  1.0000
  H   H1970     1.0  0.50618  0.17752  0.88044  1.0000
  N   N116      1.0  0.66641  0.03039  0.83989  1.0000
  H   H1971     1.0  0.54349  0.08456  0.76543  1.0000
  C   C1623     1.0  0.64674  0.04582  0.83736  1.0000
  H   H1972     1.0  0.56303  0.04616  0.89381  1.0000
  C   C1624     1.0  0.68409  0.04139  0.83436  1.0000
  H   H1973     1.0  0.54503  0.06902  0.73576  1.0000
  C   C1625     1.0  0.65427  0.13725  0.87492  1.0000
  H   H1974     1.0  0.51167  0.03733  0.91754  1.0000
  Fe  Fe223     1.0  0.57011  0.30672  0.54348  1.0000
  C   C1626     1.0  0.51849  0.14967  0.91353  1.0000
  S   S438      1.0  0.59684  0.27968  0.53813  1.0000
  H   H1975     1.0  0.54493  0.22868  0.54459  1.0000
  C   C1627     1.0  0.54003  0.15037  0.90901  1.0000
  C   C1628     1.0  0.49483  0.28521  0.53913  1.0000
  C   C1629     1.0  0.50266  0.23619  0.62283  1.0000
  C   C1630     1.0  0.65308  0.31651  0.53714  1.0000
  C   C1631     1.0  0.50681  0.23077  0.58205  1.0000
  H   H1976     1.0  0.51210  0.12010  0.88226  1.0000
  H   H1977     1.0  0.52573  0.25432  0.57244  1.0000
  S   S439      1.0  0.54914  0.30843  0.57502  1.0000
  C   C1632     1.0  0.56671  0.26536  0.50630  1.0000
  C   C1633     1.0  0.67025  0.01549  0.82576  1.0000
  Fe  Fe224     1.0  0.70082  0.05525  0.92113  1.0000
  H   H1978     1.0  0.68000  0.31922  0.56562  1.0000
  C   C1634     1.0  0.50525  0.06656  0.83108  1.0000
  H   H1979     1.0  0.53086  0.04013  0.82937  1.0000
  S   S440      1.0  0.73151  0.05401  0.89815  1.0000
  H   H1980     1.0  0.64974  0.01019  0.86547  1.0000
  H   H1981     1.0  0.63596  0.12151  0.95971  1.0000
  C   C1635     1.0  0.54786  0.23935  0.52960  1.0000
  C   C1636     1.0  0.61851  0.15598  0.87841  1.0000
  H   H1982     1.0  0.67936  0.99297  0.95197  1.0000
  H   H1983     1.0  0.51991  0.10694  0.96960  1.0000
  H   H1984     1.0  0.61176  0.17355  0.93515  1.0000
  C   C1637     1.0  0.71414  0.04977  0.84246  1.0000
  H   H1985     1.0  0.61529  0.15527  0.95917  1.0000
  H   H1986     1.0  0.50773  0.22931  0.56613  1.0000
  C   C1638     1.0  0.61364  0.00719  0.80290  1.0000
  C   C1639     1.0  0.64825  0.31017  0.61321  1.0000
  C   C1640     1.0  0.51059  0.16462  0.79991  1.0000
  H   H1987     1.0  0.63112  0.28683  0.55325  1.0000
  H   H1988     1.0  0.54535  0.15746  0.95554  1.0000
  C   C1641     1.0  0.52595  0.14926  0.80887  1.0000
  C   C1642     1.0  0.53090  0.12912  0.80450  1.0000
  C   C1643     1.0  0.52055  0.12428  0.79135  1.0000
  C   C1644     1.0  0.63454  0.31200  0.49144  1.0000
  C   C1645     1.0  0.68242  0.28839  0.54377  1.0000
  C   C1646     1.0  0.56277  0.25160  0.52563  1.0000
  H   H1989     1.0  0.54287  0.11724  0.81105  1.0000
  H   H1990     1.0  0.52455  0.10871  0.78811  1.0000
  H   H1991     1.0  0.50581  0.04676  0.95625  1.0000
  C   C1647     1.0  0.53396  0.01597  0.88429  1.0000
  C   C1648     1.0  0.56971  0.08830  0.92601  1.0000
  C   C1649     1.0  0.56671  0.07870  0.94728  1.0000
  C   C1650     1.0  0.57407  0.08595  0.96123  1.0000
  C   C1651     1.0  0.58369  0.10327  0.95415  1.0000
  C   C1652     1.0  0.58807  0.11183  0.93264  1.0000
  C   C1653     1.0  0.58107  0.10435  0.91857  1.0000
  H   H1992     1.0  0.55839  0.06591  0.95304  1.0000
  S   S441      1.0  0.65524  0.00153  0.78582  1.0000
  H   H1993     1.0  0.59603  0.12479  0.92686  1.0000
  H   H1994     1.0  0.58386  0.11152  0.90214  1.0000
  C   C1654     1.0  0.50008  0.99711  0.98379  1.0000
  C   C1655     1.0  0.63993  0.29332  0.58938  1.0000
  C   C1656     1.0  0.61871  0.30699  0.50869  1.0000
  C   C1657     1.0  0.61551  0.28638  0.51554  1.0000
  H   H1995     1.0  0.53614  0.12294  0.88673  1.0000
  C   C1658     1.0  0.65363  0.13684  0.89595  1.0000
  C   C1659     1.0  0.66313  0.01823  0.86183  1.0000
  H   H1996     1.0  0.65758  0.00645  0.82965  1.0000
  H   H1997     1.0  0.68857  0.27429  0.55502  1.0000
  S   S442      1.0  0.69838  0.02247  0.92212  1.0000
  C   C1660     1.0  0.62805  0.27078  0.50486  1.0000
  C   C1661     1.0  0.70594  0.06402  0.80816  1.0000
  C   C1662     1.0  0.55595  0.26708  0.49017  1.0000
  H   H1998     1.0  0.64325  0.05707  0.84800  1.0000
  H   H1999     1.0  0.54988  0.14792  0.89408  1.0000
  H   H2000     1.0  0.61453  0.03321  0.97050  1.0000
  C   C1663     1.0  0.55992  0.03454  0.88651  1.0000
  C   C1664     1.0  0.52904  0.03386  0.91359  1.0000
  C   C1665     1.0  0.59231  0.03998  0.81125  1.0000
  C   C1666     1.0  0.59428  0.01882  0.81106  1.0000
  C   C1667     1.0  0.51055  0.03888  0.76665  1.0000
  C   C1668     1.0  0.63087  0.01675  0.79446  1.0000
  C   C1669     1.0  0.62876  0.03809  0.79403  1.0000
  C   C1670     1.0  0.60953  0.04965  0.80277  1.0000
  H   H2001     1.0  0.58103  0.01126  0.81763  1.0000
  S   S443      1.0  0.54395  0.31164  0.52684  1.0000
  H   H2002     1.0  0.64206  0.04556  0.78739  1.0000
  H   H2003     1.0  0.60805  0.06604  0.80281  1.0000
  H   H2004     1.0  0.54231  0.02864  0.79627  1.0000
  C   C1671     1.0  0.51665  0.15538  0.94869  1.0000
  C   C1672     1.0  0.50133  0.03041  0.83797  1.0000
  C   C1673     1.0  0.66290  0.08373  0.89582  1.0000
  C   C1674     1.0  0.67719  0.08300  0.87676  1.0000
  C   C1675     1.0  0.67001  0.08854  0.85785  1.0000
  C   C1676     1.0  0.64857  0.09412  0.85802  1.0000
  C   C1677     1.0  0.63429  0.09387  0.87718  1.0000
  C   C1678     1.0  0.64145  0.08906  0.89601  1.0000
  H   H2005     1.0  0.69377  0.07905  0.87649  1.0000
  H   H2006     1.0  0.68105  0.08880  0.84305  1.0000
  H   H2007     1.0  0.61773  0.09804  0.87749  1.0000
  H   H2008     1.0  0.63034  0.08963  0.91072  1.0000
  H   H2009     1.0  0.62838  0.11427  0.93934  1.0000
  N   N117      1.0  0.63513  0.14541  0.93116  1.0000
  H   H2010     1.0  0.52213  0.25912  0.60838  1.0000
  C   C1679     1.0  0.63880  0.12313  0.94238  1.0000
  C   C1680     1.0  0.65197  0.15518  0.93257  1.0000
  C   C1681     1.0  0.63541  0.14633  0.90883  1.0000
  C   C1682     1.0  0.51689  0.24488  0.58555  1.0000
  C   C1683     1.0  0.64834  0.28096  0.54988  1.0000
  H   H2011     1.0  0.62356  0.29301  0.62149  1.0000
  H   H2012     1.0  0.60481  0.16297  0.87158  1.0000
  H   H2013     1.0  0.65505  0.11468  0.93750  1.0000
  H   H2014     1.0  0.65032  0.17168  0.92352  1.0000
  C   C1684     1.0  0.63622  0.29815  0.60923  1.0000
  H   H2015     1.0  0.66778  0.14655  0.92631  1.0000
  C   C1685     1.0  0.54943  0.15355  0.92389  1.0000
  H   H2016     1.0  0.63319  0.03801  0.84092  1.0000
  H   H2017     1.0  0.55920  0.01644  0.85632  1.0000
  S   S444      1.0  0.73674  0.00357  0.87407  1.0000
  C   C1686     1.0  0.55086  0.03150  0.77968  1.0000
  H   H2018     1.0  0.52087  0.08778  0.94259  1.0000
  H   H2019     1.0  0.62573  0.25476  0.51018  1.0000
  H   H2020     1.0  0.67107  0.02359  0.80905  1.0000
  C   C1687     1.0  0.49454  0.21941  0.59884  1.0000
  H   H2021     1.0  0.60953  0.31899  0.51704  1.0000
  H   H2022     1.0  0.64733  0.05533  0.82117  1.0000
  C   C1688     1.0  0.53659  0.24103  0.51436  1.0000
  H   H2023     1.0  0.53343  0.04648  0.91863  1.0000
  H   H2024     1.0  0.56651  0.03935  0.86951  1.0000
  H   H2025     1.0  0.60181  0.14954  0.94263  1.0000
  H   H2026     1.0  0.69211  0.30025  0.54131  1.0000
  H   H2027     1.0  0.50598  0.29477  0.52995  1.0000
  C   C1689     1.0  0.54770  0.06862  0.77517  1.0000
  C   C1690     1.0  0.50529  0.13955  0.78226  1.0000
  H   H2028     1.0  0.50140  0.23940  0.63809  1.0000
  H   H2029     1.0  0.56593  0.15370  0.92016  1.0000
  H   H2030     1.0  0.53337  0.05594  0.86184  1.0000
  H   H2031     1.0  0.63703  0.14590  0.85018  1.0000
  C   C1691     1.0  0.51890  0.05462  0.77048  1.0000
  C   C1692     1.0  0.51743  0.03133  0.98433  1.0000
  C   C1693     1.0  0.61784  0.15614  0.89934  1.0000
  H   H2032     1.0  0.69472  0.03070  0.86438  1.0000
  H   H2033     1.0  0.73340  0.26601  0.98711  1.0000
  H   H2034     1.0  0.56759  0.03012  0.77986  1.0000
  H   H2035     1.0  0.64484  0.31458  0.62835  1.0000
  Fe  Fe225     1.0  0.71541  0.01369  0.94859  1.0000
  C   C1694     1.0  0.50596  0.09506  0.95090  1.0000
  H   H2036     1.0  0.55046  0.01825  0.77282  1.0000
  H   H2037     1.0  0.65977  0.02861  0.87334  1.0000
  H   H2038     1.0  0.50956  0.05366  0.88085  1.0000
  H   H2039     1.0  0.56487  0.06576  0.77426  1.0000
  C   C1695     1.0  0.61513  0.15653  0.94236  1.0000
  H   H2040     1.0  0.52715  0.06771  0.88452  1.0000
  H   H2041     1.0  0.57801  0.27493  0.50430  1.0000
  H   H2042     1.0  0.66734  0.12837  0.90223  1.0000
  H   H2043     1.0  0.54876  0.04105  0.73896  1.0000
  C   C1696     1.0  0.68901  0.05391  0.81399  1.0000
  H   H2044     1.0  0.73168  0.06967  0.81784  1.0000
  H   H2045     1.0  0.52056  0.02466  0.76231  1.0000
  S   S445      1.0  0.58819  0.11548  0.97231  1.0000
  C   C1697     1.0  0.63668  0.14652  0.86624  1.0000
  N   N118      1.0  0.54178  0.05227  0.76783  1.0000
  C   C1698     1.0  0.55152  0.05368  0.74527  1.0000
  C   C1699     1.0  0.50439  0.07291  0.77564  1.0000
  Fe  Fe226     1.0  0.52292  0.31635  0.55758  1.0000
  H   H2046     1.0  0.50915  0.08601  0.77828  1.0000
  C   C1700     1.0  0.51475  0.24763  0.60587  1.0000
  C   C1701     1.0  0.52640  0.05370  0.87892  1.0000
  H   H2047     1.0  0.74065  0.01476  0.97916  1.0000
  C   C1702     1.0  0.66797  0.31265  0.57751  1.0000
  H   H2048     1.0  0.62969  0.28436  0.58729  1.0000
  C   C1703     1.0  0.51404  0.04525  0.83250  1.0000
  C   C1704     1.0  0.50725  0.03257  0.96834  1.0000
  H   H2049     1.0  0.65219  0.26569  0.56079  1.0000
  H   H2050     1.0  0.65218  0.27768  0.53375  1.0000
  C   C1705     1.0  0.50029  0.15978  0.78654  1.0000
  H   H2051     1.0  0.56876  0.05217  0.74250  1.0000
  H   H2052     1.0  0.51773  0.11209  0.90812  1.0000
  H   H2053     1.0  0.51520  0.07801  0.82681  1.0000
  C   C1706     1.0  0.65609  0.30037  0.57289  1.0000
  H   H2054     1.0  0.70926  0.07360  0.79257  1.0000
  C   C1707     1.0  0.53784  0.15577  0.94378  1.0000
  H   H2055     1.0  0.68523  0.00399  0.82672  1.0000
  C   C1708     1.0  0.50543  0.10571  0.96654  1.0000
  H   H2056     1.0  0.52938  0.16011  0.87027  1.0000
  H   H2057     1.0  0.73589  0.17177  0.98400  1.0000
  H   H2058     1.0  0.68546  0.28403  0.52819  1.0000
  H   H2059     1.0  0.50931  0.01424  0.83843  1.0000
  H   H2060     1.0  0.67700  0.00570  0.86467  1.0000
  C   C1709     1.0  0.50700  0.15239  0.93388  1.0000
  H   H2061     1.0  0.50511  0.15893  0.86578  1.0000
  H   H2062     1.0  0.54021  0.06887  0.79188  1.0000
  H   H2063     1.0  0.72397  0.04809  0.85351  1.0000
  H   H2064     1.0  0.65639  0.31450  0.52062  1.0000
  C   C1710     1.0  0.51720  0.00559  0.89506  1.0000
  C   C1711     1.0  0.49870  0.01576  0.96802  1.0000
  H   H2065     1.0  0.72758  0.30410  0.98033  1.0000
  C   C1712     1.0  0.51257  0.16122  0.87781  1.0000
  H   H2066     1.0  0.52398  0.04444  0.98455  1.0000
  C   C1713     1.0  0.51919  0.12432  0.89346  1.0000
  H   H2067     1.0  0.57219  0.07825  0.97752  1.0000
  C   C1714     1.0  0.54692  0.00869  0.86626  1.0000
  H   H2068     1.0  0.50678  0.18026  0.80315  1.0000
  H   H2069     1.0  0.74132  0.08283  0.95110  1.0000
  C   C1715     1.0  0.66410  0.31739  0.59739  1.0000
  H   H2070     1.0  0.49463  0.27179  0.51330  1.0000
  N   N119      1.0  0.50912  0.14552  0.89771  1.0000
  H   H2071     1.0  0.63603  0.32272  0.54181  1.0000
  H   H2072     1.0  0.50005  0.18045  0.63528  1.0000
  S   S446      1.0  0.49297  0.13270  0.76562  1.0000
  C   C1716     1.0  0.49231  0.22152  0.61982  1.0000
  H   H2073     1.0  0.49705  0.20541  0.66045  1.0000
  H   H2074     1.0  0.50771  0.15686  0.96431  1.0000
  S   S447      1.0  0.49378  0.30278  0.57255  1.0000
  H   H2075     1.0  0.74197  0.10742  0.97287  1.0000
  C   C1717     1.0  0.74217  0.29582  0.97246  1.0000
  C   C1718     1.0  0.61102  0.02396  0.98628  1.0000
  C   C1719     1.0  0.50703  0.55506  0.37226  1.0000
  H   H2076     1.0  0.51604  0.35649  0.39268  1.0000
  C   C1720     1.0  0.66373  0.42522  0.45821  1.0000
  S   S448      1.0  0.69715  0.34599  0.13477  1.0000
  H   H2077     1.0  0.71426  0.38024  0.37090  1.0000
  H   H2078     1.0  0.66932  0.51411  0.31543  1.0000
  S   S449      1.0  0.65766  0.34003  0.24253  1.0000
  H   H2079     1.0  0.63424  0.60595  0.43210  1.0000
  H   H2080     1.0  0.61996  0.63146  0.35681  1.0000
  C   C1721     1.0  0.57796  0.59542  0.41893  1.0000
  S   S450      1.0  0.56403  0.34124  0.38246  1.0000
  N   N120      1.0  0.62157  0.53079  0.47726  1.0000
  H   H2081     1.0  0.53989  0.43532  0.42488  1.0000
  Fe  Fe227     1.0  0.67739  0.40674  0.31129  1.0000
  S   S451      1.0  0.66443  0.39448  0.34522  1.0000
  S   S452      1.0  0.69784  0.38636  0.28881  1.0000
  Fe  Fe228     1.0  0.65743  0.45212  0.31433  1.0000
  S   S453      1.0  0.64232  0.44359  0.34826  1.0000
  S   S454      1.0  0.65467  0.48596  0.29754  1.0000
  Fe  Fe229     1.0  0.67319  0.42226  0.35132  1.0000
  S   S455      1.0  0.68558  0.42036  0.37996  1.0000
  Fe  Fe230     1.0  0.63489  0.41703  0.33890  1.0000
  S   S456      1.0  0.60361  0.40764  0.34960  1.0000
  S   S457      1.0  0.68900  0.43247  0.31801  1.0000
  S   S458      1.0  0.64726  0.42737  0.30461  1.0000
  H   H2082     1.0  0.73646  0.41628  0.36889  1.0000
  H   H2083     1.0  0.62404  0.62774  0.44488  1.0000
  C   C1722     1.0  0.67760  0.51657  0.34395  1.0000
  S   S459      1.0  0.50104  0.46060  0.27818  1.0000
  S   S460      1.0  0.53852  0.47702  0.30346  1.0000
  C   C1723     1.0  0.52203  0.39777  0.38423  1.0000
  S   S461      1.0  0.59090  0.56091  0.36250  1.0000
  Fe  Fe231     1.0  0.57201  0.56753  0.33792  1.0000
  S   S462      1.0  0.56629  0.54019  0.32869  1.0000
  S   S463      1.0  0.69696  0.52743  0.46486  1.0000
  C   C1724     1.0  0.52365  0.32706  0.43024  1.0000
  C   C1725     1.0  0.57212  0.35200  0.43256  1.0000
  H   H2084     1.0  0.65048  0.61397  0.44460  1.0000
  C   C1726     1.0  0.64006  0.52745  0.35246  1.0000
  H   H2085     1.0  0.70882  0.34523  0.31638  1.0000
  H   H2086     1.0  0.53302  0.56744  0.30279  1.0000
  H   H2087     1.0  0.54173  0.51907  0.30910  1.0000
  S   S464      1.0  0.66369  0.56758  0.42779  1.0000
  S   S465      1.0  0.58002  0.36350  0.32181  1.0000
  H   H2088     1.0  0.71347  0.34975  0.09016  1.0000
  C   C1727     1.0  0.59819  0.40504  0.41875  1.0000
  Fe  Fe232     1.0  0.71956  0.50496  0.41425  1.0000
  C   C1728     1.0  0.52459  0.62056  0.28264  1.0000
  S   S466      1.0  0.72441  0.53634  0.41656  1.0000
  H   H2089     1.0  0.54706  0.53906  0.37275  1.0000
  C   C1729     1.0  0.64513  0.57996  0.36448  1.0000
  C   C1730     1.0  0.62991  0.58141  0.38277  1.0000
  C   C1731     1.0  0.63573  0.57706  0.40222  1.0000
  C   C1732     1.0  0.65675  0.57049  0.40361  1.0000
  C   C1733     1.0  0.67201  0.56790  0.38547  1.0000
  C   C1734     1.0  0.66621  0.57292  0.36585  1.0000
  H   H2090     1.0  0.61367  0.58652  0.38182  1.0000
  H   H2091     1.0  0.62394  0.57890  0.41621  1.0000
  H   H2092     1.0  0.68833  0.56284  0.38643  1.0000
  C   C1735     1.0  0.71168  0.52643  0.33716  1.0000
  C   C1736     1.0  0.67995  0.34056  0.33775  1.0000
  H   H2093     1.0  0.64146  0.37292  0.39705  1.0000
  C   C1737     1.0  0.51483  0.39193  0.30827  1.0000
  C   C1738     1.0  0.51990  0.37052  0.31723  1.0000
  C   C1739     1.0  0.53979  0.36171  0.32189  1.0000
  C   C1740     1.0  0.55477  0.37420  0.31704  1.0000
  C   C1741     1.0  0.54974  0.39547  0.30788  1.0000
  C   C1742     1.0  0.52975  0.40439  0.30376  1.0000
  H   H2094     1.0  0.50830  0.36089  0.32094  1.0000
  C   C1743     1.0  0.49289  0.33769  0.45614  1.0000
  H   H2095     1.0  0.56111  0.40524  0.30456  1.0000
  H   H2096     1.0  0.52591  0.42095  0.29707  1.0000
  C   C1744     1.0  0.69677  0.44110  0.38094  1.0000
  C   C1745     1.0  0.69752  0.44441  0.40047  1.0000
  H   H2097     1.0  0.72575  0.41173  0.34939  1.0000
  C   C1746     1.0  0.51953  0.62911  0.38602  1.0000
  C   C1747     1.0  0.58675  0.60257  0.43181  1.0000
  C   C1748     1.0  0.58510  0.42661  0.33714  1.0000
  C   C1749     1.0  0.56512  0.42313  0.33898  1.0000
  C   C1750     1.0  0.55058  0.43851  0.32873  1.0000
  C   C1751     1.0  0.55603  0.45738  0.31669  1.0000
  C   C1752     1.0  0.57605  0.46072  0.31487  1.0000
  C   C1753     1.0  0.59056  0.44524  0.32486  1.0000
  H   H2098     1.0  0.56109  0.40832  0.34780  1.0000
  H   H2099     1.0  0.53537  0.43551  0.32991  1.0000
  H   H2100     1.0  0.58045  0.47520  0.30550  1.0000
  H   H2101     1.0  0.60615  0.44749  0.32288  1.0000
  C   C1754     1.0  0.63009  0.50123  0.30584  1.0000
  C   C1755     1.0  0.62658  0.52317  0.30009  1.0000
  C   C1756     1.0  0.60698  0.53526  0.30724  1.0000
  C   C1757     1.0  0.59073  0.52535  0.31951  1.0000
  C   C1758     1.0  0.59424  0.50345  0.32508  1.0000
  C   C1759     1.0  0.61401  0.49151  0.31857  1.0000
  H   H2102     1.0  0.63903  0.53084  0.29033  1.0000
  H   H2103     1.0  0.60439  0.55222  0.30293  1.0000
  H   H2104     1.0  0.58183  0.49571  0.33476  1.0000
  H   H2105     1.0  0.61690  0.47476  0.32331  1.0000
  S   S467      1.0  0.68536  0.51097  0.42786  1.0000
  H   H2106     1.0  0.64137  0.48581  0.36719  1.0000
  C   C1760     1.0  0.63413  0.40956  0.40903  1.0000
  H   H2107     1.0  0.61094  0.50640  0.46978  1.0000
  H   H2108     1.0  0.62513  0.52406  0.36285  1.0000
  H   H2109     1.0  0.64155  0.54320  0.35359  1.0000
  H   H2110     1.0  0.54325  0.52104  0.39786  1.0000
  H   H2111     1.0  0.58231  0.60015  0.40221  1.0000
  C   C1761     1.0  0.68087  0.51729  0.32209  1.0000
  C   C1762     1.0  0.66858  0.35413  0.25441  1.0000
  C   C1763     1.0  0.68868  0.35818  0.24622  1.0000
  C   C1764     1.0  0.69749  0.36811  0.25688  1.0000
  C   C1765     1.0  0.68598  0.37480  0.27536  1.0000
  C   C1766     1.0  0.66560  0.37142  0.28319  1.0000
  C   C1767     1.0  0.65700  0.36094  0.27285  1.0000
  H   H2112     1.0  0.69757  0.35350  0.23176  1.0000
  H   H2113     1.0  0.71323  0.37079  0.25068  1.0000
  H   H2114     1.0  0.65666  0.37650  0.29746  1.0000
  H   H2115     1.0  0.64141  0.35794  0.27930  1.0000
  C   C1768     1.0  0.49691  0.51333  0.37312  1.0000
  C   C1769     1.0  0.55785  0.57648  0.44959  1.0000
  C   C1770     1.0  0.50455  0.61348  0.46269  1.0000
  C   C1771     1.0  0.72176  0.33648  0.12034  1.0000
  S   S468      1.0  0.63779  0.58723  0.33997  1.0000
  H   H2116     1.0  0.65996  0.47812  0.44803  1.0000
  C   C1772     1.0  0.67684  0.43534  0.48373  1.0000
  H   H2117     1.0  0.67683  0.40338  0.48341  1.0000
  H   H2118     1.0  0.55174  0.63537  0.44068  1.0000
  C   C1773     1.0  0.50068  0.65383  0.28512  1.0000
  C   C1774     1.0  0.57999  0.34125  0.47326  1.0000
  C   C1775     1.0  0.51577  0.51731  0.37541  1.0000
  C   C1776     1.0  0.53465  0.50421  0.36723  1.0000
  H   H2119     1.0  0.61427  0.56310  0.46070  1.0000
  C   C1777     1.0  0.53441  0.48791  0.35789  1.0000
  C   C1778     1.0  0.61461  0.54686  0.45935  1.0000
  C   C1779     1.0  0.51554  0.48416  0.35639  1.0000
  Fe  Fe233     1.0  0.60336  0.58937  0.34378  1.0000
  C   C1780     1.0  0.67052  0.33125  0.35784  1.0000
  H   H2120     1.0  0.63681  0.32798  0.48618  1.0000
  H   H2121     1.0  0.72304  0.47862  0.34953  1.0000
  H   H2122     1.0  0.62297  0.38815  0.44829  1.0000
  H   H2123     1.0  0.53356  0.38358  0.38242  1.0000
  C   C1781     1.0  0.53355  0.64135  0.41690  1.0000
  Fe  Fe234     1.0  0.56072  0.61406  0.33658  1.0000
  Fe  Fe235     1.0  0.58053  0.33725  0.34995  1.0000
  H   H2124     1.0  0.54985  0.50649  0.36742  1.0000
  H   H2125     1.0  0.72866  0.53042  0.30519  1.0000
  H   H2126     1.0  0.54898  0.47833  0.35142  1.0000
  C   C1782     1.0  0.50060  0.39949  0.38431  1.0000
  H   H2127     1.0  0.51547  0.47160  0.34898  1.0000
  Fe  Fe236     1.0  0.56515  0.58366  0.37768  1.0000
  H   H2128     1.0  0.70118  0.52254  0.29173  1.0000
  S   S469      1.0  0.65830  0.40594  0.44835  1.0000
  H   H2129     1.0  0.64287  0.37211  0.43293  1.0000
  H   H2130     1.0  0.67779  0.62001  0.41467  1.0000
  C   C1783     1.0  0.65785  0.50984  0.38070  1.0000
  C   C1784     1.0  0.60109  0.33932  0.27158  1.0000
  H   H2131     1.0  0.54668  0.56635  0.45652  1.0000
  C   C1785     1.0  0.67294  0.41968  0.47577  1.0000
  H   H2132     1.0  0.72377  0.52966  0.34313  1.0000
  Fe  Fe237     1.0  0.50748  0.46952  0.30544  1.0000
  N   N121      1.0  0.51879  0.54495  0.29654  1.0000
  C   C1786     1.0  0.51962  0.53569  0.27849  1.0000
  C   C1787     1.0  0.53442  0.55865  0.29034  1.0000
  C   C1788     1.0  0.52529  0.52750  0.31368  1.0000
  C   C1789     1.0  0.70161  0.33777  0.33190  1.0000
  H   H2133     1.0  0.67046  0.33586  0.40669  1.0000
  H   H2134     1.0  0.52163  0.44713  0.38880  1.0000
  S   S470      1.0  0.59083  0.60734  0.46946  1.0000
  C   C1790     1.0  0.59018  0.33749  0.43682  1.0000
  C   C1791     1.0  0.51576  0.43391  0.38782  1.0000
  H   H2135     1.0  0.62544  0.54485  0.44413  1.0000
  H   H2136     1.0  0.53528  0.52575  0.27381  1.0000
  H   H2137     1.0  0.49955  0.58216  0.27432  1.0000
  C   C1792     1.0  0.56176  0.35553  0.46907  1.0000
  H   H2138     1.0  0.55075  0.54941  0.28771  1.0000
  H   H2139     1.0  0.64049  0.54993  0.48231  1.0000
  Fe  Fe238     1.0  0.72072  0.34548  0.44596  1.0000
  C   C1793     1.0  0.64798  0.65355  0.41966  1.0000
  C   C1794     1.0  0.51856  0.65583  0.40601  1.0000
  H   H2140     1.0  0.50634  0.65543  0.15808  1.0000
  H   H2141     1.0  0.49394  0.39502  0.34882  1.0000
  N   N122      1.0  0.51527  0.53479  0.38537  1.0000
  H   H2142     1.0  0.63854  0.52870  0.33610  1.0000
  C   C1795     1.0  0.49889  0.42204  0.44883  1.0000
  N   N123      1.0  0.60659  0.42106  0.26552  1.0000
  C   C1796     1.0  0.60861  0.40605  0.28560  1.0000
  C   C1797     1.0  0.58436  0.43213  0.26709  1.0000
  C   C1798     1.0  0.61168  0.40901  0.24850  1.0000
  C   C1799     1.0  0.62113  0.43552  0.26147  1.0000
  C   C1800     1.0  0.61434  0.45614  0.26575  1.0000
  C   C1801     1.0  0.64298  0.42863  0.25466  1.0000
  C   C1802     1.0  0.62854  0.46904  0.26302  1.0000
  C   C1803     1.0  0.65700  0.44178  0.25170  1.0000
  C   C1804     1.0  0.64979  0.46193  0.25593  1.0000
  H   H2143     1.0  0.60434  0.41428  0.29896  1.0000
  H   H2144     1.0  0.59835  0.39447  0.28927  1.0000
  H   H2145     1.0  0.62485  0.39710  0.28541  1.0000
  H   H2146     1.0  0.57825  0.43883  0.28151  1.0000
  H   H2147     1.0  0.57384  0.42135  0.26824  1.0000
  H   H2148     1.0  0.58222  0.44501  0.25318  1.0000
  H   H2149     1.0  0.62657  0.39723  0.24861  1.0000
  H   H2150     1.0  0.59964  0.39975  0.25010  1.0000
  H   H2151     1.0  0.61283  0.41974  0.23280  1.0000
  H   H2152     1.0  0.59819  0.46253  0.27167  1.0000
  H   H2153     1.0  0.64962  0.41279  0.25231  1.0000
  H   H2154     1.0  0.62316  0.48447  0.26699  1.0000
  H   H2155     1.0  0.67364  0.43600  0.24695  1.0000
  H   H2156     1.0  0.66074  0.47182  0.25442  1.0000
  C   C1805     1.0  0.50770  0.63583  0.27643  1.0000
  C   C1806     1.0  0.52718  0.64097  0.30653  1.0000
  C   C1807     1.0  0.49501  0.44387  0.44274  1.0000
  C   C1808     1.0  0.61695  0.63721  0.37123  1.0000
  C   C1809     1.0  0.66598  0.62360  0.40466  1.0000
  S   S471      1.0  0.66715  0.35162  0.48434  1.0000
  C   C1810     1.0  0.62488  0.38132  0.39963  1.0000
  H   H2157     1.0  0.72255  0.38439  0.39238  1.0000
  H   H2158     1.0  0.51707  0.55736  0.35624  1.0000
  H   H2159     1.0  0.65845  0.52525  0.38365  1.0000
  H   H2160     1.0  0.50498  0.41238  0.43706  1.0000
  N   N124      1.0  0.64516  0.63414  0.41494  1.0000
  S   S472      1.0  0.60785  0.32553  0.41708  1.0000
  H   H2161     1.0  0.69251  0.52162  0.36732  1.0000
  H   H2162     1.0  0.51568  0.51528  0.31776  1.0000
  C   C1811     1.0  0.65547  0.49063  0.35616  1.0000
  H   H2163     1.0  0.66913  0.47808  0.35949  1.0000
  H   H2164     1.0  0.65357  0.49078  0.34020  1.0000
  C   C1812     1.0  0.50848  0.36289  0.37889  1.0000
  H   H2165     1.0  0.59873  0.54617  0.45805  1.0000
  H   H2166     1.0  0.67805  0.57154  0.35173  1.0000
  C   C1813     1.0  0.55803  0.36113  0.44863  1.0000
  H   H2167     1.0  0.63008  0.42060  0.41996  1.0000
  H   H2168     1.0  0.61031  0.32816  0.30898  1.0000
  H   H2169     1.0  0.50623  0.51698  0.41654  1.0000
  C   C1814     1.0  0.62912  0.63936  0.40195  1.0000
  H   H2170     1.0  0.51674  0.59792  0.43647  1.0000
  S   S473      1.0  0.70694  0.33163  0.19426  1.0000
  C   C1815     1.0  0.49452  0.41251  0.47007  1.0000
  C   C1816     1.0  0.73967  0.37649  0.33177  1.0000
  H   H2171     1.0  0.69094  0.43447  0.41471  1.0000
  H   H2172     1.0  0.50802  0.52538  0.28245  1.0000
  Fe  Fe239     1.0  0.69468  0.49712  0.45870  1.0000
  H   H2173     1.0  0.58742  0.38946  0.45136  1.0000
  Fe  Fe240     1.0  0.67926  0.37486  0.45659  1.0000
  H   H2174     1.0  0.53302  0.57020  0.27542  1.0000
  H   H2175     1.0  0.59158  0.34154  0.25960  1.0000
  C   C1817     1.0  0.72557  0.34021  0.09840  1.0000
  C   C1818     1.0  0.55597  0.42697  0.42316  1.0000
  H   H2176     1.0  0.65189  0.45062  0.43467  1.0000
  H   H2177     1.0  0.63701  0.50909  0.45667  1.0000
  H   H2178     1.0  0.53018  0.60676  0.27580  1.0000
  H   H2179     1.0  0.53669  0.62715  0.38041  1.0000
  C   C1819     1.0  0.71618  0.47279  0.38335  1.0000
  H   H2180     1.0  0.50165  0.54492  0.41489  1.0000
  H   H2181     1.0  0.53507  0.54875  0.39610  1.0000
  C   C1820     1.0  0.51420  0.33650  0.44762  1.0000
  C   C1821     1.0  0.71576  0.46921  0.36380  1.0000
  H   H2182     1.0  0.50176  0.35003  0.37717  1.0000
  H   H2183     1.0  0.51340  0.62585  0.37357  1.0000
  Fe  Fe241     1.0  0.73061  0.52016  0.44899  1.0000
  H   H2184     1.0  0.52329  0.34306  0.45446  1.0000
  Fe  Fe242     1.0  0.69383  0.32787  0.16809  1.0000
  H   H2185     1.0  0.63334  0.41904  0.39303  1.0000
  H   H2186     1.0  0.65363  0.33433  0.36179  1.0000
  H   H2187     1.0  0.60099  0.42384  0.38686  1.0000
  C   C1822     1.0  0.50278  0.60488  0.44631  1.0000
  C   C1823     1.0  0.62549  0.50989  0.47172  1.0000
  H   H2188     1.0  0.56909  0.35643  0.41686  1.0000
  H   H2189     1.0  0.54010  0.32626  0.42376  1.0000
  H   H2190     1.0  0.71604  0.44886  0.47673  1.0000
  H   H2191     1.0  0.51980  0.61311  0.46528  1.0000
  H   H2192     1.0  0.62232  0.39117  0.38420  1.0000
  H   H2193     1.0  0.65090  0.40189  0.40846  1.0000
  H   H2194     1.0  0.63237  0.49707  0.48372  1.0000
  H   H2195     1.0  0.54586  0.41307  0.38562  1.0000
  S   S474      1.0  0.72872  0.48831  0.44498  1.0000
  C   C1824     1.0  0.64172  0.53403  0.47943  1.0000
  H   H2196     1.0  0.54702  0.61103  0.30265  1.0000
  H   H2197     1.0  0.52455  0.53335  0.32793  1.0000
  H   H2198     1.0  0.50639  0.56857  0.37937  1.0000
  H   H2199     1.0  0.53960  0.62551  0.41435  1.0000
  C   C1825     1.0  0.69908  0.52223  0.30832  1.0000
  C   C1826     1.0  0.63265  0.63243  0.38280  1.0000
  H   H2200     1.0  0.59308  0.35113  0.28156  1.0000
  Fe  Fe243     1.0  0.69055  0.54077  0.43254  1.0000
  C   C1827     1.0  0.70585  0.45363  0.36257  1.0000
  C   C1828     1.0  0.63822  0.61994  0.43497  1.0000
  H   H2201     1.0  0.73577  0.36966  0.30352  1.0000
  C   C1829     1.0  0.69349  0.52160  0.35104  1.0000
  C   C1830     1.0  0.53611  0.53581  0.38808  1.0000
  H   H2202     1.0  0.49760  0.39548  0.47403  1.0000
  C   C1831     1.0  0.52937  0.41475  0.38608  1.0000
  H   H2203     1.0  0.64726  0.62292  0.37652  1.0000
  H   H2204     1.0  0.67206  0.63346  0.38941  1.0000
  H   H2205     1.0  0.67041  0.35040  0.32677  1.0000
  H   H2206     1.0  0.55163  0.40840  0.45457  1.0000
  C   C1832     1.0  0.67206  0.45645  0.47385  1.0000
  H   H2207     1.0  0.70720  0.46293  0.41688  1.0000
  S   S475      1.0  0.69063  0.35198  0.43506  1.0000
  H   H2208     1.0  0.66546  0.60819  0.40185  1.0000
  H   H2209     1.0  0.65375  0.53268  0.46482  1.0000
  H   H2210     1.0  0.56482  0.44262  0.39103  1.0000
  H   H2211     1.0  0.56303  0.57821  0.47923  1.0000
  H   H2212     1.0  0.70555  0.45115  0.34740  1.0000
  H   H2213     1.0  0.61464  0.36959  0.40403  1.0000
  Fe  Fe244     1.0  0.68151  0.32809  0.46373  1.0000
  N   N125      1.0  0.51005  0.65051  0.39022  1.0000
  C   C1833     1.0  0.56673  0.58359  0.46248  1.0000
  H   H2214     1.0  0.61725  0.36649  0.44066  1.0000
  C   C1834     1.0  0.65875  0.44636  0.44843  1.0000
  C   C1835     1.0  0.54074  0.64681  0.43214  1.0000
  S   S476      1.0  0.71037  0.37103  0.46464  1.0000
  S   S477      1.0  0.57882  0.61198  0.36093  1.0000
  C   C1836     1.0  0.56335  0.58256  0.42778  1.0000
  H   H2215     1.0  0.54350  0.34527  0.32908  1.0000
  H   H2216     1.0  0.73175  0.35953  0.38438  1.0000
  C   C1837     1.0  0.59076  0.42030  0.40196  1.0000
  C   C1838     1.0  0.58342  0.40106  0.43783  1.0000
  C   C1839     1.0  0.56999  0.43112  0.40420  1.0000
  C   C1840     1.0  0.56264  0.41193  0.43990  1.0000
  C   C1841     1.0  0.71449  0.52672  0.31586  1.0000
  N   N126      1.0  0.62034  0.39399  0.41594  1.0000
  C   C1842     1.0  0.70682  0.46047  0.40171  1.0000
  S   S478      1.0  0.53898  0.64392  0.32574  1.0000
  S   S479      1.0  0.72883  0.49244  0.38432  1.0000
  H   H2217     1.0  0.59789  0.61263  0.42485  1.0000
  S   S480      1.0  0.54490  0.58768  0.35490  1.0000
  H   H2218     1.0  0.49788  0.45131  0.42629  1.0000
  C   C1843     1.0  0.53413  0.62298  0.29785  1.0000
  C   C1844     1.0  0.72792  0.37682  0.37845  1.0000
  H   H2219     1.0  0.67124  0.49779  0.38597  1.0000
  H   H2220     1.0  0.64765  0.33623  0.39735  1.0000
  S   S481      1.0  0.58664  0.59414  0.31741  1.0000
  S   S482      1.0  0.55160  0.57432  0.41178  1.0000
  C   C1845     1.0  0.62595  0.37955  0.43535  1.0000
  C   C1846     1.0  0.66334  0.46192  0.45598  1.0000
  N   N127      1.0  0.65819  0.51120  0.35821  1.0000
  H   H2221     1.0  0.52070  0.36600  0.36452  1.0000
  H   H2222     1.0  0.54404  0.37231  0.44528  1.0000
  H   H2223     1.0  0.64335  0.50531  0.39109  1.0000
  C   C1847     1.0  0.58084  0.59702  0.45359  1.0000
  C   C1848     1.0  0.49747  0.55730  0.30259  1.0000
  H   H2224     1.0  0.72440  0.38669  0.33366  1.0000
  H   H2225     1.0  0.51631  0.54793  0.26446  1.0000
  S   S483      1.0  0.67688  0.47585  0.48409  1.0000
  H   H2226     1.0  0.61642  0.34356  0.26361  1.0000
  C   C1849     1.0  0.50144  0.53260  0.40653  1.0000
  C   C1850     1.0  0.59736  0.64893  0.37830  1.0000
  C   C1851     1.0  0.49681  0.49680  0.36405  1.0000
  H   H2227     1.0  0.51629  0.61668  0.40023  1.0000
  H   H2228     1.0  0.50341  0.60258  0.34324  1.0000
  C   C1852     1.0  0.71395  0.32579  0.34617  1.0000
  C   C1853     1.0  0.59426  0.33239  0.45710  1.0000
  H   H2229     1.0  0.66076  0.65019  0.42845  1.0000
  H   H2230     1.0  0.58525  0.65250  0.36929  1.0000
  C   C1854     1.0  0.66019  0.32590  0.40529  1.0000
  C   C1855     1.0  0.51051  0.65645  0.30009  1.0000
  C   C1856     1.0  0.74008  0.40743  0.35603  1.0000
  C   C1857     1.0  0.72999  0.43683  0.47622  1.0000
  H   H2231     1.0  0.71970  0.42341  0.45567  1.0000
  S   S484      1.0  0.49282  0.44524  0.33003  1.0000
  C   C1858     1.0  0.49465  0.43610  0.38807  1.0000
  S   S485      1.0  0.49476  0.63096  0.25916  1.0000
  C   C1859     1.0  0.60886  0.65098  0.40885  1.0000
  C   C1860     1.0  0.59329  0.65572  0.39712  1.0000
  C   C1861     1.0  0.73199  0.42226  0.46387  1.0000
  H   H2232     1.0  0.57428  0.32722  0.30478  1.0000
  H   H2233     1.0  0.60469  0.65588  0.42374  1.0000
  C   C1862     1.0  0.73493  0.62594  0.50095  1.0000
  S   S486      1.0  0.66284  0.63361  0.75650  1.0000
  C   C1863     1.0  0.72861  0.64356  0.51017  1.0000
  C   C1864     1.0  0.73814  0.38754  0.60840  1.0000
  H   H2234     1.0  0.62688  0.34273  0.58557  1.0000
  H   H2235     1.0  0.61313  0.41362  0.50659  1.0000
  C   C1865     1.0  0.68607  0.58731  0.67724  1.0000
  Fe  Fe245     1.0  0.64665  0.62032  0.78877  1.0000
  C   C1866     1.0  0.52156  0.56628  0.57514  1.0000
  S   S487      1.0  0.65288  0.58539  0.79885  1.0000
  S   S488      1.0  0.57052  0.61850  0.52661  1.0000
  S   S489      1.0  0.69997  0.34197  0.52508  1.0000
  H   H2236     1.0  0.51999  0.39317  0.62532  1.0000
  S   S490      1.0  0.51901  0.63378  0.53926  1.0000
  Fe  Fe246     1.0  0.67163  0.65451  0.77245  1.0000
  H   H2237     1.0  0.71901  0.47411  0.62803  1.0000
  H   H2238     1.0  0.73506  0.33413  0.93326  1.0000
  Fe  Fe247     1.0  0.54993  0.34281  0.56552  1.0000
  C   C1867     1.0  0.72029  0.61534  0.49958  1.0000
  C   C1868     1.0  0.49927  0.39574  0.59554  1.0000
  C   C1869     1.0  0.52306  0.54449  0.58152  1.0000
  Fe  Fe248     1.0  0.69566  0.53257  0.71065  1.0000
  S   S491      1.0  0.66187  0.54714  0.71978  1.0000
  H   H2239     1.0  0.73182  0.48098  0.57143  1.0000
  S   S492      1.0  0.71257  0.49933  0.71989  1.0000
  Fe  Fe249     1.0  0.65992  0.42518  0.63167  1.0000
  S   S493      1.0  0.66120  0.45099  0.60297  1.0000
  S   S494      1.0  0.66869  0.42770  0.66119  1.0000
  Fe  Fe250     1.0  0.64142  0.39868  0.61227  1.0000
  S   S495      1.0  0.64072  0.42319  0.58285  1.0000
  H   H2240     1.0  0.70462  0.40877  0.63243  1.0000
  Fe  Fe251     1.0  0.67253  0.42492  0.58508  1.0000
  S   S496      1.0  0.69712  0.42447  0.55551  1.0000
  Fe  Fe252     1.0  0.62922  0.44655  0.60378  1.0000
  S   S497      1.0  0.60313  0.47459  0.59948  1.0000
  S   S498      1.0  0.67421  0.39923  0.61373  1.0000
  S   S499      1.0  0.62708  0.42198  0.63347  1.0000
  C   C1870     1.0  0.58171  0.46585  0.59698  1.0000
  C   C1871     1.0  0.58342  0.44449  0.59801  1.0000
  C   C1872     1.0  0.56701  0.43735  0.59485  1.0000
  C   C1873     1.0  0.54853  0.45134  0.59124  1.0000
  C   C1874     1.0  0.54654  0.47278  0.59047  1.0000
  C   C1875     1.0  0.56325  0.48007  0.59319  1.0000
  H   H2241     1.0  0.59744  0.43337  0.60112  1.0000
  H   H2242     1.0  0.56863  0.42091  0.59522  1.0000
  H   H2243     1.0  0.53225  0.48368  0.58764  1.0000
  H   H2244     1.0  0.56188  0.49664  0.59238  1.0000
  C   C1876     1.0  0.71271  0.46950  0.66172  1.0000
  C   C1877     1.0  0.70074  0.46045  0.68047  1.0000
  C   C1878     1.0  0.68687  0.44812  0.68006  1.0000
  C   C1879     1.0  0.68451  0.44515  0.66093  1.0000
  C   C1880     1.0  0.69571  0.45509  0.64214  1.0000
  C   C1881     1.0  0.70998  0.46694  0.64257  1.0000
  H   H2245     1.0  0.70272  0.46229  0.69532  1.0000
  H   H2246     1.0  0.67823  0.44055  0.69468  1.0000
  H   H2247     1.0  0.69390  0.45309  0.62731  1.0000
  C   C1882     1.0  0.66617  0.63117  0.64265  1.0000
  H   H2248     1.0  0.67303  0.57880  0.68440  1.0000
  H   H2249     1.0  0.59247  0.39076  0.61989  1.0000
  C   C1883     1.0  0.68918  0.36749  0.55332  1.0000
  C   C1884     1.0  0.68815  0.38588  0.56000  1.0000
  C   C1885     1.0  0.69758  0.40194  0.54650  1.0000
  C   C1886     1.0  0.70744  0.39982  0.52594  1.0000
  H   H2250     1.0  0.68205  0.35510  0.56408  1.0000
  H   H2251     1.0  0.68018  0.38738  0.57574  1.0000
  H   H2252     1.0  0.71460  0.41222  0.51536  1.0000
  C   C1887     1.0  0.65484  0.57449  0.77721  1.0000
  C   C1888     1.0  0.64262  0.58474  0.76219  1.0000
  C   C1889     1.0  0.64426  0.57591  0.74491  1.0000
  C   C1890     1.0  0.65879  0.55735  0.74215  1.0000
  C   C1891     1.0  0.67131  0.54733  0.75693  1.0000
  C   C1892     1.0  0.66900  0.55567  0.77469  1.0000
  H   H2253     1.0  0.63160  0.59926  0.76416  1.0000
  H   H2254     1.0  0.63448  0.58362  0.73357  1.0000
  H   H2255     1.0  0.68251  0.53293  0.75491  1.0000
  H   H2256     1.0  0.67835  0.54770  0.78635  1.0000
  C   C1893     1.0  0.60611  0.44005  0.54557  1.0000
  H   H2257     1.0  0.52064  0.36718  0.62316  1.0000
  H   H2258     1.0  0.51718  0.61536  0.58966  1.0000
  C   C1894     1.0  0.65050  0.63809  0.63085  1.0000
  H   H2259     1.0  0.65618  0.41860  0.52445  1.0000
  S   S500      1.0  0.70890  0.53498  0.67635  1.0000
  C   C1895     1.0  0.72185  0.61447  0.81326  1.0000
  C   C1896     1.0  0.71129  0.62664  0.79739  1.0000
  H   H2260     1.0  0.66131  0.32887  0.53718  1.0000
  H   H2261     1.0  0.72545  0.60158  0.49251  1.0000
  C   C1897     1.0  0.58245  0.51843  0.52883  1.0000
  H   H2262     1.0  0.71683  0.60037  0.82290  1.0000
  H   H2263     1.0  0.69864  0.62142  0.79454  1.0000
  H   H2264     1.0  0.58649  0.41037  0.54004  1.0000
  S   S501      1.0  0.71938  0.54732  0.71615  1.0000
  S   S502      1.0  0.73239  0.48261  0.66164  1.0000
  H   H2265     1.0  0.60643  0.64524  0.57230  1.0000
  C   C1898     1.0  0.64597  0.44928  0.53102  1.0000
  C   C1899     1.0  0.62939  0.46418  0.53887  1.0000
  C   C1900     1.0  0.71988  0.45248  0.58163  1.0000
  H   H2266     1.0  0.66155  0.45267  0.52583  1.0000
  H   H2267     1.0  0.63246  0.37068  0.54980  1.0000
  H   H2268     1.0  0.67288  0.32743  0.60035  1.0000
  H   H2269     1.0  0.55289  0.61717  0.57118  1.0000
  C   C1901     1.0  0.55670  0.61797  0.58606  1.0000
  H   H2270     1.0  0.59502  0.40090  0.56481  1.0000
  N   N128      1.0  0.53824  0.62835  0.59976  1.0000
  H   H2271     1.0  0.71007  0.45426  0.51182  1.0000
  H   H2272     1.0  0.71029  0.42339  0.59459  1.0000
  H   H2273     1.0  0.50855  0.40821  0.59180  1.0000
  C   C1902     1.0  0.58494  0.55477  0.52215  1.0000
  Fe  Fe253     1.0  0.69907  0.34599  0.49119  1.0000
  H   H2274     1.0  0.59722  0.38326  0.54812  1.0000
  H   H2275     1.0  0.50350  0.38516  0.50704  1.0000
  C   C1903     1.0  0.59949  0.55240  0.50355  1.0000
  H   H2276     1.0  0.56248  0.63532  0.66793  1.0000
  C   C1904     1.0  0.54367  0.62077  0.65667  1.0000
  C   C1905     1.0  0.67060  0.61431  0.69744  1.0000
  H   H2277     1.0  0.68063  0.63654  0.63561  1.0000
  S   S503      1.0  0.52855  0.44130  0.58748  1.0000
  C   C1906     1.0  0.72110  0.61021  0.74181  1.0000
  H   H2278     1.0  0.66329  0.63117  0.69702  1.0000
  C   C1907     1.0  0.57643  0.53784  0.53474  1.0000
  H   H2279     1.0  0.71060  0.60065  0.74015  1.0000
  H   H2280     1.0  0.71862  0.47490  0.49059  1.0000
  C   C1908     1.0  0.73963  0.58147  0.76429  1.0000
  S   S504      1.0  0.61594  0.64263  0.78743  1.0000
  H   H2281     1.0  0.50422  0.55128  0.49035  1.0000
  C   C1909     1.0  0.55878  0.64304  0.61696  1.0000
  Fe  Fe254     1.0  0.72782  0.50285  0.68553  1.0000
  C   C1910     1.0  0.59876  0.39939  0.54806  1.0000
  C   C1911     1.0  0.72237  0.46387  0.50514  1.0000
  H   H2282     1.0  0.49648  0.39252  0.53178  1.0000
  H   H2283     1.0  0.57578  0.50533  0.53884  1.0000
  H   H2284     1.0  0.59430  0.34003  0.57671  1.0000
  C   C1912     1.0  0.63517  0.38668  0.54833  1.0000
  C   C1913     1.0  0.72439  0.55146  0.78590  1.0000
  C   C1914     1.0  0.73672  0.42446  0.60715  1.0000
  C   C1915     1.0  0.69260  0.64016  0.51652  1.0000
  H   H2285     1.0  0.50520  0.37653  0.64604  1.0000
  N   N129      1.0  0.62066  0.48373  0.66247  1.0000
  C   C1916     1.0  0.63028  0.47800  0.64172  1.0000
  C   C1917     1.0  0.61701  0.46412  0.67780  1.0000
  C   C1918     1.0  0.60023  0.49804  0.66054  1.0000
  C   C1919     1.0  0.63372  0.49393  0.66983  1.0000
  C   C1920     1.0  0.62663  0.50036  0.68943  1.0000
  C   C1921     1.0  0.65374  0.49744  0.65823  1.0000
  C   C1922     1.0  0.63890  0.50950  0.69702  1.0000
  C   C1923     1.0  0.66585  0.50658  0.66599  1.0000
  C   C1924     1.0  0.65849  0.51247  0.68537  1.0000
  H   H2286     1.0  0.64538  0.46666  0.64223  1.0000
  H   H2287     1.0  0.62016  0.47026  0.63666  1.0000
  H   H2288     1.0  0.63284  0.49205  0.62914  1.0000
  H   H2289     1.0  0.63211  0.45354  0.68059  1.0000
  H   H2290     1.0  0.60851  0.45514  0.67216  1.0000
  H   H2291     1.0  0.60767  0.46716  0.69327  1.0000
  H   H2292     1.0  0.60245  0.51327  0.64976  1.0000
  H   H2293     1.0  0.59043  0.49115  0.65409  1.0000
  H   H2294     1.0  0.59090  0.50151  0.67588  1.0000
  H   H2295     1.0  0.61166  0.49813  0.69918  1.0000
  H   H2296     1.0  0.66063  0.49293  0.64328  1.0000
  H   H2297     1.0  0.63337  0.51420  0.71211  1.0000
  H   H2298     1.0  0.68126  0.50875  0.65715  1.0000
  H   H2299     1.0  0.66806  0.51923  0.69148  1.0000
  C   C1925     1.0  0.59298  0.37976  0.61039  1.0000
  N   N130      1.0  0.67910  0.61025  0.67587  1.0000
  C   C1926     1.0  0.69784  0.61986  0.66710  1.0000
  H   H2300     1.0  0.56524  0.53977  0.54921  1.0000
  C   C1927     1.0  0.64276  0.42971  0.53041  1.0000
  N   N131      1.0  0.62000  0.40329  0.53755  1.0000
  H   H2301     1.0  0.71907  0.38733  0.64823  1.0000
  Fe  Fe255     1.0  0.63304  0.65756  0.75630  1.0000
  H   H2302     1.0  0.63205  0.47913  0.53983  1.0000
  H   H2303     1.0  0.70627  0.61586  0.65165  1.0000
  C   C1928     1.0  0.62279  0.42434  0.53794  1.0000
  C   C1929     1.0  0.61228  0.35255  0.59126  1.0000
  S   S505      1.0  0.53928  0.59835  0.51008  1.0000
  C   C1930     1.0  0.55756  0.63380  0.65435  1.0000
  C   C1931     1.0  0.61194  0.36687  0.60342  1.0000
  C   C1932     1.0  0.57448  0.37797  0.60565  1.0000
  C   C1933     1.0  0.50508  0.53591  0.58653  1.0000
  H   H2304     1.0  0.70955  0.61393  0.67738  1.0000
  H   H2305     1.0  0.65865  0.60495  0.70653  1.0000
  H   H2306     1.0  0.72211  0.62314  0.72770  1.0000
  H   H2307     1.0  0.64004  0.40229  0.50698  1.0000
  H   H2308     1.0  0.53812  0.53421  0.58240  1.0000
  H   H2309     1.0  0.71563  0.38006  0.50314  1.0000
  C   C1934     1.0  0.69895  0.36534  0.53279  1.0000
  H   H2310     1.0  0.69364  0.63726  0.66527  1.0000
  H   H2311     1.0  0.63958  0.60195  0.68559  1.0000
  C   C1935     1.0  0.50203  0.57950  0.57432  1.0000
  H   H2312     1.0  0.68394  0.43106  0.49731  1.0000
  C   C1936     1.0  0.53721  0.61882  0.63918  1.0000
  H   H2313     1.0  0.65323  0.64822  0.61549  1.0000
  H   H2314     1.0  0.69812  0.58057  0.68701  1.0000
  S   S506      1.0  0.63521  0.36758  0.61047  1.0000
  C   C1937     1.0  0.71951  0.40324  0.63815  1.0000
  H   H2315     1.0  0.56256  0.60153  0.59387  1.0000
  C   C1938     1.0  0.59706  0.51583  0.51025  1.0000
  H   H2316     1.0  0.52441  0.64895  0.57421  1.0000
  C   C1939     1.0  0.63114  0.63243  0.63887  1.0000
  H   H2317     1.0  0.68783  0.61395  0.50649  1.0000
  C   C1940     1.0  0.56514  0.64487  0.63450  1.0000
  H   H2318     1.0  0.50074  0.59632  0.56948  1.0000
  H   H2319     1.0  0.73807  0.42658  0.52911  1.0000
  C   C1941     1.0  0.72144  0.43244  0.59447  1.0000
  H   H2320     1.0  0.63411  0.38889  0.56446  1.0000
  H   H2321     1.0  0.68290  0.61004  0.70694  1.0000
  H   H2322     1.0  0.71547  0.53963  0.78744  1.0000
  H   H2323     1.0  0.56984  0.62633  0.58175  1.0000
  S   S507      1.0  0.65764  0.63941  0.80488  1.0000
  Fe  Fe256     1.0  0.51814  0.62998  0.50708  1.0000
  H   H2324     1.0  0.74073  0.65089  0.51120  1.0000
  S   S508      1.0  0.57302  0.34053  0.53542  1.0000
  C   C1942     1.0  0.62381  0.40108  0.51544  1.0000
  H   H2325     1.0  0.59037  0.43750  0.55180  1.0000
  C   C1943     1.0  0.70788  0.38165  0.51898  1.0000
  C   C1944     1.0  0.59384  0.35108  0.58611  1.0000
  H   H2326     1.0  0.51052  0.56628  0.51625  1.0000
  H   H2327     1.0  0.53787  0.61212  0.67216  1.0000
  H   H2328     1.0  0.64778  0.52217  0.49256  1.0000
  Fe  Fe257     1.0  0.73789  0.51454  0.72263  1.0000
  C   C1945     1.0  0.71777  0.64480  0.78473  1.0000
  H   H2329     1.0  0.67603  0.64471  0.52231  1.0000
  C   C1946     1.0  0.62744  0.61948  0.65865  1.0000
  Fe  Fe258     1.0  0.54523  0.34568  0.52108  1.0000
  H   H2330     1.0  0.69304  0.58354  0.66142  1.0000
  H   H2331     1.0  0.73206  0.35708  0.94378  1.0000
  S   S509      1.0  0.52186  0.35112  0.55058  1.0000
  C   C1947     1.0  0.73960  0.61984  0.81577  1.0000
  S   S510      1.0  0.54409  0.57693  0.56832  1.0000
  C   C1948     1.0  0.73327  0.46533  0.58121  1.0000
  H   H2332     1.0  0.61243  0.61496  0.66482  1.0000
  H   H2333     1.0  0.71933  0.41390  0.64848  1.0000
  H   H2334     1.0  0.58027  0.56981  0.52694  1.0000
  C   C1949     1.0  0.66280  0.61822  0.66304  1.0000
  H   H2335     1.0  0.72090  0.47404  0.51638  1.0000
  H   H2336     1.0  0.61903  0.63817  0.62969  1.0000
  H   H2337     1.0  0.68234  0.64223  0.83537  1.0000
  H   H2338     1.0  0.55980  0.38773  0.61145  1.0000
  C   C1950     1.0  0.72761  0.56607  0.76706  1.0000
  H   H2339     1.0  0.73879  0.33054  0.98829  1.0000
  Fe  Fe259     1.0  0.54693  0.64868  0.52345  1.0000
  Fe  Fe260     1.0  0.54260  0.60356  0.54046  1.0000
  C   C1951     1.0  0.64305  0.61230  0.67051  1.0000
  Fe  Fe261     1.0  0.73417  0.54688  0.68259  1.0000
  H   H2340     1.0  0.65158  0.38646  0.53982  1.0000
  H   H2341     1.0  0.50974  0.38268  0.58840  1.0000
  C   C1952     1.0  0.57484  0.36379  0.59339  1.0000
  C   C1953     1.0  0.49918  0.39899  0.51459  1.0000
  H   H2342     1.0  0.62150  0.38559  0.51436  1.0000
  H   H2343     1.0  0.50629  0.51907  0.59121  1.0000
  S   S511      1.0  0.55125  0.36271  0.58735  1.0000
  C   C1954     1.0  0.60952  0.45959  0.54605  1.0000
  H   H2344     1.0  0.59678  0.47098  0.55275  1.0000
  C   C1955     1.0  0.52171  0.61591  0.60431  1.0000
  Fe  Fe262     1.0  0.56497  0.61630  0.49593  1.0000
  C   C1956     1.0  0.51016  0.38116  0.62871  1.0000
  H   H2345     1.0  0.57602  0.65502  0.63256  1.0000
  H   H2346     1.0  0.70800  0.45809  0.57213  1.0000
  H   H2347     1.0  0.50530  0.35067  0.60724  1.0000
  H   H2348     1.0  0.72045  0.56521  0.75474  1.0000
  C   C1957     1.0  0.73277  0.55188  0.80264  1.0000
  C   C1958     1.0  0.73459  0.33960  0.94771  1.0000
  H   H2349     1.0  0.70981  0.64406  0.84700  1.0000
  C   C1959     1.0  0.70721  0.65145  0.51798  1.0000
  C   C1960     1.0  0.60592  0.53289  0.49692  1.0000
  H   H2350     1.0  0.71321  0.61753  0.75565  1.0000
  H   H2351     1.0  0.72302  0.38976  0.60360  1.0000
  C   C1961     1.0  0.54449  0.63009  0.61872  1.0000
  C   C1962     1.0  0.69916  0.62238  0.50743  1.0000
  H   H2352     1.0  0.60120  0.50029  0.50679  1.0000
  N   N132      1.0  0.73797  0.40316  0.62068  1.0000
  H   H2353     1.0  0.58437  0.64563  0.54769  1.0000
  H   H2354     1.0  0.51305  0.40645  0.51034  1.0000
  H   H2355     1.0  0.52654  0.60839  0.64207  1.0000
  C   C1963     1.0  0.73535  0.65030  0.78749  1.0000
  H   H2356     1.0  0.52717  0.59916  0.61156  1.0000
  H   H2357     1.0  0.65528  0.65094  0.84512  1.0000
  Fe  Fe263     1.0  0.49781  0.46348  0.58679  1.0000
  H   H2358     1.0  0.73014  0.54059  0.81724  1.0000
  H   H2359     1.0  0.74085  0.37115  0.61763  1.0000
  H   H2360     1.0  0.49889  0.53173  0.52563  1.0000
  H   H2361     1.0  0.50729  0.62274  0.61469  1.0000
  C   C1964     1.0  0.53022  0.64962  0.58804  1.0000
  H   H2362     1.0  0.70236  0.65307  0.55876  1.0000
  H   H2363     1.0  0.72044  0.33574  0.95936  1.0000
  S   S512      1.0  0.54372  0.64791  0.49109  1.0000
  H   H2364     1.0  0.56526  0.65187  0.60194  1.0000
  H   H2365     1.0  0.60574  0.56601  0.49443  1.0000
  H   H2366     1.0  0.67319  0.64585  0.86222  1.0000
  C   C1965     1.0  0.67116  0.65243  0.84576  1.0000
  C   C1966     1.0  0.49371  0.57372  0.52018  1.0000
  H   H2367     1.0  0.74216  0.57609  0.72497  1.0000
  N   N133      1.0  0.74198  0.59741  0.74450  1.0000
  H   H2368     1.0  0.51718  0.65850  0.59824  1.0000
  H   H2369     1.0  0.58308  0.33696  0.48896  1.0000
  S   S513      1.0  0.54349  0.36639  0.48919  1.0000
  C   C1967     1.0  0.53120  0.89837  0.12966  1.0000
  S   S514      1.0  0.52022  0.94861  0.04694  1.0000
  N   N134      1.0  0.51203  0.91004  0.12175  1.0000
  H   H2370     1.0  0.64319  0.94614  0.03848  1.0000
  C   C1968     1.0  0.56430  0.96906  0.07555  1.0000
  C   C1969     1.0  0.49678  0.89591  0.12858  1.0000
  H   H2371     1.0  0.50513  0.67042  0.30672  1.0000
  H   H2372     1.0  0.69646  0.90490  0.19410  1.0000
  H   H2373     1.0  0.53707  0.99113  0.08680  1.0000
  H   H2374     1.0  0.57787  0.66439  0.40283  1.0000
  C   C1970     1.0  0.70354  0.89024  0.02398  1.0000
  H   H2375     1.0  0.51995  0.97597  0.12533  1.0000
  C   C1971     1.0  0.70090  0.87115  0.03761  1.0000
  Fe  Fe264     1.0  0.58307  0.79948  0.05199  1.0000
  S   S515      1.0  0.57443  0.83182  0.03292  1.0000
  S   S516      1.0  0.61737  0.78705  0.05046  1.0000
  Fe  Fe265     1.0  0.53788  0.79581  0.07051  1.0000
  S   S517      1.0  0.52594  0.82823  0.05328  1.0000
  H   H2376     1.0  0.67025  0.96207  0.01681  1.0000
  Fe  Fe266     1.0  0.55019  0.81888  0.02577  1.0000
  C   C1972     1.0  0.66904  0.90254  0.16851  1.0000
  Fe  Fe267     1.0  0.55159  0.83772  0.06236  1.0000
  S   S518      1.0  0.54901  0.86829  0.07208  1.0000
  S   S519      1.0  0.56074  0.78581  0.04239  1.0000
  S   S520      1.0  0.56150  0.80613  0.08199  1.0000
  H   H2377     1.0  0.65188  0.66521  0.40493  1.0000
  H   H2378     1.0  0.52978  0.92355  0.09194  1.0000
  N   N135      1.0  0.63846  0.97926  0.02434  1.0000
  S   S521      1.0  0.54116  0.82451  0.99448  1.0000
  C   C1973     1.0  0.51599  0.70635  0.09115  1.0000
  H   H2379     1.0  0.63019  0.93225  0.20967  1.0000
  H   H2380     1.0  0.53732  0.88302  0.12458  1.0000
  H   H2381     1.0  0.51230  0.98300  0.01269  1.0000
  C   C1974     1.0  0.62128  0.90168  0.99896  1.0000
  H   H2382     1.0  0.63381  0.66125  0.42964  1.0000
  C   C1975     1.0  0.68337  0.91571  0.20104  1.0000
  Fe  Fe268     1.0  0.65178  0.93244  0.08849  1.0000
  S   S522      1.0  0.65061  0.91328  0.12130  1.0000
  S   S523      1.0  0.67865  0.93281  0.06104  1.0000
  Fe  Fe269     1.0  0.60660  0.95377  0.09748  1.0000
  S   S524      1.0  0.60142  0.93675  0.13089  1.0000
  H   H2383     1.0  0.49639  0.67855  0.16925  1.0000
  Fe  Fe270     1.0  0.63230  0.94357  0.13124  1.0000
  S   S525      1.0  0.63202  0.95880  0.15800  1.0000
  Fe  Fe271     1.0  0.61985  0.90856  0.11772  1.0000
  S   S526      1.0  0.60918  0.87763  0.12666  1.0000
  S   S527      1.0  0.63577  0.96290  0.09858  1.0000
  S   S528      1.0  0.62281  0.92531  0.08415  1.0000
  C   C1976     1.0  0.67170  0.94477  0.21911  1.0000
  H   H2384     1.0  0.52239  0.90002  0.09206  1.0000
  H   H2385     1.0  0.53082  0.66506  0.36377  1.0000
  C   C1977     1.0  0.53735  0.95633  0.05784  1.0000
  C   C1978     1.0  0.55857  0.94682  0.05501  1.0000
  C   C1979     1.0  0.57197  0.95284  0.06429  1.0000
  H   H2386     1.0  0.68350  0.87488  0.20030  1.0000
  S   S529      1.0  0.70854  0.84771  0.02809  1.0000
  H   H2387     1.0  0.56456  0.93461  0.04592  1.0000
  H   H2388     1.0  0.58820  0.94519  0.06235  1.0000
  H   H2389     1.0  0.50086  0.70635  0.14303  1.0000
  H   H2390     1.0  0.50325  0.92398  0.09184  1.0000
  C   C1980     1.0  0.67384  0.95959  0.15377  1.0000
  C   C1981     1.0  0.65301  0.96773  0.16200  1.0000
  C   C1982     1.0  0.65990  0.81109  0.00228  1.0000
  C   C1983     1.0  0.65857  0.97479  0.00934  1.0000
  H   H2391     1.0  0.52481  0.71462  0.07703  1.0000
  H   H2392     1.0  0.67750  0.94884  0.14321  1.0000
  H   H2393     1.0  0.70610  0.95728  0.15450  1.0000
  C   C1984     1.0  0.63087  0.95925  0.03258  1.0000
  C   C1985     1.0  0.69007  0.96455  0.16005  1.0000
  C   C1986     1.0  0.65108  0.94493  0.21905  1.0000
  H   H2394     1.0  0.65249  0.82805  0.05435  1.0000
  C   C1987     1.0  0.56649  0.87026  0.08674  1.0000
  C   C1988     1.0  0.56993  0.89015  0.08612  1.0000
  C   C1989     1.0  0.58272  0.89259  0.09851  1.0000
  C   C1990     1.0  0.59232  0.87507  0.11160  1.0000
  C   C1991     1.0  0.58883  0.85514  0.11230  1.0000
  C   C1992     1.0  0.57611  0.85270  0.09978  1.0000
  H   H2395     1.0  0.56269  0.90373  0.07595  1.0000
  H   H2396     1.0  0.58502  0.90807  0.09796  1.0000
  H   H2397     1.0  0.59620  0.84150  0.12237  1.0000
  H   H2398     1.0  0.57349  0.83729  0.10051  1.0000
  C   C1993     1.0  0.64841  0.90829  0.01225  1.0000
  H   H2399     1.0  0.70387  0.93073  0.20953  1.0000
  C   C1994     1.0  0.50589  0.69116  0.08994  1.0000
  H   H2400     1.0  0.69826  0.77484  0.99566  1.0000
  H   H2401     1.0  0.49680  0.81522  0.11208  1.0000
  C   C1995     1.0  0.63571  0.91383  0.99755  1.0000
  H   H2402     1.0  0.65923  0.87610  0.21906  1.0000
  H   H2403     1.0  0.59976  0.85713  0.04993  1.0000
  H   H2404     1.0  0.51987  0.77381  0.04916  1.0000
  H   H2405     1.0  0.66331  0.91855  0.15974  1.0000
  Fe  Fe272     1.0  0.70761  0.85382  0.99386  1.0000
  H   H2406     1.0  0.61443  0.87601  0.06974  1.0000
  S   S530      1.0  0.51453  0.77691  0.09241  1.0000
  H   H2407     1.0  0.50081  0.75859  0.03195  1.0000
  H   H2408     1.0  0.62665  0.89928  0.20800  1.0000
  H   H2409     1.0  0.65660  0.84023  0.02695  1.0000
  H   H2410     1.0  0.63309  0.89004  0.18395  1.0000
  C   C1996     1.0  0.51868  0.68122  0.42659  1.0000
  C   C1997     1.0  0.61562  0.84698  0.04707  1.0000
  H   H2411     1.0  0.65730  0.88661  0.03905  1.0000
  H   H2412     1.0  0.66001  0.91741  0.01087  1.0000
  C   C1998     1.0  0.54317  0.97859  0.07816  1.0000
  H   H2413     1.0  0.67552  0.81381  0.99980  1.0000
  H   H2414     1.0  0.71107  0.89046  0.00778  1.0000
  H   H2415     1.0  0.62888  0.91749  0.18292  1.0000
  H   H2416     1.0  0.66549  0.84966  0.04493  1.0000
  H   H2417     1.0  0.61547  0.83265  0.05983  1.0000
  C   C1999     1.0  0.51424  0.71141  0.11044  1.0000
  C   C2000     1.0  0.49411  0.68079  0.10804  1.0000
  C   C2001     1.0  0.63573  0.90179  0.19158  1.0000
  C   C2002     1.0  0.49397  0.74588  0.99078  1.0000
  N   N136      1.0  0.63217  0.85816  0.04656  1.0000
  C   C2003     1.0  0.63020  0.79749  0.02534  1.0000
  C   C2004     1.0  0.61958  0.80385  0.00875  1.0000
  H   H2418     1.0  0.61813  0.84132  0.03225  1.0000
  C   C2005     1.0  0.66252  0.91549  0.20058  1.0000
  H   H2419     1.0  0.62635  0.84960  0.08045  1.0000
  C   C2006     1.0  0.65053  0.80076  0.02202  1.0000
  H   H2420     1.0  0.60405  0.80094  0.01107  1.0000
  H   H2421     1.0  0.52176  0.72363  0.11117  1.0000
  H   H2422     1.0  0.65881  0.79578  0.03483  1.0000
  C   C2007     1.0  0.69137  0.87095  0.05877  1.0000
  C   C2008     1.0  0.68408  0.88989  0.06607  1.0000
  C   C2009     1.0  0.68707  0.90892  0.05239  1.0000
  C   C2010     1.0  0.69693  0.90902  0.03141  1.0000
  H   H2423     1.0  0.68930  0.85621  0.06940  1.0000
  H   H2424     1.0  0.67653  0.88971  0.08233  1.0000
  H   H2425     1.0  0.69932  0.92369  0.02086  1.0000
  H   H2426     1.0  0.64181  0.86905  0.06969  1.0000
  C   C2011     1.0  0.68781  0.93024  0.21006  1.0000
  C   C2012     1.0  0.66625  0.87836  0.20196  1.0000
  H   H2427     1.0  0.50618  0.68207  0.37113  1.0000
  C   C2013     1.0  0.65252  0.84340  0.04308  1.0000
  C   C2014     1.0  0.50996  0.96455  0.13004  1.0000
  H   H2428     1.0  0.54415  0.90710  0.12375  1.0000
  C   C2015     1.0  0.68569  0.97832  0.17393  1.0000
  H   H2429     1.0  0.53280  0.94227  0.11456  1.0000
  H   H2430     1.0  0.60839  0.87490  0.01491  1.0000
  H   H2431     1.0  0.66623  0.89102  0.16072  1.0000
  C   C2016     1.0  0.63263  0.87752  0.03001  1.0000
  H   H2432     1.0  0.50228  0.87820  0.08273  1.0000
  C   C2017     1.0  0.64684  0.89051  0.02830  1.0000
  H   H2433     1.0  0.63260  0.98843  0.18182  1.0000
  S   S531      1.0  0.58070  0.97832  0.08595  1.0000
  H   H2434     1.0  0.62876  0.98791  0.05472  1.0000
  C   C2018     1.0  0.53337  0.66670  0.43692  1.0000
  C   C2019     1.0  0.61969  0.88375  0.01489  1.0000
  C   C2020     1.0  0.62856  0.86344  0.06747  1.0000
  C   C2021     1.0  0.50174  0.76508  0.08012  1.0000
  C   C2022     1.0  0.64865  0.98208  0.17532  1.0000
  C   C2023     1.0  0.51718  0.94515  0.12395  1.0000
  N   N137      1.0  0.65828  0.89991  0.19089  1.0000
  H   H2435     1.0  0.51034  0.95440  0.00080  1.0000
  H   H2436     1.0  0.65524  0.97419  0.04909  1.0000
  C   C2024     1.0  0.51706  0.91460  0.09848  1.0000
  C   C2025     1.0  0.50429  0.93006  0.12925  1.0000
  C   C2026     1.0  0.64644  0.93065  0.20984  1.0000
  H   H2437     1.0  0.52820  0.89517  0.14711  1.0000
  H   H2438     1.0  0.53880  0.67077  0.44890  1.0000
  C   C2027     1.0  0.52970  0.97181  0.06980  1.0000
  H   H2439     1.0  0.51819  0.84131  0.09586  1.0000
  H   H2440     1.0  0.68623  0.90040  0.16634  1.0000
  H   H2441     1.0  0.66255  0.86618  0.19570  1.0000
  S   S532      1.0  0.70638  0.98123  0.18404  1.0000
  C   C2028     1.0  0.51131  0.67593  0.41140  1.0000
  H   H2442     1.0  0.67531  0.95643  0.22547  1.0000
  C   C2029     1.0  0.64278  0.98594  0.04191  1.0000
  C   C2030     1.0  0.49641  0.75749  0.04872  1.0000
  C   C2031     1.0  0.50734  0.76607  0.05849  1.0000
  C   C2032     1.0  0.66491  0.98762  0.18102  1.0000
  C   C2033     1.0  0.51379  0.66561  0.36994  1.0000
  H   H2443     1.0  0.50763  0.66194  0.35770  1.0000
  H   H2444     1.0  0.50334  0.88089  0.12297  1.0000
  H   H2445     1.0  0.63867  0.95674  0.22551  1.0000
  H   H2446     1.0  0.61747  0.96034  0.04606  1.0000
  C   C2034     1.0  0.50221  0.70141  0.12858  1.0000
  H   H2447     1.0  0.51267  0.69653  0.43072  1.0000
  H   H2448     1.0  0.51340  0.97874  0.07246  1.0000
  C   C2035     1.0  0.62901  0.81398  0.98908  1.0000
  H   H2449     1.0  0.62586  0.95453  0.02022  1.0000
  C   C2036     1.0  0.50133  0.84604  0.09778  1.0000
  H   H2450     1.0  0.49960  0.68759  0.40415  1.0000
  H   H2451     1.0  0.65643  0.96949  0.99579  1.0000
  H   H2452     1.0  0.50697  0.68755  0.07483  1.0000
  C   C2037     1.0  0.49352  0.96121  0.00065  1.0000
  H   H2453     1.0  0.66606  0.98873  0.00339  1.0000
  C   C2038     1.0  0.49240  0.86688  0.09053  1.0000
  C   C2039     1.0  0.64323  0.89034  0.93240  1.0000
  C   C2040     1.0  0.53153  0.90414  0.80743  1.0000
  H   H2454     1.0  0.73424  0.76945  0.97456  1.0000
  C   C2041     1.0  0.68118  0.77557  0.61590  1.0000
  H   H2455     1.0  0.72294  0.78931  0.62393  1.0000
  N   N138      1.0  0.72881  0.84420  0.83401  1.0000
  H   H2456     1.0  0.74052  0.76423  0.93816  1.0000
  S   S533      1.0  0.64349  0.68031  0.76868  1.0000
  S   S534      1.0  0.61049  0.67920  0.82694  1.0000
  H   H2457     1.0  0.64097  0.68371  0.85218  1.0000
  H   H2458     1.0  0.56262  0.86278  0.89109  1.0000
  Fe  Fe273     1.0  0.62491  0.70052  0.59654  1.0000
  S   S535      1.0  0.65972  0.68935  0.58850  1.0000
  S   S536      1.0  0.60809  0.67596  0.59431  1.0000
  Fe  Fe274     1.0  0.62993  0.73935  0.61015  1.0000
  S   S537      1.0  0.66474  0.73074  0.60235  1.0000
  S   S538      1.0  0.61830  0.76877  0.62374  1.0000
  Fe  Fe275     1.0  0.66037  0.72303  0.57365  1.0000
  S   S539      1.0  0.67849  0.73238  0.54111  1.0000
  Fe  Fe276     1.0  0.66014  0.69825  0.61823  1.0000
  S   S540      1.0  0.67958  0.68036  0.64210  1.0000
  S   S541      1.0  0.62555  0.73409  0.57977  1.0000
  S   S542      1.0  0.62534  0.70722  0.62765  1.0000
  H   H2459     1.0  0.63583  0.77564  0.94639  1.0000
  S   S543      1.0  0.56228  0.81863  0.89210  1.0000
  H   H2460     1.0  0.69816  0.80462  0.62028  1.0000
  Fe  Fe277     1.0  0.59677  0.78584  0.85183  1.0000
  S   S544      1.0  0.60679  0.81222  0.85882  1.0000
  S   S545      1.0  0.61797  0.77147  0.82525  1.0000
  Fe  Fe278     1.0  0.59422  0.79888  0.89236  1.0000
  S   S546      1.0  0.61055  0.80033  0.91690  1.0000
  Fe  Fe279     1.0  0.57408  0.82964  0.85800  1.0000
  S   S547      1.0  0.56851  0.86438  0.84529  1.0000
  S   S548      1.0  0.58692  0.77066  0.88575  1.0000
  S   S549      1.0  0.56483  0.80443  0.84821  1.0000
  Fe  Fe280     1.0  0.66828  0.79564  0.70238  1.0000
  S   S550      1.0  0.65427  0.82923  0.69046  1.0000
  S   S551      1.0  0.65476  0.76802  0.70231  1.0000
  Fe  Fe281     1.0  0.70666  0.80706  0.70921  1.0000
  S   S552      1.0  0.69602  0.84150  0.69687  1.0000
  H   H2461     1.0  0.70522  0.67997  0.55397  1.0000
  Fe  Fe282     1.0  0.66496  0.83651  0.71650  1.0000
  S   S553      1.0  0.64574  0.86110  0.73503  1.0000
  Fe  Fe283     1.0  0.68664  0.83101  0.67213  1.0000
  S   S554      1.0  0.69058  0.84522  0.63766  1.0000
  S   S555      1.0  0.67592  0.80250  0.73045  1.0000
  S   S556      1.0  0.70021  0.79700  0.68259  1.0000
  C   C2042     1.0  0.71463  0.75188  0.61866  1.0000
  S   S557      1.0  0.65684  0.91439  0.84081  1.0000
  H   H2462     1.0  0.62747  0.77879  0.75321  1.0000
  H   H2463     1.0  0.50425  0.78184  0.98621  1.0000
  H   H2464     1.0  0.71721  0.80199  0.90907  1.0000
  H   H2465     1.0  0.73870  0.87050  0.75962  1.0000
  C   C2043     1.0  0.72475  0.76631  0.94750  1.0000
  C   C2044     1.0  0.71157  0.78624  0.53217  1.0000
  C   C2045     1.0  0.55754  0.94140  0.83937  1.0000
  S   S558      1.0  0.66071  0.82992  0.96085  1.0000
  H   H2466     1.0  0.55416  0.92854  0.85221  1.0000
  H   H2467     1.0  0.72904  0.89897  0.91653  1.0000
  C   C2046     1.0  0.65776  0.87009  0.75060  1.0000
  C   C2047     1.0  0.67731  0.85958  0.75511  1.0000
  C   C2048     1.0  0.68623  0.86699  0.76788  1.0000
  H   H2468     1.0  0.59597  0.70192  0.75878  1.0000
  C   C2049     1.0  0.65620  0.89532  0.77171  1.0000
  C   C2050     1.0  0.64715  0.88780  0.75917  1.0000
  H   H2469     1.0  0.68550  0.84576  0.74879  1.0000
  H   H2470     1.0  0.63572  0.83098  0.90574  1.0000
  H   H2471     1.0  0.63200  0.89599  0.75583  1.0000
  C   C2051     1.0  0.67796  0.67794  0.53265  1.0000
  H   H2472     1.0  0.72825  0.82414  0.65201  1.0000
  C   C2052     1.0  0.69516  0.95989  0.87198  1.0000
  H   H2473     1.0  0.73368  0.95334  0.91436  1.0000
  H   H2474     1.0  0.69143  0.83336  0.57576  1.0000
  H   H2475     1.0  0.65729  0.67942  0.81419  1.0000
  C   C2053     1.0  0.70805  0.96842  0.85364  1.0000
  S   S559      1.0  0.70398  0.66088  0.76562  1.0000
  H   H2476     1.0  0.52312  0.85522  0.94131  1.0000
  H   H2477     1.0  0.72048  0.91440  0.93630  1.0000
  C   C2054     1.0  0.55096  0.87417  0.82821  1.0000
  C   C2055     1.0  0.54105  0.86084  0.82303  1.0000
  C   C2056     1.0  0.52627  0.86917  0.81019  1.0000
  C   C2057     1.0  0.52101  0.89090  0.80292  1.0000
  C   C2058     1.0  0.52853  0.98050  0.87218  1.0000
  C   C2059     1.0  0.54649  0.89577  0.82004  1.0000
  H   H2478     1.0  0.54437  0.84419  0.82925  1.0000
  H   H2479     1.0  0.51828  0.85889  0.80659  1.0000
  H   H2480     1.0  0.66787  0.80509  0.92769  1.0000
  C   C2060     1.0  0.62344  0.89136  0.88634  1.0000
  C   C2061     1.0  0.59195  0.80605  0.93927  1.0000
  C   C2062     1.0  0.59469  0.81982  0.95039  1.0000
  C   C2063     1.0  0.72788  0.91479  0.91952  1.0000
  H   H2481     1.0  0.55291  0.89679  0.93016  1.0000
  C   C2064     1.0  0.55917  0.80207  0.96351  1.0000
  C   C2065     1.0  0.57418  0.79720  0.94582  1.0000
  H   H2482     1.0  0.60831  0.82690  0.94513  1.0000
  C   C2066     1.0  0.67577  0.83015  0.58103  1.0000
  Fe  Fe284     1.0  0.62877  0.66348  0.80013  1.0000
  H   H2483     1.0  0.57212  0.78639  0.93739  1.0000
  C   C2067     1.0  0.54182  0.95383  0.82867  1.0000
  H   H2484     1.0  0.53149  0.84861  0.91584  1.0000
  Fe  Fe285     1.0  0.68503  0.84496  0.96464  1.0000
  C   C2068     1.0  0.69228  0.75229  0.53757  1.0000
  C   C2069     1.0  0.69070  0.76889  0.52025  1.0000
  C   C2070     1.0  0.70620  0.94833  0.97795  1.0000
  C   C2071     1.0  0.71386  0.76927  0.54918  1.0000
  C   C2072     1.0  0.70399  0.75235  0.55202  1.0000
  C   C2073     1.0  0.64868  0.77497  0.95427  1.0000
  S   S560      1.0  0.72119  0.80887  0.52962  1.0000
  H   H2485     1.0  0.70545  0.73940  0.56531  1.0000
  C   C2074     1.0  0.62913  0.76848  0.64515  1.0000
  C   C2075     1.0  0.62753  0.78736  0.65131  1.0000
  C   C2076     1.0  0.63609  0.78749  0.66829  1.0000
  C   C2077     1.0  0.64588  0.76864  0.67955  1.0000
  C   C2078     1.0  0.64755  0.74977  0.67332  1.0000
  C   C2079     1.0  0.63941  0.74968  0.65607  1.0000
  H   H2486     1.0  0.61956  0.80194  0.64300  1.0000
  H   H2487     1.0  0.63457  0.80213  0.67301  1.0000
  H   H2488     1.0  0.65538  0.73513  0.68172  1.0000
  H   H2489     1.0  0.64085  0.73500  0.65143  1.0000
  C   C2080     1.0  0.61233  0.70508  0.82590  1.0000
  C   C2081     1.0  0.60067  0.71509  0.84233  1.0000
  C   C2082     1.0  0.60216  0.73558  0.84220  1.0000
  C   C2083     1.0  0.61550  0.74602  0.82570  1.0000
  C   C2084     1.0  0.62711  0.73607  0.80925  1.0000
  C   C2085     1.0  0.62548  0.71567  0.80928  1.0000
  H   H2490     1.0  0.59041  0.70699  0.85520  1.0000
  H   H2491     1.0  0.59302  0.74322  0.85488  1.0000
  H   H2492     1.0  0.63724  0.74424  0.79643  1.0000
  H   H2493     1.0  0.63429  0.70829  0.79638  1.0000
  C   C2086     1.0  0.59610  0.65966  0.56678  1.0000
  C   C2087     1.0  0.71964  0.89403  0.86737  1.0000
  C   C2088     1.0  0.64304  0.67197  0.66785  1.0000
  C   C2089     1.0  0.66280  0.67560  0.66662  1.0000
  C   C2090     1.0  0.66897  0.67561  0.68498  1.0000
  H   H2494     1.0  0.54890  0.84106  0.93392  1.0000
  H   H2495     1.0  0.57094  0.88368  0.89713  1.0000
  H   H2496     1.0  0.71704  0.70332  0.74866  1.0000
  C   C2091     1.0  0.69432  0.96561  0.89088  1.0000
  C   C2092     1.0  0.73202  0.82768  0.63517  1.0000
  C   C2093     1.0  0.56916  0.67798  0.54670  1.0000
  C   C2094     1.0  0.56858  0.69641  0.55329  1.0000
  C   C2095     1.0  0.58153  0.69642  0.56675  1.0000
  C   C2096     1.0  0.59502  0.67790  0.57393  1.0000
  H   H2497     1.0  0.65852  0.75334  0.92489  1.0000
  H   H2498     1.0  0.67696  0.90175  0.90550  1.0000
  H   H2499     1.0  0.58033  0.71050  0.57234  1.0000
  H   H2500     1.0  0.69937  0.83561  0.84997  1.0000
  C   C2097     1.0  0.67213  0.68178  0.81661  1.0000
  H   H2501     1.0  0.62041  0.92269  0.90931  1.0000
  C   C2098     1.0  0.51076  0.80049  0.91327  1.0000
  C   C2099     1.0  0.67592  0.88512  0.77588  1.0000
  C   C2100     1.0  0.56166  0.81612  0.97448  1.0000
  C   C2101     1.0  0.73071  0.85739  0.86512  1.0000
  C   C2102     1.0  0.54789  0.88143  0.93607  1.0000
  H   H2502     1.0  0.66880  0.77563  0.98111  1.0000
  C   C2103     1.0  0.64070  0.86064  0.90803  1.0000
  S   S561      1.0  0.72392  0.87668  0.96852  1.0000
  C   C2104     1.0  0.72543  0.86156  0.84515  1.0000
  H   H2503     1.0  0.70896  0.96399  0.83900  1.0000
  Fe  Fe286     1.0  0.67052  0.92192  0.80632  1.0000
  C   C2105     1.0  0.71700  0.88282  0.83678  1.0000
  C   C2106     1.0  0.62904  0.66938  0.68712  1.0000
  C   C2107     1.0  0.66978  0.73462  0.75993  1.0000
  H   H2504     1.0  0.56029  0.86998  0.94366  1.0000
  C   C2108     1.0  0.69653  0.74989  0.76503  1.0000
  C   C2109     1.0  0.57954  0.82487  0.96800  1.0000
  H   H2505     1.0  0.67165  0.89712  0.88245  1.0000
  H   H2506     1.0  0.61921  0.79919  0.71912  1.0000
  H   H2507     1.0  0.51582  0.86532  0.86961  1.0000
  N   N139      1.0  0.64085  0.80436  0.56345  1.0000
  H   H2508     1.0  0.72078  0.82136  0.86234  1.0000
  C   C2110     1.0  0.61796  0.80517  0.56914  1.0000
  H   H2509     1.0  0.54584  0.89491  0.87631  1.0000
  S   S562      1.0  0.68872  0.89521  0.78989  1.0000
  C   C2111     1.0  0.67771  0.96169  0.95120  1.0000
  C   C2112     1.0  0.73872  0.74753  0.76768  1.0000
  H   H2510     1.0  0.68434  0.67823  0.68412  1.0000
  C   C2113     1.0  0.70967  0.79026  0.61654  1.0000
  H   H2511     1.0  0.73964  0.93898  0.93881  1.0000
  N   N140      1.0  0.60515  0.83763  0.78435  1.0000
  C   C2114     1.0  0.59752  0.86078  0.77947  1.0000
  C   C2115     1.0  0.58931  0.82876  0.80160  1.0000
  C   C2116     1.0  0.62486  0.83360  0.79198  1.0000
  C   C2117     1.0  0.60868  0.82738  0.76632  1.0000
  C   C2118     1.0  0.60381  0.83850  0.74658  1.0000
  C   C2119     1.0  0.61701  0.80546  0.76830  1.0000
  C   C2120     1.0  0.60748  0.82831  0.72987  1.0000
  C   C2121     1.0  0.62066  0.79544  0.75147  1.0000
  C   C2122     1.0  0.61595  0.80687  0.73228  1.0000
  H   H2512     1.0  0.59530  0.86796  0.79333  1.0000
  H   H2513     1.0  0.60884  0.86859  0.76672  1.0000
  H   H2514     1.0  0.58206  0.86502  0.77485  1.0000
  H   H2515     1.0  0.57422  0.83142  0.79658  1.0000
  H   H2516     1.0  0.58627  0.83610  0.81545  1.0000
  H   H2517     1.0  0.59436  0.81157  0.80711  1.0000
  H   H2518     1.0  0.63771  0.83839  0.77893  1.0000
  H   H2519     1.0  0.62318  0.84250  0.80442  1.0000
  H   H2520     1.0  0.63003  0.81677  0.79900  1.0000
  H   H2521     1.0  0.59783  0.85524  0.74341  1.0000
  H   H2522     1.0  0.62092  0.79594  0.78288  1.0000
  H   H2523     1.0  0.60424  0.83727  0.71479  1.0000
  H   H2524     1.0  0.72627  0.66062  0.54410  1.0000
  C   C2123     1.0  0.72991  0.66342  0.84713  1.0000
  C   C2124     1.0  0.66927  0.79039  0.92217  1.0000
  H   H2525     1.0  0.73634  0.84256  0.71942  1.0000
  H   H2526     1.0  0.61307  0.79634  0.58535  1.0000
  C   C2125     1.0  0.65157  0.78206  0.56714  1.0000
  H   H2527     1.0  0.57605  0.85738  0.91209  1.0000
  H   H2528     1.0  0.61342  0.84664  0.87947  1.0000
  C   C2126     1.0  0.68495  0.71759  0.75425  1.0000
  C   C2127     1.0  0.73507  0.82055  0.91619  1.0000
  C   C2128     1.0  0.68705  0.77029  0.95014  1.0000
  H   H2529     1.0  0.70366  0.91703  0.97800  1.0000
  H   H2530     1.0  0.65833  0.68405  0.86826  1.0000
  H   H2531     1.0  0.67022  0.66626  0.54507  1.0000
  N   N141      1.0  0.70095  0.67042  0.52730  1.0000
  H   H2532     1.0  0.71236  0.88762  0.82178  1.0000
  H   H2533     1.0  0.67248  0.69875  0.81074  1.0000
  H   H2534     1.0  0.55487  0.98548  0.84712  1.0000
  H   H2535     1.0  0.51725  0.96628  0.96184  1.0000
  C   C2129     1.0  0.51152  0.81585  0.94188  1.0000
  N   N142      1.0  0.54392  0.87391  0.91881  1.0000
  C   C2130     1.0  0.63231  0.84786  0.90032  1.0000
  C   C2131     1.0  0.64294  0.83207  0.60585  1.0000
  C   C2132     1.0  0.71544  0.88209  0.70603  1.0000
  C   C2133     1.0  0.71242  0.73263  0.75942  1.0000
  H   H2536     1.0  0.65084  0.85290  0.91902  1.0000
  Fe  Fe287     1.0  0.66901  0.94163  0.84343  1.0000
  C   C2134     1.0  0.70797  0.76670  0.93871  1.0000
  H   H2537     1.0  0.74059  0.66417  0.77769  1.0000
  C   C2135     1.0  0.69418  0.67741  0.84106  1.0000
  C   C2136     1.0  0.69978  0.96979  0.97020  1.0000
  H   H2538     1.0  0.59771  0.96519  0.81209  1.0000
  H   H2539     1.0  0.68335  0.78189  0.65283  1.0000
  N   N143      1.0  0.60022  0.73312  0.72327  1.0000
  C   C2137     1.0  0.58637  0.72128  0.71914  1.0000
  C   C2138     1.0  0.59873  0.75347  0.70794  1.0000
  C   C2139     1.0  0.62208  0.72139  0.71908  1.0000
  C   C2140     1.0  0.59434  0.73547  0.74545  1.0000
  C   C2141     1.0  0.59271  0.71756  0.76196  1.0000
  C   C2142     1.0  0.59084  0.75516  0.75139  1.0000
  C   C2143     1.0  0.58555  0.75671  0.77254  1.0000
  C   C2144     1.0  0.58352  0.73888  0.78828  1.0000
  H   H2540     1.0  0.59006  0.71984  0.70238  1.0000
  H   H2541     1.0  0.58809  0.70488  0.72824  1.0000
  H   H2542     1.0  0.56966  0.72903  0.72313  1.0000
  H   H2543     1.0  0.58266  0.76318  0.71041  1.0000
  H   H2544     1.0  0.60272  0.75113  0.69145  1.0000
  H   H2545     1.0  0.60992  0.76264  0.70889  1.0000
  H   H2546     1.0  0.62445  0.70594  0.73002  1.0000
  H   H2547     1.0  0.62678  0.71801  0.70296  1.0000
  H   H2548     1.0  0.63317  0.73029  0.72081  1.0000
  H   H2549     1.0  0.59218  0.76959  0.74004  1.0000
  H   H2550     1.0  0.58308  0.77180  0.77681  1.0000
  H   H2551     1.0  0.64743  0.77438  0.58392  1.0000
  N   N144      1.0  0.67384  0.67461  0.83893  1.0000
  C   C2145     1.0  0.71623  0.83808  0.62410  1.0000
  H   H2552     1.0  0.64500  0.79009  0.95959  1.0000
  Fe  Fe288     1.0  0.62878  0.93833  0.83256  1.0000
  C   C2146     1.0  0.70721  0.73301  0.62241  1.0000
  H   H2553     1.0  0.67951  0.81451  0.55629  1.0000
  C   C2147     1.0  0.66880  0.89240  0.89989  1.0000
  C   C2148     1.0  0.70625  0.97973  0.89151  1.0000
  C   C2149     1.0  0.69457  0.76799  0.64764  1.0000
  H   H2554     1.0  0.63316  0.83673  0.62009  1.0000
  C   C2150     1.0  0.67556  0.75072  0.76535  1.0000
  H   H2555     1.0  0.61958  0.90799  0.88003  1.0000
  C   C2151     1.0  0.68524  0.97644  0.95712  1.0000
  C   C2152     1.0  0.69647  0.89498  0.70212  1.0000
  Fe  Fe289     1.0  0.72859  0.85305  0.94855  1.0000
  C   C2153     1.0  0.70595  0.71662  0.75383  1.0000
  H   H2556     1.0  0.73661  0.82276  0.68139  1.0000
  S   S563      1.0  0.64165  0.94428  0.79781  1.0000
  H   H2557     1.0  0.60595  0.88521  0.86659  1.0000
  C   C2154     1.0  0.53115  0.89888  0.88696  1.0000
  H   H2558     1.0  0.72235  0.82671  0.92782  1.0000
  C   C2155     1.0  0.70098  0.77238  0.97978  1.0000
  H   H2559     1.0  0.70868  0.85038  0.59349  1.0000
  H   H2560     1.0  0.54563  0.79491  0.96875  1.0000
  H   H2561     1.0  0.62065  0.81910  0.97643  1.0000
  H   H2562     1.0  0.67086  0.68177  0.51858  1.0000
  S   S564      1.0  0.67610  0.92199  0.94970  1.0000
  C   C2156     1.0  0.64598  0.81354  0.54064  1.0000
  H   H2563     1.0  0.71997  0.71668  0.83729  1.0000
  H   H2564     1.0  0.71689  0.92624  0.91015  1.0000
  C   C2157     1.0  0.72014  0.71497  0.61599  1.0000
  H   H2565     1.0  0.69137  0.73193  0.63043  1.0000
  H   H2566     1.0  0.51392  0.82949  0.86837  1.0000
  H   H2567     1.0  0.51958  0.81733  0.95322  1.0000
  H   H2568     1.0  0.68370  0.78871  0.90981  1.0000
  C   C2158     1.0  0.50814  0.81743  0.84486  1.0000
  H   H2569     1.0  0.70128  0.85887  0.77141  1.0000
  C   C2159     1.0  0.71433  0.89873  0.84778  1.0000
  C   C2160     1.0  0.70988  0.68795  0.51237  1.0000
  H   H2570     1.0  0.51104  0.74567  0.98582  1.0000
  H   H2571     1.0  0.49577  0.87737  0.88878  1.0000
  C   C2161     1.0  0.72439  0.88373  0.72234  1.0000
  H   H2572     1.0  0.50476  0.76870  0.95359  1.0000
  H   H2573     1.0  0.53387  0.88336  0.94888  1.0000
  S   S565      1.0  0.59688  0.93110  0.84783  1.0000
  H   H2574     1.0  0.58597  0.70541  0.79534  1.0000
  H   H2575     1.0  0.71395  0.70091  0.61853  1.0000
  H   H2576     1.0  0.64486  0.92830  0.91003  1.0000
  C   C2162     1.0  0.72086  0.84224  0.60213  1.0000
  H   H2577     1.0  0.64769  0.76190  0.96826  1.0000
  C   C2163     1.0  0.66285  0.83663  0.59891  1.0000
  H   H2578     1.0  0.70522  0.69116  0.49697  1.0000
  C   C2164     1.0  0.72278  0.85108  0.81319  1.0000
  H   H2579     1.0  0.64803  0.90922  0.77781  1.0000
  H   H2580     1.0  0.71727  0.94313  0.98826  1.0000
  H   H2581     1.0  0.60903  0.82167  0.56778  1.0000
  C   C2165     1.0  0.53654  0.85390  0.92779  1.0000
  S   S566      1.0  0.68559  0.94695  0.80972  1.0000
  H   H2582     1.0  0.57952  0.74009  0.80467  1.0000
  C   C2166     1.0  0.71718  0.70092  0.83985  1.0000
  H   H2583     1.0  0.68714  0.75415  0.65468  1.0000
  H   H2584     1.0  0.62023  0.81805  0.60114  1.0000
  H   H2585     1.0  0.66832  0.84507  0.60750  1.0000
  C   C2167     1.0  0.68466  0.94022  0.95837  1.0000
  H   H2586     1.0  0.69994  0.76316  0.76885  1.0000
  H   H2587     1.0  0.70854  0.76516  0.65462  1.0000
  Fe  Fe290     1.0  0.69257  0.88871  0.95954  1.0000
  H   H2588     1.0  0.66304  0.81078  0.53411  1.0000
  H   H2589     1.0  0.72720  0.68481  0.50948  1.0000
  H   H2590     1.0  0.49815  0.89103  0.84210  1.0000
  H   H2591     1.0  0.68650  0.71173  0.83369  1.0000
  C   C2168     1.0  0.58714  0.71935  0.78300  1.0000
  C   C2169     1.0  0.58214  0.96214  0.81680  1.0000
  C   C2170     1.0  0.65633  0.68727  0.85175  1.0000
  C   C2171     1.0  0.64910  0.81766  0.98579  1.0000
  C   C2172     1.0  0.68612  0.91018  0.71398  1.0000
  H   H2592     1.0  0.64750  0.77296  0.55754  1.0000
  C   C2173     1.0  0.64808  0.81549  0.57580  1.0000
  C   C2174     1.0  0.69863  0.93355  0.97204  1.0000
  H   H2593     1.0  0.68660  0.92440  0.73902  1.0000
  H   H2594     1.0  0.55762  0.71060  0.54846  1.0000
  H   H2595     1.0  0.61286  0.79762  0.55888  1.0000
  C   C2175     1.0  0.63636  0.88286  0.90142  1.0000
  C   C2176     1.0  0.57769  0.94565  0.83350  1.0000
  C   C2177     1.0  0.51479  0.98794  0.88918  1.0000
  H   H2596     1.0  0.68519  0.67290  0.80642  1.0000
  S   S567      1.0  0.69885  0.86732  0.93717  1.0000
  H   H2597     1.0  0.71747  0.90648  0.87576  1.0000
  H   H2598     1.0  0.66663  0.96696  0.94090  1.0000
  H   H2599     1.0  0.69836  0.79897  0.50455  1.0000
  N   N145      1.0  0.70040  0.77117  0.62448  1.0000
  H   H2600     1.0  0.67056  0.79051  0.61922  1.0000
  C   C2178     1.0  0.72043  0.98213  0.85438  1.0000
  H   H2601     1.0  0.68511  0.77671  0.59859  1.0000
  H   H2602     1.0  0.66877  0.78043  0.56314  1.0000
  H   H2603     1.0  0.70473  0.70274  0.51847  1.0000
  H   H2604     1.0  0.68446  0.95899  0.90516  1.0000
  S   S568      1.0  0.70967  0.98827  0.97707  1.0000
  S   S569      1.0  0.52359  0.78474  0.89491  1.0000
  H   H2605     1.0  0.70802  0.91488  0.84111  1.0000
  S   S570      1.0  0.68084  0.94114  0.87221  1.0000
  C   C2179     1.0  0.63562  0.82150  0.59464  1.0000
  H   H2606     1.0  0.68178  0.76882  0.50901  1.0000
  C   C2180     1.0  0.63496  0.66982  0.70538  1.0000
  H   H2607     1.0  0.68615  0.75059  0.91921  1.0000
  C   C2181     1.0  0.61541  0.87836  0.87847  1.0000
  Fe  Fe291     1.0  0.55569  0.79176  0.88264  1.0000
  C   C2182     1.0  0.70005  0.78594  0.51774  1.0000
  S   S571      1.0  0.63969  0.96486  0.83818  1.0000
  H   H2608     1.0  0.73729  0.84168  0.87239  1.0000
  H   H2609     1.0  0.55447  0.90610  0.82361  1.0000
  C   C2183     1.0  0.71373  0.89984  0.73373  1.0000
  C   C2184     1.0  0.63758  0.91893  0.90343  1.0000
  H   H2610     1.0  0.51947  0.80298  0.84814  1.0000
  H   H2611     1.0  0.64105  0.92495  0.88615  1.0000
  H   H2612     1.0  0.53695  0.79349  0.92834  1.0000
  H   H2613     1.0  0.67646  0.87559  0.90376  1.0000
  N   N146      1.0  0.64616  0.89603  0.90913  1.0000
  H   H2614     1.0  0.52809  0.92087  0.80129  1.0000
  C   C2185     1.0  0.56637  0.97493  0.80648  1.0000
  H   H2615     1.0  0.51829  0.92018  0.86134  1.0000
  C   C2186     1.0  0.52770  0.88962  0.90878  1.0000
  H   H2616     1.0  0.50216  0.97996  0.89786  1.0000
  C   C2187     1.0  0.56423  0.86932  0.90410  1.0000
  H   H2617     1.0  0.67114  0.91975  0.71132  1.0000
  C   C2188     1.0  0.54614  0.97087  0.81246  1.0000
  Fe  Fe292     1.0  0.65538  0.96862  0.80418  1.0000
  S   S572      1.0  0.67602  0.86757  0.98610  1.0000
  H   H2618     1.0  0.52674  0.96671  0.86780  1.0000
  H   H2619     1.0  0.63945  0.80635  0.53118  1.0000
  S   S573      1.0  0.73698  0.79487  0.72071  1.0000
  S   S574      1.0  0.55076  0.67796  0.53201  1.0000
  C   C2189     1.0  0.67203  0.75279  0.93183  1.0000
  H   H2620     1.0  0.52625  0.95068  0.83342  1.0000
  C   C2190     1.0  0.58344  0.65977  0.55301  1.0000
  C   C2191     1.0  0.68407  0.77282  0.97113  1.0000
  H   H2621     1.0  0.63983  0.83080  0.53743  1.0000
  N   N147      1.0  0.66948  0.77204  0.93996  1.0000
  H   H2622     1.0  0.65968  0.67295  0.71858  1.0000
  C   C2192     1.0  0.51537  0.91359  0.87806  1.0000
  H   H2623     1.0  0.72285  0.87049  0.69645  1.0000
  C   C2193     1.0  0.72125  0.76930  0.96794  1.0000
  H   H2624     1.0  0.72731  0.84480  0.74615  1.0000
  H   H2625     1.0  0.65201  0.87439  0.93811  1.0000
  H   H2626     1.0  0.64904  0.90111  0.93869  1.0000
  H   H2627     1.0  0.61370  0.66673  0.68789  1.0000
  H   H2628     1.0  0.62647  0.89092  0.93990  1.0000
  C   C2194     1.0  0.66863  0.81956  0.56976  1.0000
  H   H2629     1.0  0.68953  0.89286  0.69012  1.0000
  Fe  Fe293     1.0  0.50109  0.97312  0.79811  1.0000
  C   C2195     1.0  0.50745  0.89571  0.92084  1.0000
  C   C2196     1.0  0.50010  0.97214  0.96326  1.0000
  H   H2630     1.0  0.68053  0.70512  0.74985  1.0000
  S   S575      1.0  0.52617  0.98825  0.80067  1.0000
  H   H2631     1.0  0.67169  0.76333  0.62294  1.0000
  C   C2197     1.0  0.71632  0.82842  0.84689  1.0000
  H   H2632     1.0  0.65357  0.73546  0.75987  1.0000
  C   C2198     1.0  0.73224  0.80626  0.90573  1.0000
  H   H2633     1.0  0.71914  0.90237  0.74650  1.0000
  H   H2634     1.0  0.67385  0.69253  0.53904  1.0000
  H   H2635     1.0  0.72275  0.76942  0.56040  1.0000
  H   H2636     1.0  0.71513  0.79309  0.59916  1.0000
  H   H2637     1.0  0.49755  0.98462  0.94922  1.0000
  H   H2638     1.0  0.58146  0.83584  0.97634  1.0000
  H   H2639     1.0  0.63862  0.67071  0.65400  1.0000
  H   H2640     1.0  0.70577  0.85785  0.81474  1.0000
  C   C2199     1.0  0.52130  0.80247  0.92781  1.0000
  C   C2200     1.0  0.65502  0.67270  0.70443  1.0000
  C   C2201     1.0  0.69810  0.69790  0.83791  1.0000
  C   C2202     1.0  0.70901  0.66581  0.54688  1.0000
  C   C2203     1.0  0.61972  0.85667  0.88554  1.0000
  H   H2641     1.0  0.71155  0.76486  0.92258  1.0000
  H   H2642     1.0  0.49309  0.95919  0.96223  1.0000
  C   C2204     1.0  0.69488  0.91279  0.72954  1.0000
  H   H2643     1.0  0.67327  0.73856  0.94464  1.0000
  H   H2644     1.0  0.66375  0.76412  0.76951  1.0000
  S   S576      1.0  0.50219  0.96172  0.76926  1.0000
  C   C2205     1.0  0.71087  0.66021  0.84529  1.0000
  C   C2206     1.0  0.73294  0.68372  0.84472  1.0000
  H   H2645     1.0  0.65586  0.79267  0.91447  1.0000
  S   S577      1.0  0.71523  0.82879  0.97473  1.0000
  C   C2207     1.0  0.50465  0.83291  0.85655  1.0000
  H   H2646     1.0  0.65463  0.70446  0.84541  1.0000
  C   C2208     1.0  0.72774  0.87335  0.87609  1.0000
  H   H2647     1.0  0.72604  0.83774  0.80502  1.0000
  H   H2648     1.0  0.49975  0.80825  0.82024  1.0000
  H   H2649     1.0  0.71855  0.81504  0.83904  1.0000
  H   H2650     1.0  0.73187  0.86960  0.89137  1.0000
  H   H2651     1.0  0.63735  0.92732  0.98480  1.0000
  H   H2652     1.0  0.73165  0.86291  0.80252  1.0000
  H   H2653     1.0  0.50343  0.88880  0.93737  1.0000
  C   C2209     1.0  0.49585  0.91958  0.89048  1.0000
  S   S578      1.0  0.49966  0.90150  0.79052  1.0000
  C   C2210     1.0  0.74034  0.84704  0.73245  1.0000
  H   H2654     1.0  0.70554  0.98382  0.90624  1.0000
  H   H2655     1.0  0.56999  0.98788  0.79385  1.0000
  C   C2211     1.0  0.73623  0.75092  0.60999  1.0000
  C   C2212     1.0  0.71972  0.98772  0.87335  1.0000
  H   H2656     1.0  0.73076  0.98827  0.84024  1.0000
  S   S579      1.0  0.61703  0.66677  0.72919  1.0000
  C   C2213     1.0  0.74096  0.71496  0.60636  1.0000
  H   H2657     1.0  0.73069  0.74571  0.78450  1.0000
  H   H2658     1.0  0.61540  0.99078  0.80303  1.0000
  H   H2659     1.0  0.61146  0.90599  0.98746  1.0000
  H   H2660     1.0  0.73746  0.70642  0.78450  1.0000
  H   H2661     1.0  0.73702  0.75147  0.72684  1.0000
  H   H2662     1.0  0.73372  0.76395  0.75935  1.0000
  N   N148      1.0  0.73488  0.73187  0.75768  1.0000
  C   C2214     1.0  0.49693  0.82030  0.82927  1.0000
  H   H2663     1.0  0.50041  0.84997  0.89120  1.0000
  C   C2215     1.0  0.49986  0.86493  0.87943  1.0000
  C   C2216     1.0  0.54439  0.99103  0.86059  1.0000
  H   H2664     1.0  0.54240  0.65926  0.58150  1.0000
  C   C2217     1.0  0.74128  0.83576  0.59134  1.0000
  Fe  Fe294     1.0  0.82208  0.08729  0.04223  1.0000
  S   S580      1.0  0.83093  0.05373  0.05844  1.0000
  Fe  Fe295     1.0  0.81215  0.10966  0.29951  1.0000
  C   C2218     1.0  0.81897  0.26567  0.11131  1.0000
  S   S581      1.0  0.96212  0.14471  0.07165  1.0000
  C   C2219     1.0  0.82311  0.13767  0.35723  1.0000
  S   S582      1.0  0.95400  0.07466  0.39624  1.0000
  C   C2220     1.0  0.96239  0.12140  0.48173  1.0000
  H   H2665     1.0  0.90014  0.19611  0.00009  1.0000
  H   H2666     1.0  0.85377  0.05019  0.39662  1.0000
  S   S583      1.0  0.96691  0.01267  0.40800  1.0000
  H   H2667     1.0  0.74531  0.16604  0.11099  1.0000
  S   S584      1.0  0.83194  0.07725  0.30118  1.0000
  C   C2221     1.0  0.77856  0.19676  0.06089  1.0000
  H   H2668     1.0  0.76355  0.19756  0.07153  1.0000
  Fe  Fe296     1.0  0.91888  0.08354  0.40460  1.0000
  S   S585      1.0  0.90033  0.10052  0.37918  1.0000
  S   S586      1.0  0.82644  0.13761  0.28216  1.0000
  Fe  Fe297     1.0  0.81676  0.25267  0.32239  1.0000
  S   S587      1.0  0.80721  0.25663  0.29179  1.0000
  S   S588      1.0  0.85015  0.24181  0.32560  1.0000
  Fe  Fe298     1.0  0.77329  0.26740  0.34559  1.0000
  C   C2222     1.0  0.79368  0.07333  0.19161  1.0000
  Fe  Fe299     1.0  0.78029  0.24252  0.31163  1.0000
  Fe  Fe300     1.0  0.78745  0.28689  0.29957  1.0000
  H   H2669     1.0  0.74879  0.18540  0.03776  1.0000
  S   S589      1.0  0.79169  0.23534  0.34164  1.0000
  S   S590      1.0  0.79930  0.28448  0.32853  1.0000
  Fe  Fe301     1.0  0.90928  0.07297  0.16244  1.0000
  S   S591      1.0  0.92932  0.09484  0.16211  1.0000
  S   S592      1.0  0.88455  0.08053  0.14335  1.0000
  H   H2670     1.0  0.78394  0.14598  0.30293  1.0000
  H   H2671     1.0  0.74299  0.01911  0.29876  1.0000
  Fe  Fe302     1.0  0.95348  0.19603  0.24405  1.0000
  S   S593      1.0  0.92462  0.18966  0.23832  1.0000
  S   S594      1.0  0.95502  0.23001  0.23760  1.0000
  Fe  Fe303     1.0  0.97254  0.15020  0.25682  1.0000
  S   S595      1.0  0.94542  0.13997  0.25194  1.0000
  Fe  Fe304     1.0  0.94689  0.16482  0.22268  1.0000
  S   S596      1.0  0.94437  0.15617  0.19353  1.0000
  Fe  Fe305     1.0  0.92571  0.16557  0.26806  1.0000
  S   S597      1.0  0.89550  0.16039  0.28964  1.0000
  S   S598      1.0  0.97593  0.17291  0.22583  1.0000
  S   S599      1.0  0.95256  0.17409  0.27557  1.0000
  S   S600      1.0  0.91105  0.18617  0.08348  1.0000
  S   S601      1.0  0.90591  0.22455  0.12242  1.0000
  Fe  Fe306     1.0  0.90895  0.20777  0.05254  1.0000
  S   S602      1.0  0.88096  0.20906  0.03964  1.0000
  C   C2223     1.0  0.93334  0.17582  0.17440  1.0000
  C   C2224     1.0  0.92210  0.19546  0.17841  1.0000
  C   C2225     1.0  0.91301  0.21041  0.16267  1.0000
  C   C2226     1.0  0.91585  0.20593  0.14280  1.0000
  C   C2227     1.0  0.93587  0.17145  0.15462  1.0000
  H   H2672     1.0  0.92044  0.19922  0.19351  1.0000
  H   H2673     1.0  0.90450  0.22568  0.16556  1.0000
  C   C2228     1.0  0.93806  0.10792  0.13655  1.0000
  C   C2229     1.0  0.93283  0.12979  0.13178  1.0000
  C   C2230     1.0  0.94036  0.14075  0.11180  1.0000
  C   C2231     1.0  0.95832  0.10812  0.10103  1.0000
  C   C2232     1.0  0.95064  0.09696  0.12113  1.0000
  H   H2674     1.0  0.92297  0.13829  0.14356  1.0000
  H   H2675     1.0  0.74540  0.10389  0.28062  1.0000
  H   H2676     1.0  0.95476  0.07998  0.12481  1.0000
  H   H2677     1.0  0.96664  0.03495  0.21080  1.0000
  C   C2233     1.0  0.90629  0.29357  0.99327  1.0000
  C   C2234     1.0  0.86258  0.21975  0.31463  1.0000
  C   C2235     1.0  0.85092  0.20744  0.31035  1.0000
  C   C2236     1.0  0.86108  0.18892  0.30308  1.0000
  C   C2237     1.0  0.88289  0.18345  0.29880  1.0000
  C   C2238     1.0  0.89455  0.19620  0.30235  1.0000
  C   C2239     1.0  0.88437  0.21409  0.31069  1.0000
  H   H2678     1.0  0.83406  0.21179  0.31332  1.0000
  H   H2679     1.0  0.85207  0.17875  0.30089  1.0000
  H   H2680     1.0  0.91140  0.19191  0.29932  1.0000
  H   H2681     1.0  0.89342  0.22358  0.31403  1.0000
  C   C2240     1.0  0.83901  0.27354  0.13245  1.0000
  Fe  Fe307     1.0  0.95013  0.04348  0.41702  1.0000
  H   H2682     1.0  0.76938  0.07083  0.01752  1.0000
  C   C2241     1.0  0.80997  0.16076  0.28854  1.0000
  C   C2242     1.0  0.81725  0.17955  0.28326  1.0000
  C   C2243     1.0  0.80373  0.19811  0.28805  1.0000
  H   H2683     1.0  0.83335  0.17969  0.27571  1.0000
  H   H2684     1.0  0.80941  0.21258  0.28402  1.0000
  C   C2244     1.0  0.92721  0.04638  0.33034  1.0000
  C   C2245     1.0  0.77582  0.05445  0.01670  1.0000
  C   C2246     1.0  0.88580  0.17087  1.00000  1.0000
  C   C2247     1.0  0.75117  0.17764  0.24491  1.0000
  C   C2248     1.0  0.88166  0.08880  0.37452  1.0000
  Fe  Fe308     1.0  0.86442  0.06772  0.17362  1.0000
  C   C2249     1.0  0.85955  0.06294  0.38507  1.0000
  C   C2250     1.0  0.85231  0.07015  0.36619  1.0000
  C   C2251     1.0  0.85964  0.08694  0.35151  1.0000
  C   C2252     1.0  0.87440  0.09610  0.35559  1.0000
  H   H2685     1.0  0.75773  0.04149  0.23209  1.0000
  C   C2253     1.0  0.95552  0.02561  0.22061  1.0000
  H   H2686     1.0  0.85424  0.09258  0.33686  1.0000
  H   H2687     1.0  0.88022  0.10883  0.34398  1.0000
  H   H2688     1.0  0.75806  0.15958  0.03213  1.0000
  C   C2254     1.0  0.95313  0.13011  0.09646  1.0000
  H   H2689     1.0  0.81519  0.99498  0.13085  1.0000
  H   H2690     1.0  0.84446  0.15579  0.40378  1.0000
  C   C2255     1.0  0.81909  0.06547  0.16065  1.0000
  C   C2256     1.0  0.98807  0.15895  0.15062  1.0000
  C   C2257     1.0  0.76623  0.30234  0.38056  1.0000
  H   H2691     1.0  0.75567  0.13412  0.30824  1.0000
  H   H2692     1.0  0.77673  0.30113  0.36568  1.0000
  H   H2693     1.0  0.82569  0.01427  0.08662  1.0000
  S   S603      1.0  0.76848  0.27529  0.05430  1.0000
  C   C2258     1.0  0.93981  0.23856  0.18142  1.0000
  C   C2259     1.0  0.94812  0.22955  0.19948  1.0000
  C   C2260     1.0  0.94716  0.24186  0.21372  1.0000
  Fe  Fe309     1.0  0.78250  0.30223  0.05359  1.0000
  C   C2261     1.0  0.75149  0.99646  0.14546  1.0000
  H   H2694     1.0  0.94082  0.22911  0.17032  1.0000
  H   H2695     1.0  0.95511  0.21304  0.20248  1.0000
  S   S604      1.0  0.83510  0.05704  0.36107  1.0000
  Fe  Fe310     1.0  0.94782  0.22435  0.05090  1.0000
  H   H2696     1.0  0.80375  0.26811  0.10773  1.0000
  C   C2262     1.0  0.92075  0.27745  0.00246  1.0000
  C   C2263     1.0  0.85299  0.99728  0.21403  1.0000
  C   C2264     1.0  0.90509  0.04933  0.33555  1.0000
  C   C2265     1.0  0.85045  0.27288  0.99449  1.0000
  C   C2266     1.0  0.85017  0.04940  0.07326  1.0000
  C   C2267     1.0  0.84836  0.06168  0.08791  1.0000
  C   C2268     1.0  0.86345  0.05692  0.10043  1.0000
  C   C2269     1.0  0.88079  0.04049  0.09753  1.0000
  C   C2270     1.0  0.88252  0.02842  0.08281  1.0000
  C   C2271     1.0  0.86706  0.03256  0.07105  1.0000
  H   H2697     1.0  0.83519  0.07462  0.08982  1.0000
  H   H2698     1.0  0.86203  0.06630  0.11181  1.0000
  H   H2699     1.0  0.89592  0.01577  0.08048  1.0000
  H   H2700     1.0  0.86849  0.02297  0.05985  1.0000
  C   C2272     1.0  0.86319  0.15836  0.03244  1.0000
  C   C2273     1.0  0.86712  0.17324  0.04166  1.0000
  C   C2274     1.0  0.88021  0.18715  0.02997  1.0000
  H   H2701     1.0  0.85281  0.14801  0.04148  1.0000
  H   H2702     1.0  0.85916  0.17460  0.05752  1.0000
  N   N149      1.0  0.83657  0.24256  0.08431  1.0000
  C   C2275     1.0  0.84872  0.25211  0.06404  1.0000
  C   C2276     1.0  0.84603  0.21983  0.08938  1.0000
  C   C2277     1.0  0.81512  0.24422  0.08134  1.0000
  C   C2278     1.0  0.83706  0.25317  0.10096  1.0000
  C   C2279     1.0  0.82783  0.17859  0.35381  1.0000
  C   C2280     1.0  0.85616  0.25161  0.10695  1.0000
  C   C2281     1.0  0.87907  0.15714  0.35728  1.0000
  H   H2703     1.0  0.86733  0.10925  0.29409  1.0000
  S   S605      1.0  0.79854  0.10559  0.33400  1.0000
  H   H2704     1.0  0.84785  0.24520  0.05092  1.0000
  H   H2705     1.0  0.84281  0.26937  0.06006  1.0000
  H   H2706     1.0  0.80018  0.21604  0.99563  1.0000
  H   H2707     1.0  0.86300  0.21692  0.08920  1.0000
  H   H2708     1.0  0.84488  0.21134  0.07757  1.0000
  H   H2709     1.0  0.83824  0.21220  0.10512  1.0000
  H   H2710     1.0  0.80759  0.26082  0.07579  1.0000
  H   H2711     1.0  0.81522  0.23552  0.06924  1.0000
  H   H2712     1.0  0.80511  0.23741  0.09608  1.0000
  C   C2282     1.0  0.78928  0.16055  0.29861  1.0000
  H   H2713     1.0  0.87062  0.24258  0.09968  1.0000
  C   C2283     1.0  0.78680  0.21504  0.05191  1.0000
  C   C2284     1.0  0.76242  0.18914  0.25081  1.0000
  H   H2714     1.0  0.93122  0.02564  0.36916  1.0000
  C   C2285     1.0  0.76836  0.29135  0.19224  1.0000
  H   H2715     1.0  0.82140  0.12175  0.35846  1.0000
  H   H2716     1.0  0.83701  0.26946  0.99010  1.0000
  C   C2286     1.0  0.75261  0.02694  0.28506  1.0000
  S   S606      1.0  0.97693  0.02061  0.25155  1.0000
  C   C2287     1.0  0.94840  0.99485  0.44757  1.0000
  C   C2288     1.0  0.87345  0.00990  0.37578  1.0000
  C   C2289     1.0  0.81019  0.15458  0.34695  1.0000
  H   H2717     1.0  0.83344  0.03731  0.20418  1.0000
  H   H2718     1.0  0.93338  0.28101  0.00731  1.0000
  C   C2290     1.0  0.93719  0.04033  0.31083  1.0000
  C   C2291     1.0  0.93831  0.26330  0.20960  1.0000
  C   C2292     1.0  0.89680  0.00008  0.40014  1.0000
  H   H2719     1.0  0.82082  0.28893  0.18451  1.0000
  H   H2720     1.0  0.89019  0.07825  0.07035  1.0000
  N   N150      1.0  0.90345  0.11227  0.07395  1.0000
  Fe  Fe311     1.0  0.77366  0.09389  0.32627  1.0000
  H   H2721     1.0  0.93240  0.09069  0.07787  1.0000
  H   H2722     1.0  0.91548  0.13217  0.03153  1.0000
  H   H2723     1.0  0.95832  0.30427  0.06059  1.0000
  C   C2293     1.0  0.90873  0.31499  0.03767  1.0000
  C   C2294     1.0  0.89363  0.08252  0.03742  1.0000
  H   H2724     1.0  0.75631  0.09717  0.24650  1.0000
  H   H2725     1.0  0.84847  0.12743  0.37299  1.0000
  C   C2295     1.0  0.98976  0.15904  0.10867  1.0000
  C   C2296     1.0  0.76079  0.03960  0.24753  1.0000
  C   C2297     1.0  0.89373  0.04606  0.32238  1.0000
  S   S607      1.0  0.91631  0.26940  0.15719  1.0000
  C   C2298     1.0  0.94775  0.07380  0.23707  1.0000
  H   H2726     1.0  0.91683  0.06169  0.22637  1.0000
  H   H2727     1.0  0.94330  0.25901  0.07951  1.0000
  H   H2728     1.0  0.93817  0.03436  0.48819  1.0000
  H   H2729     1.0  0.78110  0.00708  0.20360  1.0000
  H   H2730     1.0  0.87089  0.01442  0.35983  1.0000
  H   H2731     1.0  0.89802  0.09071  0.00375  1.0000
  C   C2299     1.0  0.92571  0.03695  0.29781  1.0000
  H   H2732     1.0  0.81404  0.01722  0.19947  1.0000
  C   C2300     1.0  0.77381  0.20136  0.00132  1.0000
  C   C2301     1.0  0.74709  0.26302  0.10763  1.0000
  C   C2302     1.0  0.82005  0.27568  0.12677  1.0000
  C   C2303     1.0  0.89066  0.09292  0.24818  1.0000
  S   S608      1.0  0.78236  0.28584  0.00272  1.0000
  C   C2304     1.0  0.84649  0.00469  0.24841  1.0000
  S   S609      1.0  0.83192  0.09609  0.00712  1.0000
  C   C2305     1.0  0.90403  0.03982  0.30355  1.0000
  H   H2733     1.0  0.97022  0.19199  0.17243  1.0000
  H   H2734     1.0  0.89628  0.05445  0.34975  1.0000
  N   N151      1.0  0.92669  0.28786  0.08933  1.0000
  C   C2306     1.0  0.99019  0.27489  0.03854  1.0000
  C   C2307     1.0  0.90721  0.28009  0.10024  1.0000
  C   C2308     1.0  0.77747  0.01313  0.11806  1.0000
  C   C2309     1.0  0.92641  0.29924  0.06740  1.0000
  H   H2735     1.0  0.91899  0.08199  0.34344  1.0000
  H   H2736     1.0  0.84083  0.01255  0.38944  1.0000
  H   H2737     1.0  0.99019  0.09434  0.34482  1.0000
  S   S610      1.0  0.81738  0.23599  0.02631  1.0000
  H   H2738     1.0  0.81993  0.31570  0.28529  1.0000
  H   H2739     1.0  0.82657  0.01780  0.12029  1.0000
  H   H2740     1.0  0.74890  0.15112  0.00226  1.0000
  H   H2741     1.0  0.78066  0.99765  0.15045  1.0000
  H   H2742     1.0  0.89338  0.29316  0.10140  1.0000
  H   H2743     1.0  0.90800  0.27148  0.11665  1.0000
  H   H2744     1.0  0.91243  0.12184  0.00070  1.0000
  H   H2745     1.0  0.76035  0.10744  0.20866  1.0000
  C   C2310     1.0  0.74485  0.10738  0.21832  1.0000
  Fe  Fe312     1.0  0.79558  0.31173  0.00623  1.0000
  H   H2746     1.0  0.80124  0.05265  0.03133  1.0000
  S   S611      1.0  0.91880  0.09622  0.43265  1.0000
  Fe  Fe313     1.0  0.89895  0.03117  0.18648  1.0000
  H   H2747     1.0  0.87913  0.06673  0.40404  1.0000
  C   C2311     1.0  0.85988  0.15235  0.39308  1.0000
  C   C2312     1.0  0.85700  0.26149  0.12261  1.0000
  H   H2748     1.0  0.78359  0.05017  0.11778  1.0000
  S   S612      1.0  0.76739  0.04570  0.16062  1.0000
  C   C2313     1.0  0.81359  0.07351  0.17895  1.0000
  S   S613      1.0  0.83177  0.08314  0.18648  1.0000
  H   H2749     1.0  0.93855  0.02990  0.19621  1.0000
  H   H2750     1.0  0.80910  0.04873  0.10144  1.0000
  H   H2751     1.0  0.85392  0.00541  0.45559  1.0000
  H   H2752     1.0  0.98517  0.28542  0.02486  1.0000
  Fe  Fe314     1.0  0.94527  0.17854  0.06925  1.0000
  H   H2753     1.0  0.93784  0.27291  0.22048  1.0000
  C   C2314     1.0  0.94298  0.00388  0.25382  1.0000
  C   C2315     1.0  0.79434  0.04295  0.10484  1.0000
  H   H2754     1.0  0.79850  0.15183  0.34010  1.0000
  C   C2316     1.0  0.75010  0.24403  0.10140  1.0000
  H   H2755     1.0  0.80609  0.28520  0.13443  1.0000
  N   N152      1.0  0.87909  0.26141  0.25350  1.0000
  C   C2317     1.0  0.86459  0.26481  0.27359  1.0000
  C   C2318     1.0  0.89569  0.24276  0.25866  1.0000
  C   C2319     1.0  0.88869  0.28005  0.24439  1.0000
  C   C2320     1.0  0.86843  0.25846  0.23806  1.0000
  C   C2321     1.0  0.84658  0.26566  0.23916  1.0000
  C   C2322     1.0  0.88003  0.24959  0.22047  1.0000
  C   C2323     1.0  0.83686  0.26283  0.22435  1.0000
  C   C2324     1.0  0.87017  0.24694  0.20567  1.0000
  C   C2325     1.0  0.84859  0.25330  0.20775  1.0000
  H   H2756     1.0  0.85533  0.25225  0.27999  1.0000
  H   H2757     1.0  0.87302  0.26476  0.28585  1.0000
  H   H2758     1.0  0.85364  0.28029  0.27190  1.0000
  H   H2759     1.0  0.88950  0.22802  0.26339  1.0000
  H   H2760     1.0  0.90249  0.24374  0.27174  1.0000
  H   H2761     1.0  0.90928  0.24108  0.24544  1.0000
  H   H2762     1.0  0.89781  0.28246  0.25492  1.0000
  H   H2763     1.0  0.89930  0.27872  0.22903  1.0000
  H   H2764     1.0  0.87664  0.29452  0.24137  1.0000
  H   H2765     1.0  0.83668  0.27390  0.25111  1.0000
  H   H2766     1.0  0.89687  0.24517  0.21760  1.0000
  H   H2767     1.0  0.82018  0.26858  0.22554  1.0000
  H   H2768     1.0  0.87945  0.24057  0.19217  1.0000
  H   H2769     1.0  0.84105  0.25154  0.19606  1.0000
  H   H2770     1.0  0.80885  0.05188  0.14044  1.0000
  C   C2326     1.0  0.92945  0.25955  0.17813  1.0000
  H   H2771     1.0  0.78814  0.05327  0.23599  1.0000
  H   H2772     1.0  0.93036  0.24418  0.01252  1.0000
  Fe  Fe315     1.0  0.79658  0.26688  0.02979  1.0000
  C   C2327     1.0  0.74833  0.02934  0.26511  1.0000
  N   N153      1.0  0.79789  0.01966  0.11055  1.0000
  H   H2773     1.0  0.86222  0.00861  0.24529  1.0000
  C   C2328     1.0  0.80961  0.01096  0.09172  1.0000
  H   H2774     1.0  0.77814  0.22993  0.05570  1.0000
  S   S614      1.0  0.78478  0.30751  0.08425  1.0000
  C   C2329     1.0  0.81142  0.01243  0.12636  1.0000
  Fe  Fe316     1.0  0.84948  0.32326  0.15814  1.0000
  S   S615      1.0  0.90601  0.00588  0.21435  1.0000
  H   H2775     1.0  0.95384  0.03811  0.30523  1.0000
  H   H2776     1.0  0.90237  0.23533  0.00210  1.0000
  H   H2777     1.0  0.97158  0.22995  0.13839  1.0000
  H   H2778     1.0  0.98378  0.22806  0.07074  1.0000
  C   C2330     1.0  0.77109  0.00193  0.13881  1.0000
  H   H2779     1.0  0.94379  0.25955  0.10599  1.0000
  H   H2780     1.0  0.80100  0.99687  0.01203  1.0000
  C   C2331     1.0  0.88792  0.26788  0.98956  1.0000
  C   C2332     1.0  0.80892  0.17653  0.04183  1.0000
  C   C2333     1.0  0.94422  0.30696  0.05468  1.0000
  Fe  Fe317     1.0  0.89385  0.29980  0.16036  1.0000
  C   C2334     1.0  0.97993  0.10523  0.45171  1.0000
  S   S616      1.0  0.94267  0.19890  0.03750  1.0000
  H   H2781     1.0  0.82581  0.04235  0.23017  1.0000
  H   H2782     1.0  0.91266  0.13536  0.08514  1.0000
  N   N154      1.0  0.86935  0.16492  0.22682  1.0000
  C   C2335     1.0  0.87500  0.15466  0.24742  1.0000
  C   C2336     1.0  0.88427  0.17886  0.21550  1.0000
  C   C2337     1.0  0.84821  0.17848  0.23029  1.0000
  C   C2338     1.0  0.86944  0.14869  0.21543  1.0000
  C   C2339     1.0  0.85469  0.13536  0.22330  1.0000
  C   C2340     1.0  0.88374  0.14572  0.19632  1.0000
  C   C2341     1.0  0.85358  0.12080  0.21221  1.0000
  C   C2342     1.0  0.88255  0.13101  0.18545  1.0000
  C   C2343     1.0  0.86731  0.11884  0.19319  1.0000
  H   H2783     1.0  0.87463  0.16640  0.25665  1.0000
  H   H2784     1.0  0.86407  0.14457  0.25734  1.0000
  H   H2785     1.0  0.89094  0.14459  0.24562  1.0000
  H   H2786     1.0  0.90068  0.16987  0.21378  1.0000
  H   H2787     1.0  0.88343  0.19126  0.22416  1.0000
  H   H2788     1.0  0.88112  0.18701  0.19966  1.0000
  H   H2789     1.0  0.83638  0.16973  0.24106  1.0000
  H   H2790     1.0  0.84788  0.19166  0.23769  1.0000
  H   H2791     1.0  0.84281  0.18535  0.21522  1.0000
  H   H2792     1.0  0.84375  0.13620  0.23806  1.0000
  H   H2793     1.0  0.89596  0.15461  0.18932  1.0000
  H   H2794     1.0  0.84189  0.11106  0.21826  1.0000
  H   H2795     1.0  0.89345  0.12910  0.17081  1.0000
  H   H2796     1.0  0.86609  0.10787  0.18441  1.0000
  Fe  Fe318     1.0  0.95364  0.08442  0.42604  1.0000
  S   S617      1.0  0.83065  0.11465  0.04890  1.0000
  S   S618      1.0  0.88808  0.06347  0.19298  1.0000
  C   C2344     1.0  0.92744  0.18657  0.13882  1.0000
  C   C2345     1.0  0.79995  0.31238  0.16705  1.0000
  H   H2797     1.0  0.76597  0.20900  0.01436  1.0000
  Fe  Fe319     1.0  0.91894  0.21275  0.09238  1.0000
  Fe  Fe320     1.0  0.91799  0.06309  0.45031  1.0000
  H   H2798     1.0  0.92998  0.18345  0.12342  1.0000
  H   H2799     1.0  0.94471  0.15642  0.15137  1.0000
  C   C2346     1.0  0.94413  0.26929  0.08981  1.0000
  C   C2347     1.0  0.76960  0.03414  0.28733  1.0000
  S   S619      1.0  0.91354  0.23540  0.06267  1.0000
  H   H2800     1.0  0.80386  0.01884  0.14078  1.0000
  S   S620      1.0  0.78243  0.31427  0.27307  1.0000
  C   C2348     1.0  0.78278  0.19792  0.29756  1.0000
  S   S621      1.0  0.95346  0.20306  0.08136  1.0000
  H   H2801     1.0  0.88115  0.14030  0.35686  1.0000
  S   S622      1.0  0.92213  0.04024  0.15720  1.0000
  Fe  Fe321     1.0  0.89533  0.04665  0.14080  1.0000
  S   S623      1.0  0.90137  0.03538  0.11081  1.0000
  S   S624      1.0  0.74831  0.27810  0.20704  1.0000
  C   C2349     1.0  0.85843  0.18693  0.37156  1.0000
  S   S625      1.0  0.77925  0.15464  0.06574  1.0000
  H   H2802     1.0  0.83440  0.06576  0.15069  1.0000
  S   S626      1.0  0.81202  0.29176  0.03165  1.0000
  C   C2350     1.0  0.77938  0.06466  0.18626  1.0000
  C   C2351     1.0  0.93448  0.10689  0.21582  1.0000
  C   C2352     1.0  0.78963  0.17748  0.05570  1.0000
  Fe  Fe322     1.0  0.79787  0.13095  0.04617  1.0000
  S   S627      1.0  0.95261  0.05236  0.44594  1.0000
  H   H2803     1.0  0.75948  0.17884  0.31036  1.0000
  C   C2353     1.0  0.87405  0.07226  0.38927  1.0000
  C   C2354     1.0  0.87181  0.15772  0.01129  1.0000
  C   C2355     1.0  0.85955  0.00292  0.41324  1.0000
  H   H2804     1.0  0.76417  0.06428  0.19629  1.0000
  H   H2805     1.0  0.78956  0.07948  0.20579  1.0000
  H   H2806     1.0  0.87140  0.18866  0.37799  1.0000
  H   H2807     1.0  0.95575  0.08231  0.24374  1.0000
  H   H2808     1.0  0.81766  0.16177  0.03787  1.0000
  S   S628      1.0  0.87321  0.03426  0.16967  1.0000
  C   C2356     1.0  0.93964  0.02272  0.21231  1.0000
  H   H2809     1.0  0.90381  0.11025  0.29327  1.0000
  H   H2810     1.0  0.83973  0.28122  0.14455  1.0000
  S   S629      1.0  0.91531  0.05144  0.42296  1.0000
  H   H2811     1.0  0.83202  0.19374  0.02205  1.0000
  S   S630      1.0  0.86399  0.30207  0.18440  1.0000
  C   C2357     1.0  0.81718  0.19462  0.03303  1.0000
  C   C2358     1.0  0.80622  0.21387  0.03800  1.0000
  C   C2359     1.0  0.79382  0.04426  0.02443  1.0000
  H   H2812     1.0  0.86428  0.13510  0.39382  1.0000
  C   C2360     1.0  0.90283  0.25180  0.99916  1.0000
  S   S631      1.0  0.78830  0.10238  0.04326  1.0000
  C   C2361     1.0  0.90028  0.10491  0.28086  1.0000
  S   S632      1.0  0.96629  0.24972  0.03361  1.0000
  H   H2813     1.0  0.87185  0.15584  0.39970  1.0000
  C   C2362     1.0  0.75255  0.28845  0.38942  1.0000
  C   C2363     1.0  0.98747  0.14063  0.14469  1.0000
  Fe  Fe323     1.0  0.81677  0.07255  0.33533  1.0000
  S   S633      1.0  0.86508  0.14129  0.99820  1.0000
  C   C2364     1.0  0.78484  0.05664  0.16792  1.0000
  H   H2814     1.0  0.94080  0.04445  0.37668  1.0000
  H   H2815     1.0  0.83615  0.01391  0.26013  1.0000
  C   C2365     1.0  0.91194  0.09267  0.24746  1.0000
  H   H2816     1.0  0.84349  0.19379  0.38125  1.0000
  H   H2817     1.0  0.89298  0.15878  0.36224  1.0000
  H   H2818     1.0  0.91711  0.09920  0.10140  1.0000
  H   H2819     1.0  0.75479  0.12949  0.11747  1.0000
  C   C2366     1.0  0.80460  0.05744  0.15495  1.0000
  H   H2820     1.0  0.88126  0.12213  0.10072  1.0000
  H   H2821     1.0  0.87469  0.10251  0.09144  1.0000
  N   N155      1.0  0.85931  0.16464  0.37139  1.0000
  H   H2822     1.0  0.94373  0.05989  0.24916  1.0000
  H   H2823     1.0  0.93372  0.03206  0.28316  1.0000
  H   H2824     1.0  0.75108  0.27526  0.24998  1.0000
  Fe  Fe324     1.0  0.83767  0.12523  0.01393  1.0000
  C   C2367     1.0  0.96151  0.11403  0.46422  1.0000
  C   C2368     1.0  0.93581  0.07443  0.34060  1.0000
  H   H2825     1.0  0.87941  0.16601  0.34085  1.0000
  C   C2369     1.0  0.76360  0.30943  0.17727  1.0000
  H   H2826     1.0  0.91502  0.05093  0.37263  1.0000
  H   H2827     1.0  0.94669  0.11616  0.45978  1.0000
  C   C2370     1.0  0.88181  0.11667  0.08625  1.0000
  N   N156      1.0  0.76626  0.01139  0.99438  1.0000
  H   H2828     1.0  0.76485  0.23295  0.10148  1.0000
  C   C2371     1.0  0.77869  0.99322  0.23651  1.0000
  Fe  Fe325     1.0  0.80386  0.06823  0.29628  1.0000
  H   H2829     1.0  0.82883  0.19478  0.35185  1.0000
  C   C2372     1.0  0.93099  0.04273  0.36645  1.0000
  H   H2830     1.0  0.87157  0.12902  0.07671  1.0000
  C   C2373     1.0  0.98547  0.19657  0.16440  1.0000
  C   C2374     1.0  0.78837  0.00337  0.21705  1.0000
  H   H2831     1.0  0.75545  0.16061  0.24813  1.0000
  S   S634      1.0  0.80566  0.05019  0.27149  1.0000
  H   H2832     1.0  0.90962  0.08034  0.09197  1.0000
  C   C2375     1.0  0.83753  0.03243  0.21989  1.0000
  H   H2833     1.0  0.93612  0.07052  0.20424  1.0000
  H   H2834     1.0  0.91082  0.08616  0.20780  1.0000
  H   H2835     1.0  0.94668  0.10377  0.20167  1.0000
  C   C2376     1.0  0.77558  0.17913  0.30285  1.0000
  H   H2836     1.0  0.87166  0.25959  0.12737  1.0000
  C   C2377     1.0  0.84163  0.16162  0.36397  1.0000
  H   H2837     1.0  0.79279  0.26987  0.20661  1.0000
  H   H2838     1.0  0.96961  0.04543  0.35047  1.0000
  C   C2378     1.0  0.98809  0.14074  0.12382  1.0000
  C   C2379     1.0  0.91616  0.09488  0.08680  1.0000
  H   H2839     1.0  0.94057  0.11567  0.22407  1.0000
  C   C2380     1.0  0.92726  0.00076  0.24544  1.0000
  C   C2381     1.0  0.76302  0.01844  0.10455  1.0000
  C   C2382     1.0  0.92278  0.07586  0.21663  1.0000
  C   C2383     1.0  0.90811  0.11216  0.01605  1.0000
  N   N157      1.0  0.83816  0.00975  0.22890  1.0000
  N   N158      1.0  0.74442  0.18228  0.00790  1.0000
  C   C2384     1.0  0.90310  0.10613  0.05442  1.0000
  C   C2385     1.0  0.90963  0.11801  0.03405  1.0000
  H   H2840     1.0  0.85876  0.09893  0.26505  1.0000
  S   S635      1.0  0.75045  0.27004  0.37603  1.0000
  H   H2841     1.0  0.84938  0.26635  0.01160  1.0000
  H   H2842     1.0  0.92076  0.11765  0.20998  1.0000
  C   C2386     1.0  0.77806  0.04629  0.24975  1.0000
  C   C2387     1.0  0.95720  0.01624  0.24140  1.0000
  H   H2843     1.0  0.78750  0.04947  0.09058  1.0000
  C   C2388     1.0  0.97281  0.21511  0.13321  1.0000
  C   C2389     1.0  0.89533  0.08807  0.05548  1.0000
  H   H2844     1.0  0.96824  0.09976  0.08913  1.0000
  H   H2845     1.0  0.75657  0.29639  0.25771  1.0000
  H   H2846     1.0  0.74928  0.07661  0.27901  1.0000
  H   H2847     1.0  0.95984  0.06784  0.22408  1.0000
  N   N159      1.0  0.92888  0.08729  0.22959  1.0000
  S   S636      1.0  0.78557  0.10125  0.29146  1.0000
  H   H2848     1.0  0.86018  0.19681  0.35544  1.0000
  C   C2390     1.0  0.90856  0.30363  0.05825  1.0000
  H   H2849     1.0  0.90445  0.26872  0.09225  1.0000
  C   C2391     1.0  0.96155  0.04257  0.33927  1.0000
  H   H2850     1.0  0.96459  0.02527  0.34062  1.0000
  H   H2851     1.0  0.94302  0.07914  0.35139  1.0000
  N   N160      1.0  0.93878  0.05131  0.34390  1.0000
  C   C2392     1.0  0.74706  0.28395  0.26299  1.0000
  C   C2393     1.0  0.91233  0.13132  0.07018  1.0000
  H   H2852     1.0  0.85287  0.03671  0.21796  1.0000
  H   H2853     1.0  0.90296  0.14536  0.06145  1.0000
  H   H2854     1.0  0.97900  0.16506  0.45400  1.0000
  S   S637      1.0  0.76526  0.22104  0.30257  1.0000
  H   H2855     1.0  0.94266  0.08139  0.32420  1.0000
  S   S638      1.0  0.79048  0.06017  0.33074  1.0000
  C   C2394     1.0  0.78264  0.04349  0.26959  1.0000
  H   H2856     1.0  0.92880  0.12896  0.06129  1.0000
  C   C2395     1.0  0.91619  0.09915  0.26421  1.0000
  Fe  Fe326     1.0  0.79837  0.11282  0.00838  1.0000
  C   C2396     1.0  0.78905  0.28390  0.19499  1.0000
  C   C2397     1.0  0.81247  0.17500  0.34532  1.0000
  H   H2857     1.0  0.80252  0.18810  0.33707  1.0000
  C   C2398     1.0  0.83860  0.14109  0.36559  1.0000
  S   S639      1.0  0.89648  0.05418  0.48091  1.0000
  C   C2399     1.0  0.92554  0.01022  0.22470  1.0000
  H   H2858     1.0  0.74979  0.25786  0.03048  1.0000
  H   H2859     1.0  0.98700  0.15778  0.16715  1.0000
  H   H2860     1.0  0.94521  0.01021  0.45131  1.0000
  H   H2861     1.0  0.84878  0.00137  0.19836  1.0000
  H   H2862     1.0  0.88710  0.06894  0.03876  1.0000
  H   H2863     1.0  0.86559  0.24941  0.06426  1.0000
  C   C2400     1.0  0.87970  0.10447  0.28132  1.0000
  C   C2401     1.0  0.81725  0.00498  0.23215  1.0000
  H   H2864     1.0  0.77305  0.03177  0.30272  1.0000
  H   H2865     1.0  0.75957  0.26688  0.11246  1.0000
  H   H2866     1.0  0.84567  0.00226  0.42540  1.0000
  H   H2867     1.0  0.95965  0.27374  0.08458  1.0000
  H   H2868     1.0  0.93666  0.15754  0.10825  1.0000
  C   C2402     1.0  0.92896  0.27205  0.19207  1.0000
  C   C2403     1.0  0.80486  0.29460  0.18252  1.0000
  H   H2869     1.0  0.84804  0.29027  0.99193  1.0000
  H   H2870     1.0  0.88572  0.08892  0.23589  1.0000
  C   C2404     1.0  0.92976  0.30208  0.10143  1.0000
  C   C2405     1.0  0.75670  0.21096  0.24725  1.0000
  H   H2871     1.0  0.95725  0.21066  0.13890  1.0000
  H   H2872     1.0  0.91754  0.31675  0.10068  1.0000
  H   H2873     1.0  0.92122  0.28836  0.18955  1.0000
  H   H2874     1.0  0.96928  0.04991  0.32343  1.0000
  C   C2406     1.0  0.77515  0.02280  0.00507  1.0000
  H   H2875     1.0  0.80213  0.01796  0.07792  1.0000
  C   C2407     1.0  0.99055  0.17740  0.11439  1.0000
  H   H2876     1.0  0.99208  0.19110  0.10200  1.0000
  H   H2877     1.0  0.94519  0.30674  0.09558  1.0000
  S   S640      1.0  0.80515  0.14284  0.01148  1.0000
  C   C2408     1.0  0.87491  0.09862  0.26494  1.0000
  H   H2878     1.0  0.93177  0.10019  0.26448  1.0000
  H   H2879     1.0  0.89518  0.03724  0.29340  1.0000
  C   C2409     1.0  0.79341  0.20556  0.99065  1.0000
  Fe  Fe327     1.0  0.75546  0.29684  0.02724  1.0000
  S   S641      1.0  0.75971  0.27306  0.31720  1.0000
  C   C2410     1.0  0.89990  0.09463  0.01774  1.0000
  C   C2411     1.0  0.89001  0.18549  0.00929  1.0000
  H   H2880     1.0  0.76670  0.02724  0.08869  1.0000
  C   C2412     1.0  0.76659  0.04402  0.00705  1.0000
  H   H2881     1.0  0.75258  0.27318  0.27689  1.0000
  H   H2882     1.0  0.98510  0.15615  0.41991  1.0000
  H   H2883     1.0  0.89755  0.00129  0.45992  1.0000
  C   C2413     1.0  0.85650  0.00869  0.39257  1.0000
  C   C2414     1.0  0.98288  0.25607  0.04656  1.0000
  H   H2884     1.0  0.77545  0.18109  0.25842  1.0000
  H   H2885     1.0  0.81261  0.99199  0.26610  1.0000
  C   C2415     1.0  0.80728  0.00927  0.21487  1.0000
  H   H2886     1.0  0.76532  0.21982  0.25218  1.0000
  C   C2416     1.0  0.75201  0.32025  0.40992  1.0000
  H   H2887     1.0  0.98496  0.21189  0.16828  1.0000
  H   H2888     1.0  0.88498  0.02219  0.44178  1.0000
  C   C2417     1.0  0.76624  0.31796  0.39103  1.0000
  N   N161      1.0  0.98929  0.19795  0.14137  1.0000
  H   H2889     1.0  0.87680  0.04851  0.32681  1.0000
  H   H2890     1.0  0.76231  0.09539  0.14041  1.0000
  H   H2891     1.0  0.81107  0.99362  0.09490  1.0000
  C   C2418     1.0  0.74552  0.17392  0.03033  1.0000
  C   C2419     1.0  0.91900  0.25664  0.00540  1.0000
  H   H2892     1.0  0.74775  0.31542  0.17545  1.0000
  C   C2420     1.0  0.77932  0.31970  0.16445  1.0000
  H   H2893     1.0  0.92917  0.29448  0.11827  1.0000
  S   S642      1.0  0.97976  0.09888  0.42782  1.0000
  H   H2894     1.0  0.89428  0.29843  0.06659  1.0000
  C   C2421     1.0  0.74343  0.01286  0.11140  1.0000
  H   H2895     1.0  0.86889  0.23290  0.00234  1.0000
  H   H2896     1.0  0.97567  0.21913  0.11581  1.0000
  H   H2897     1.0  0.76898  0.30645  0.12808  1.0000
  H   H2898     1.0  0.86904  0.99998  0.21129  1.0000
  C   C2422     1.0  0.98898  0.24273  0.06457  1.0000
  C   C2423     1.0  0.89457  0.00594  0.44363  1.0000
  H   H2899     1.0  0.98580  0.12644  0.15649  1.0000
  H   H2900     1.0  0.99017  0.15900  0.09243  1.0000
  C   C2424     1.0  0.98917  0.17809  0.13564  1.0000
  H   H2901     1.0  0.95815  0.32348  0.02444  1.0000
  C   C2425     1.0  0.76488  0.18703  0.99580  1.0000
  H   H2902     1.0  0.91270  0.99698  0.40223  1.0000
  H   H2903     1.0  0.75314  0.05320  0.00073  1.0000
  C   C2426     1.0  0.75692  0.31579  0.11970  1.0000
  H   H2904     1.0  0.98707  0.12665  0.11937  1.0000
  C   C2427     1.0  0.80257  0.02347  0.02280  1.0000
  H   H2905     1.0  0.80560  0.32456  0.10903  1.0000
  Fe  Fe328     1.0  0.98652  0.99633  0.27922  1.0000
  C   C2428     1.0  0.94427  0.31809  0.03405  1.0000
  H   H2906     1.0  0.90678  0.00595  0.36641  1.0000
  C   C2429     1.0  0.87992  0.99828  0.41766  1.0000
  H   H2907     1.0  0.91006  0.00655  0.43302  1.0000
  H   H2908     1.0  0.94379  0.99696  0.26997  1.0000
  C   C2430     1.0  0.89358  0.00547  0.37955  1.0000
  H   H2909     1.0  0.74698  0.20700  0.34442  1.0000
  S   S643      1.0  0.87849  0.31812  0.13360  1.0000
  C   C2431     1.0  0.82224  0.32002  0.26835  1.0000
  H   H2910     1.0  0.74946  0.99583  0.02338  1.0000
  C   C2432     1.0  0.79341  0.01283  0.01331  1.0000
  C   C2433     1.0  0.98158  0.11930  0.48735  1.0000
  C   C2434     1.0  0.80674  0.99506  0.25189  1.0000
  H   H2911     1.0  0.90772  0.30978  0.99085  1.0000
  C   C2435     1.0  0.74642  0.10447  0.14204  1.0000
  C   C2436     1.0  0.80627  0.32055  0.25835  1.0000
  C   C2437     1.0  0.76055  0.31894  0.09785  1.0000
  H   H2912     1.0  0.82353  0.32026  0.08502  1.0000
  H   H2913     1.0  0.89497  0.31827  0.03093  1.0000
  C   C2438     1.0  0.92657  0.32211  0.02559  1.0000
  H   H2914     1.0  0.98870  0.02137  0.45768  1.0000
  H   H2915     1.0  0.81681  0.01577  0.02852  1.0000
  H   H2916     1.0  0.83248  0.32460  0.10618  1.0000
  S   S644      1.0  0.77425  0.11444  0.98931  1.0000
  S   S645      1.0  0.76717  0.32482  0.02840  1.0000
  S   S646      1.0  0.81912  0.32510  0.14948  1.0000
  C   C2439     1.0  0.76070  0.99203  0.00892  1.0000
  S   S647      1.0  0.99231  0.00576  0.30651  1.0000
  H   H2917     1.0  0.95137  0.00071  0.51086  1.0000
  C   C2440     1.0  0.75603  0.09630  0.96816  1.0000
  C   C2441     1.0  0.77949  0.27240  0.95396  1.0000
  H   H2918     1.0  0.96147  0.04944  0.53607  1.0000
  C   C2442     1.0  0.75560  0.08234  0.95584  1.0000
  C   C2443     1.0  0.92033  0.07927  0.51486  1.0000
  C   C2444     1.0  0.77381  0.06825  0.94914  1.0000
  C   C2445     1.0  0.77452  0.09608  0.97426  1.0000
  H   H2919     1.0  0.92861  0.09170  0.50459  1.0000
  H   H2920     1.0  0.91607  0.08636  0.59785  1.0000
  H   H2921     1.0  0.95364  0.04664  0.51348  1.0000
  C   C2446     1.0  0.79625  0.18191  0.96802  1.0000
  H   H2922     1.0  0.88735  0.26710  0.95036  1.0000
  C   C2447     1.0  0.95279  0.05796  0.52336  1.0000
  H   H2923     1.0  0.77148  0.16609  0.97345  1.0000
  C   C2448     1.0  0.90653  0.02972  0.49549  1.0000
  H   H2924     1.0  0.85807  0.23785  0.97985  1.0000
  H   H2925     1.0  0.87916  0.30206  0.98013  1.0000
  N   N162      1.0  0.93086  0.06696  0.53233  1.0000
  H   H2926     1.0  0.94795  0.12517  0.54486  1.0000
  H   H2927     1.0  0.91947  0.06914  0.50443  1.0000
  H   H2928     1.0  0.92799  0.03851  0.55572  1.0000
  C   C2449     1.0  0.98466  0.06263  0.56635  1.0000
  H   H2929     1.0  0.80695  0.08129  0.97256  1.0000
  C   C2450     1.0  0.74535  0.27390  0.97646  1.0000
  H   H2930     1.0  0.92015  0.03927  0.53219  1.0000
  S   S648      1.0  0.95893  0.03444  0.58053  1.0000
  C   C2451     1.0  0.93059  0.08084  0.54640  1.0000
  H   H2931     1.0  0.91484  0.06338  0.57602  1.0000
  H   H2932     1.0  0.77533  0.99877  0.96607  1.0000
  C   C2452     1.0  0.89297  0.01627  0.50688  1.0000
  H   H2933     1.0  0.97220  0.07275  0.55902  1.0000
  S   S649      1.0  0.98217  0.12982  0.50879  1.0000
  H   H2934     1.0  0.90404  0.08701  0.52094  1.0000
  C   C2453     1.0  0.87175  0.27282  0.95981  1.0000
  H   H2935     1.0  0.89283  0.17026  0.98375  1.0000
  S   S650      1.0  0.77425  0.05090  0.93295  1.0000
  H   H2936     1.0  0.85970  0.26884  0.95372  1.0000
  C   C2454     1.0  0.92237  0.09004  0.58113  1.0000
  C   C2455     1.0  0.77663  0.17758  0.97857  1.0000
  Fe  Fe329     1.0  0.96234  0.00065  0.57944  1.0000
  S   S651      1.0  0.74715  0.00896  0.92799  1.0000
  H   H2937     1.0  0.88592  0.23238  0.97679  1.0000
  H   H2938     1.0  0.90345  0.05485  0.55003  1.0000
  C   C2456     1.0  0.75768  0.30676  0.95920  1.0000
  C   C2457     1.0  0.93510  0.00500  0.50970  1.0000
  H   H2939     1.0  0.80529  0.17386  0.95550  1.0000
  C   C2458     1.0  0.93168  0.10745  0.57271  1.0000
  H   H2940     1.0  0.93249  0.11738  0.58277  1.0000
  C   C2459     1.0  0.94036  0.11183  0.55136  1.0000
  H   H2941     1.0  0.76645  0.24521  0.97046  1.0000
  C   C2460     1.0  0.80470  0.19570  0.97417  1.0000
  C   C2461     1.0  0.93990  0.09873  0.53841  1.0000
  C   C2462     1.0  0.92769  0.02391  0.49663  1.0000
  C   C2463     1.0  0.98224  0.04272  0.57826  1.0000
  C   C2464     1.0  0.92013  0.04918  0.54313  1.0000
  C   C2465     1.0  0.90051  0.99704  0.51932  1.0000
  C   C2466     1.0  0.79226  0.06791  0.95539  1.0000
  H   H2942     1.0  0.80642  0.05709  0.95031  1.0000
  H   H2943     1.0  0.87659  0.02075  0.50612  1.0000
  C   C2467     1.0  0.76397  0.26221  0.96721  1.0000
  C   C2468     1.0  0.92170  0.07692  0.56826  1.0000
  C   C2469     1.0  0.79260  0.08164  0.96801  1.0000
  H   H2944     1.0  0.94744  0.10242  0.52215  1.0000
  H   H2945     1.0  0.79404  0.26320  0.94694  1.0000
  N   N163      1.0  0.87072  0.26345  0.98247  1.0000
  H   H2946     1.0  0.96139  0.07023  0.51324  1.0000
  H   H2947     1.0  0.82025  0.19834  0.96648  1.0000
  H   H2948     1.0  0.86894  0.29028  0.95655  1.0000
  C   C2470     1.0  0.78198  0.00544  0.97588  1.0000
  C   C2471     1.0  0.87109  0.24067  0.98543  1.0000
  H   H2949     1.0  0.78937  0.30114  0.93992  1.0000
  H   H2950     1.0  0.78795  0.01939  0.96555  1.0000
  C   C2472     1.0  0.77653  0.29434  0.94999  1.0000
  C   C2473     1.0  0.89005  0.28894  0.98702  1.0000
  H   H2951     1.0  0.75029  0.03813  0.97487  1.0000
  Fe  Fe330     1.0  0.74550  0.04308  0.92724  1.0000
  H   H2952     1.0  0.79572  0.99357  0.98032  1.0000
  H   H2953     1.0  0.94819  0.12927  0.49061  1.0000
  S   S652      1.0  0.97379  0.99233  0.54769  1.0000
  C   C2474     1.0  0.74708  0.02389  0.98686  1.0000
  H   H2954     1.0  0.99207  0.31827  0.88697  1.0000
  C   C2475     1.0  0.88491  0.41482  0.15433  1.0000
  C   C2476     1.0  0.75924  0.56159  0.45651  1.0000
  H   H2955     1.0  0.92600  0.54050  0.04737  1.0000
  C   C2477     1.0  0.87138  0.35977  0.06726  1.0000
  N   N164      1.0  0.94083  0.39234  0.03817  1.0000
  H   H2956     1.0  0.98915  0.33026  0.05440  1.0000
  C   C2478     1.0  0.98697  0.55264  0.05736  1.0000
  H   H2957     1.0  0.77670  0.38706  0.36606  1.0000
  H   H2958     1.0  0.92618  0.37414  0.06726  1.0000
  C   C2479     1.0  0.74589  0.36660  0.31460  1.0000
  H   H2959     1.0  0.95281  0.56883  0.99634  1.0000
  H   H2960     1.0  0.75625  0.47311  0.47552  1.0000
  S   S653      1.0  0.85535  0.35289  0.16285  1.0000
  H   H2961     1.0  0.79234  0.37430  0.07237  1.0000
  Fe  Fe331     1.0  0.88578  0.34607  0.14035  1.0000
  S   S654      1.0  0.89615  0.37029  0.11211  1.0000
  C   C2480     1.0  0.93545  0.57296  0.99977  1.0000
  S   S655      1.0  0.75049  0.34119  0.42186  1.0000
  C   C2481     1.0  0.91092  0.52282  0.99115  1.0000
  H   H2962     1.0  0.94523  0.41636  0.00994  1.0000
  Fe  Fe332     1.0  0.96619  0.44548  0.09089  1.0000
  S   S656      1.0  0.97840  0.43404  0.06080  1.0000
  S   S657      1.0  0.95976  0.42108  0.12023  1.0000
  Fe  Fe333     1.0  0.96674  0.49072  0.06937  1.0000
  H   H2963     1.0  0.85327  0.32554  0.26422  1.0000
  S   S658      1.0  0.96059  0.52496  0.06997  1.0000
  Fe  Fe334     1.0  0.95566  0.46180  0.04797  1.0000
  S   S659      1.0  0.93553  0.45803  0.02799  1.0000
  C   C2482     1.0  0.83425  0.35817  0.07390  1.0000
  H   H2964     1.0  0.89586  0.56962  0.04239  1.0000
  S   S660      1.0  0.94162  0.47184  0.07869  1.0000
  H   H2965     1.0  0.90156  0.41627  0.15117  1.0000
  C   C2483     1.0  0.85314  0.33954  0.00550  1.0000
  H   H2966     1.0  0.76725  0.36460  0.38353  1.0000
  C   C2484     1.0  0.89732  0.50912  0.00161  1.0000
  C   C2485     1.0  0.93444  0.58775  0.06836  1.0000
  C   C2486     1.0  0.82695  0.38642  0.20550  1.0000
  C   C2487     1.0  0.89215  0.38167  0.17775  1.0000
  H   H2967     1.0  0.92673  0.33069  0.00955  1.0000
  H   H2968     1.0  0.88554  0.35715  0.07317  1.0000
  S   S661      1.0  0.99031  0.46525  0.08441  1.0000
  H   H2969     1.0  0.95242  0.59863  0.00797  1.0000
  C   C2488     1.0  0.81455  0.39396  0.19047  1.0000
  C   C2489     1.0  0.84307  0.40802  0.16567  1.0000
  C   C2490     1.0  0.87136  0.36808  0.04606  1.0000
  C   C2491     1.0  0.76731  0.57844  0.45807  1.0000
  S   S662      1.0  0.78876  0.59792  0.47459  1.0000
  C   C2492     1.0  0.85307  0.37179  0.03862  1.0000
  N   N165      1.0  0.87824  0.40274  0.17583  1.0000
  H   H2970     1.0  0.96006  0.35844  0.06412  1.0000
  H   H2971     1.0  0.75180  0.56307  0.44360  1.0000
  C   C2493     1.0  0.77750  0.57672  0.47444  1.0000
  H   H2972     1.0  0.78278  0.35277  0.09075  1.0000
  C   C2494     1.0  0.82254  0.40483  0.17065  1.0000
  H   H2973     1.0  0.87917  0.40449  0.20729  1.0000
  C   C2495     1.0  0.93292  0.54561  0.03053  1.0000
  C   C2496     1.0  0.84419  0.33103  0.23451  1.0000
  H   H2974     1.0  0.82207  0.36015  0.11536  1.0000
  C   C2497     1.0  0.93223  0.51623  0.99150  1.0000
  H   H2975     1.0  0.91902  0.37220  0.04390  1.0000
  C   C2498     1.0  0.83476  0.36682  0.05219  1.0000
  H   H2976     1.0  0.96415  0.38729  0.99790  1.0000
  H   H2977     1.0  0.76993  0.34538  0.29810  1.0000
  C   C2499     1.0  0.96878  0.37515  0.01080  1.0000
  H   H2978     1.0  0.79878  0.39118  0.19417  1.0000
  N   N166      1.0  0.92673  0.56856  0.02273  1.0000
  H   H2979     1.0  0.77714  0.32834  0.38437  1.0000
  C   C2500     1.0  0.81947  0.32951  0.09758  1.0000
  C   C2501     1.0  0.95863  0.37549  0.03202  1.0000
  H   H2980     1.0  0.82084  0.37765  0.22084  1.0000
  H   H2981     1.0  0.84832  0.41625  0.14992  1.0000
  C   C2502     1.0  0.93317  0.40749  0.02005  1.0000
  H   H2982     1.0  0.95264  0.61026  0.06713  1.0000
  H   H2983     1.0  0.83065  0.33527  0.20758  1.0000
  C   C2503     1.0  0.76166  0.54260  0.47111  1.0000
  Fe  Fe335     1.0  0.87225  0.33132  0.18733  1.0000
  C   C2504     1.0  0.77159  0.54096  0.48766  1.0000
  C   C2505     1.0  0.79672  0.35723  0.07903  1.0000
  H   H2984     1.0  0.79935  0.34818  0.06651  1.0000
  C   C2506     1.0  0.77246  0.35920  0.34254  1.0000
  H   H2985     1.0  0.89824  0.59148  0.02064  1.0000
  H   H2986     1.0  0.79325  0.33827  0.32308  1.0000
  C   C2507     1.0  0.95336  0.60589  0.03637  1.0000
  S   S663      1.0  0.88944  0.35353  0.99447  1.0000
  H   H2987     1.0  0.91803  0.56586  0.06552  1.0000
  C   C2508     1.0  0.96661  0.35891  0.04761  1.0000
  H   H2988     1.0  0.79544  0.35989  0.11767  1.0000
  H   H2989     1.0  0.88551  0.37158  0.03520  1.0000
  C   C2509     1.0  0.92775  0.57702  0.05682  1.0000
  C   C2510     1.0  0.80929  0.32624  0.23644  1.0000
  H   H2990     1.0  0.92998  0.58459  0.08535  1.0000
  H   H2991     1.0  0.91965  0.41986  0.02515  1.0000
  C   C2511     1.0  0.85314  0.35487  0.08101  1.0000
  H   H2992     1.0  0.89000  0.37287  0.16678  1.0000
  C   C2512     1.0  0.76260  0.38134  0.37607  1.0000
  C   C2513     1.0  0.92299  0.38304  0.05165  1.0000
  H   H2993     1.0  0.99025  0.52831  0.01714  1.0000
  C   C2514     1.0  0.93391  0.58022  0.03460  1.0000
  C   C2515     1.0  0.80964  0.36397  0.10613  1.0000
  C   C2516     1.0  0.91419  0.38387  0.11450  1.0000
  C   C2517     1.0  0.92601  0.37621  0.13016  1.0000
  C   C2518     1.0  0.93995  0.38770  0.13197  1.0000
  C   C2519     1.0  0.94233  0.40673  0.11793  1.0000
  C   C2520     1.0  0.93063  0.41425  0.10217  1.0000
  C   C2521     1.0  0.91652  0.40291  0.10055  1.0000
  H   H2994     1.0  0.92458  0.36137  0.14078  1.0000
  H   H2995     1.0  0.94910  0.38174  0.14409  1.0000
  H   H2996     1.0  0.93224  0.42899  0.09137  1.0000
  H   H2997     1.0  0.90718  0.40909  0.08862  1.0000
  C   C2522     1.0  0.88143  0.41377  0.19093  1.0000
  C   C2523     1.0  0.85621  0.40035  0.18063  1.0000
  N   N167      1.0  0.74618  0.38447  0.36387  1.0000
  H   H2998     1.0  0.88377  0.40690  0.14211  1.0000
  H   H2999     1.0  0.81285  0.41056  0.15896  1.0000
  H   H3000     1.0  0.88912  0.37187  0.19383  1.0000
  H   H3001     1.0  0.95628  0.49138  0.00300  1.0000
  H   H3002     1.0  0.92760  0.53640  0.02207  1.0000
  H   H3003     1.0  0.87034  0.42918  0.19087  1.0000
  H   H3004     1.0  0.90893  0.38271  0.17407  1.0000
  C   C2524     1.0  0.76558  0.40503  0.47231  1.0000
  C   C2525     1.0  0.82836  0.33112  0.22451  1.0000
  C   C2526     1.0  0.94688  0.59512  0.02469  1.0000
  H   H3005     1.0  0.95240  0.39452  0.06462  1.0000
  C   C2527     1.0  0.94723  0.60216  0.05815  1.0000
  N   N168      1.0  0.81529  0.35241  0.08874  1.0000
  C   C2528     1.0  0.94736  0.40441  0.05009  1.0000
  H   H3006     1.0  0.90876  0.39534  0.05507  1.0000
  H   H3007     1.0  0.89770  0.56625  0.01644  1.0000
  H   H3008     1.0  0.95016  0.54061  0.02876  1.0000
  C   C2529     1.0  0.77832  0.34908  0.32552  1.0000
  C   C2530     1.0  0.84741  0.38960  0.20074  1.0000
  H   H3009     1.0  0.78352  0.35562  0.35265  1.0000
  H   H3010     1.0  0.75695  0.38986  0.38932  1.0000
  C   C2531     1.0  0.90504  0.48890  0.01233  1.0000
  C   C2532     1.0  0.92624  0.48262  0.01318  1.0000
  C   C2533     1.0  0.93984  0.49627  0.00268  1.0000
  H   H3011     1.0  0.87546  0.43109  0.15190  1.0000
  H   H3012     1.0  0.79700  0.32659  0.22864  1.0000
  H   H3013     1.0  0.89449  0.47834  0.02041  1.0000
  C   C2534     1.0  0.90364  0.57424  0.02572  1.0000
  H   H3014     1.0  0.85394  0.34844  0.09733  1.0000
  H   H3015     1.0  0.92797  0.39961  0.01018  1.0000
  H   H3016     1.0  0.80658  0.38126  0.10010  1.0000
  H   H3017     1.0  0.97513  0.56309  0.04940  1.0000
  C   C2535     1.0  0.84105  0.32565  0.25645  1.0000
  C   C2536     1.0  0.98333  0.34276  0.04222  1.0000
  H   H3018     1.0  0.85648  0.38302  0.21286  1.0000
  H   H3019     1.0  0.93443  0.41734  0.05500  1.0000
  H   H3020     1.0  0.85491  0.33734  0.02148  1.0000
  H   H3021     1.0  0.96053  0.41185  0.04025  1.0000
  H   H3022     1.0  0.82132  0.36973  0.04519  1.0000
  S   S664      1.0  0.97843  0.48317  0.03736  1.0000
  H   H3023     1.0  0.85325  0.37814  0.02203  1.0000
  H   H3024     1.0  0.89759  0.41678  0.18709  1.0000
  S   S665      1.0  0.75362  0.52019  0.46869  1.0000
  C   C2537     1.0  0.76515  0.35293  0.31148  1.0000
  C   C2538     1.0  0.74487  0.33115  0.08715  1.0000
  S   S666      1.0  0.86809  0.33710  0.21960  1.0000
  C   C2539     1.0  0.98536  0.35880  0.00557  1.0000
  H   H3025     1.0  0.88084  0.51411  0.00142  1.0000
  H   H3026     1.0  0.75278  0.41354  0.34368  1.0000
  S   S667      1.0  0.90350  0.32735  0.16533  1.0000
  H   H3027     1.0  0.93010  0.56363  0.99141  1.0000
  H   H3028     1.0  0.77944  0.39273  0.47060  1.0000
  H   H3029     1.0  0.82363  0.32998  0.01468  1.0000
  C   C2540     1.0  0.98372  0.53282  0.06890  1.0000
  H   H3030     1.0  0.96348  0.61700  0.02848  1.0000
  C   C2541     1.0  0.83561  0.33489  0.00166  1.0000
  H   H3031     1.0  0.74764  0.33383  0.07024  1.0000
  H   H3032     1.0  0.93029  0.58974  0.99247  1.0000
  C   C2542     1.0  0.74965  0.40627  0.46208  1.0000
  H   H3033     1.0  0.76597  0.59280  0.44628  1.0000
  C   C2543     1.0  0.76371  0.41957  0.48467  1.0000
  H   H3034     1.0  0.77539  0.33343  0.15254  1.0000
  C   C2544     1.0  0.75294  0.37341  0.34608  1.0000
  H   H3035     1.0  0.75104  0.39492  0.45261  1.0000
  C   C2545     1.0  0.74556  0.43560  0.48750  1.0000
  S   S668      1.0  0.95940  0.56907  0.89451  1.0000
  H   H3036     1.0  0.75743  0.62336  0.72869  1.0000
  H   H3037     1.0  0.83133  0.62397  0.64464  1.0000
  S   S669      1.0  0.97146  0.50758  0.90541  1.0000
  S   S670      1.0  0.86412  0.63059  0.50731  1.0000
  C   C2546     1.0  0.86647  0.61883  0.72374  1.0000
  Fe  Fe336     1.0  0.93507  0.40351  0.95533  1.0000
  S   S671      1.0  0.90652  0.39952  0.94690  1.0000
  Fe  Fe337     1.0  0.95889  0.35953  0.94992  1.0000
  S   S672      1.0  0.93251  0.35162  0.94097  1.0000
  H   H3038     1.0  0.76411  0.51636  0.78531  1.0000
  Fe  Fe338     1.0  0.92954  0.38453  0.92164  1.0000
  S   S673      1.0  0.92607  0.39284  0.88805  1.0000
  Fe  Fe339     1.0  0.91221  0.36725  0.96702  1.0000
  H   H3039     1.0  0.87106  0.53685  0.96042  1.0000
  S   S674      1.0  0.95782  0.39108  0.92857  1.0000
  Fe  Fe340     1.0  0.83246  0.57556  0.81879  1.0000
  S   S675      1.0  0.84304  0.58541  0.78397  1.0000
  S   S676      1.0  0.85514  0.55585  0.83941  1.0000
  Fe  Fe341     1.0  0.98123  0.50213  0.77422  1.0000
  S   S677      1.0  0.81564  0.56196  0.75382  1.0000
  Fe  Fe342     1.0  0.82253  0.61654  0.78816  1.0000
  S   S678      1.0  0.83312  0.64701  0.77273  1.0000
  H   H3040     1.0  0.85897  0.59926  0.83270  1.0000
  H   H3041     1.0  0.90429  0.60056  0.70723  1.0000
  H   H3042     1.0  0.92822  0.49139  0.89326  1.0000
  H   H3043     1.0  0.95558  0.63642  0.82228  1.0000
  H   H3044     1.0  0.82785  0.65464  0.65631  1.0000
  S   S679      1.0  0.80774  0.63732  0.49418  1.0000
  H   H3045     1.0  0.75288  0.59860  0.71117  1.0000
  S   S680      1.0  0.79892  0.57892  0.57950  1.0000
  C   C2547     1.0  0.75136  0.58702  0.72631  1.0000
  C   C2548     1.0  0.86867  0.53297  0.94661  1.0000
  H   H3046     1.0  0.86919  0.65089  0.73783  1.0000
  Fe  Fe343     1.0  0.85032  0.57419  0.67599  1.0000
  S   S681      1.0  0.85860  0.54023  0.67317  1.0000
  S   S682      1.0  0.82001  0.59674  0.68314  1.0000
  Fe  Fe344     1.0  0.89489  0.57974  0.66212  1.0000
  S   S683      1.0  0.90767  0.54691  0.65725  1.0000
  S   S684      1.0  0.91249  0.60445  0.65932  1.0000
  Fe  Fe345     1.0  0.87984  0.55158  0.64305  1.0000
  S   S685      1.0  0.88301  0.54269  0.61234  1.0000
  Fe  Fe346     1.0  0.88584  0.53821  0.68775  1.0000
  S   S686      1.0  0.89917  0.51077  0.71100  1.0000
  S   S687      1.0  0.86947  0.58555  0.64463  1.0000
  S   S688      1.0  0.87519  0.57092  0.69375  1.0000
  H   H3047     1.0  0.82562  0.64944  0.57009  1.0000
  S   S689      1.0  0.90682  0.59921  0.87695  1.0000
  H   H3048     1.0  0.98664  0.65687  0.91895  1.0000
  H   H3049     1.0  0.78056  0.53038  0.71800  1.0000
  H   H3050     1.0  0.78772  0.53863  0.78703  1.0000
  Fe  Fe347     1.0  0.95934  0.57780  0.92456  1.0000
  S   S690      1.0  0.93422  0.43197  0.96751  1.0000
  H   H3051     1.0  0.74469  0.44911  0.53344  1.0000
  C   C2549     1.0  0.83931  0.64752  0.61652  1.0000
  Fe  Fe348     1.0  0.97061  0.48402  0.82060  1.0000
  H   H3052     1.0  0.76454  0.43044  0.52132  1.0000
  N   N169      1.0  0.74355  0.45038  0.50127  1.0000
  H   H3053     1.0  0.87588  0.65033  0.64226  1.0000
  Fe  Fe349     1.0  0.78753  0.59670  0.81692  1.0000
  Fe  Fe350     1.0  0.92229  0.55802  0.94792  1.0000
  H   H3054     1.0  0.97257  0.61148  0.82666  1.0000
  C   C2550     1.0  0.97254  0.61021  0.95809  1.0000
  C   C2551     1.0  0.79914  0.59075  0.67642  1.0000
  C   C2552     1.0  0.79811  0.56993  0.67766  1.0000
  C   C2553     1.0  0.78053  0.56545  0.67358  1.0000
  C   C2554     1.0  0.76457  0.58184  0.66711  1.0000
  C   C2555     1.0  0.76603  0.60268  0.66505  1.0000
  C   C2556     1.0  0.78307  0.60711  0.67016  1.0000
  H   H3055     1.0  0.81055  0.55725  0.68239  1.0000
  H   H3056     1.0  0.77944  0.54933  0.67531  1.0000
  C   C2557     1.0  0.82072  0.61957  0.61930  1.0000
  H   H3057     1.0  0.78392  0.62323  0.66905  1.0000
  H   H3058     1.0  0.94318  0.52820  0.84479  1.0000
  H   H3059     1.0  0.92820  0.59381  0.50146  1.0000
  H   H3060     1.0  0.79543  0.53761  0.58858  1.0000
  C   C2558     1.0  0.82259  0.57005  0.58814  1.0000
  C   C2559     1.0  0.84110  0.56339  0.57442  1.0000
  C   C2560     1.0  0.85969  0.55497  0.58190  1.0000
  C   C2561     1.0  0.85991  0.55386  0.60291  1.0000
  C   C2562     1.0  0.84154  0.56122  0.61643  1.0000
  C   C2563     1.0  0.82283  0.56893  0.60914  1.0000
  H   H3061     1.0  0.84094  0.56409  0.55822  1.0000
  H   H3062     1.0  0.87386  0.54919  0.57143  1.0000
  H   H3063     1.0  0.84152  0.56026  0.63272  1.0000
  H   H3064     1.0  0.80854  0.57402  0.61983  1.0000
  H   H3065     1.0  0.94084  0.45217  0.83046  1.0000
  H   H3066     1.0  0.97128  0.60466  0.79265  1.0000
  H   H3067     1.0  0.85278  0.62325  0.73627  1.0000
  C   C2564     1.0  0.93989  0.61185  0.59760  1.0000
  C   C2565     1.0  0.93001  0.60305  0.61787  1.0000
  C   C2566     1.0  0.92330  0.61503  0.63349  1.0000
  C   C2567     1.0  0.92580  0.63578  0.62877  1.0000
  C   C2568     1.0  0.94237  0.63275  0.59299  1.0000
  H   H3068     1.0  0.92799  0.58696  0.62148  1.0000
  H   H3069     1.0  0.92036  0.64500  0.64083  1.0000
  C   C2569     1.0  0.74992  0.43814  0.60664  1.0000
  H   H3070     1.0  0.96171  0.54489  0.86111  1.0000
  H   H3071     1.0  0.74247  0.65001  0.85009  1.0000
  C   C2570     1.0  0.94519  0.45257  0.95017  1.0000
  C   C2571     1.0  0.78630  0.53677  0.77198  1.0000
  H   H3072     1.0  0.87984  0.61586  0.84700  1.0000
  H   H3073     1.0  0.80555  0.55106  0.71986  1.0000
  H   H3074     1.0  0.86316  0.62849  0.70841  1.0000
  H   H3075     1.0  0.76635  0.32966  0.98239  1.0000
  S   S691      1.0  0.81128  0.62837  0.54351  1.0000
  C   C2572     1.0  0.94939  0.52257  0.73851  1.0000
  H   H3076     1.0  0.92234  0.50520  0.91400  1.0000
  H   H3077     1.0  0.87301  0.62128  0.59333  1.0000
  H   H3078     1.0  0.87473  0.48451  0.89782  1.0000
  H   H3079     1.0  0.94757  0.56803  0.65281  1.0000
  C   C2573     1.0  0.86595  0.34979  0.96812  1.0000
  C   C2574     1.0  0.84859  0.34457  0.96426  1.0000
  H   H3080     1.0  0.96216  0.61880  0.70682  1.0000
  S   S692      1.0  0.95371  0.64456  0.56775  1.0000
  C   C2575     1.0  0.86312  0.52365  0.91045  1.0000
  H   H3081     1.0  0.87757  0.35576  0.95515  1.0000
  S   S693      1.0  0.98187  0.51339  0.80268  1.0000
  H   H3082     1.0  0.98083  0.55303  0.70821  1.0000
  C   C2576     1.0  0.93908  0.61646  0.51129  1.0000
  C   C2577     1.0  0.93135  0.41804  0.87727  1.0000
  C   C2578     1.0  0.93395  0.42604  0.85561  1.0000
  C   C2579     1.0  0.93917  0.44589  0.84714  1.0000
  C   C2580     1.0  0.94168  0.45771  0.86039  1.0000
  C   C2581     1.0  0.93940  0.44947  0.88191  1.0000
  C   C2582     1.0  0.93390  0.42992  0.89038  1.0000
  H   H3083     1.0  0.93197  0.41689  0.84540  1.0000
  H   H3084     1.0  0.89992  0.64659  0.50638  1.0000
  H   H3085     1.0  0.94205  0.45809  0.89210  1.0000
  H   H3086     1.0  0.93154  0.42412  0.90712  1.0000
  C   C2583     1.0  0.88031  0.51145  0.91959  1.0000
  H   H3087     1.0  0.90680  0.47709  0.93843  1.0000
  S   S694      1.0  0.96753  0.47406  0.79239  1.0000
  Fe  Fe351     1.0  0.80283  0.59764  0.54657  1.0000
  S   S695      1.0  0.81214  0.32971  0.97649  1.0000
  C   C2584     1.0  0.89323  0.58689  0.86583  1.0000
  C   C2585     1.0  0.89473  0.56514  0.87096  1.0000
  C   C2586     1.0  0.88334  0.55578  0.86238  1.0000
  C   C2587     1.0  0.87003  0.56809  0.84894  1.0000
  C   C2588     1.0  0.86889  0.58978  0.84337  1.0000
  C   C2589     1.0  0.88064  0.59912  0.85159  1.0000
  H   H3088     1.0  0.90476  0.55554  0.88142  1.0000
  H   H3089     1.0  0.88474  0.53898  0.86626  1.0000
  H   H3090     1.0  0.88935  0.50281  0.87884  1.0000
  H   H3091     1.0  0.75792  0.37944  0.63929  1.0000
  C   C2590     1.0  0.96201  0.48626  0.92303  1.0000
  C   C2591     1.0  0.95012  0.48853  0.94292  1.0000
  C   C2592     1.0  0.94196  0.47162  0.95654  1.0000
  H   H3092     1.0  0.92578  0.58661  0.80364  1.0000
  C   C2593     1.0  0.78209  0.53207  0.73307  1.0000
  H   H3093     1.0  0.74880  0.35356  0.97431  1.0000
  N   N170      1.0  0.86416  0.51496  0.77338  1.0000
  C   C2594     1.0  0.86581  0.53363  0.75607  1.0000
  C   C2595     1.0  0.87107  0.49581  0.76427  1.0000
  C   C2596     1.0  0.84170  0.51638  0.78341  1.0000
  C   C2597     1.0  0.87761  0.51397  0.78805  1.0000
  C   C2598     1.0  0.89943  0.51265  0.78073  1.0000
  C   C2599     1.0  0.86982  0.51385  0.80980  1.0000
  C   C2600     1.0  0.91269  0.51103  0.79421  1.0000
  C   C2601     1.0  0.88327  0.51190  0.82325  1.0000
  C   C2602     1.0  0.90464  0.51048  0.81551  1.0000
  H   H3094     1.0  0.88189  0.53327  0.74672  1.0000
  H   H3095     1.0  0.85595  0.53472  0.74467  1.0000
  H   H3096     1.0  0.86061  0.54841  0.76217  1.0000
  H   H3097     1.0  0.88744  0.49415  0.75527  1.0000
  H   H3098     1.0  0.86142  0.49609  0.75296  1.0000
  H   H3099     1.0  0.87011  0.48137  0.77672  1.0000
  H   H3100     1.0  0.83514  0.53098  0.78977  1.0000
  H   H3101     1.0  0.83214  0.51701  0.77189  1.0000
  H   H3102     1.0  0.83905  0.50252  0.79618  1.0000
  H   H3103     1.0  0.90638  0.51284  0.76444  1.0000
  H   H3104     1.0  0.85339  0.51541  0.81683  1.0000
  H   H3105     1.0  0.92932  0.51006  0.78809  1.0000
  N   N171      1.0  0.88593  0.62187  0.72782  1.0000
  H   H3106     1.0  0.97279  0.43580  0.98044  1.0000
  S   S696      1.0  0.93616  0.64636  0.74999  1.0000
  H   H3107     1.0  0.76974  0.54120  0.64425  1.0000
  N   N172      1.0  0.75407  0.32998  0.95584  1.0000
  C   C2603     1.0  0.96383  0.59260  0.66914  1.0000
  C   C2604     1.0  0.95348  0.55373  0.66396  1.0000
  H   H3108     1.0  0.96244  0.58207  0.84959  1.0000
  H   H3109     1.0  0.96000  0.59629  0.65378  1.0000
  C   C2605     1.0  0.82714  0.64394  0.58636  1.0000
  H   H3110     1.0  0.96220  0.62923  0.98178  1.0000
  H   H3111     1.0  0.88130  0.63977  0.56989  1.0000
  H   H3112     1.0  0.82108  0.62994  0.87208  1.0000
  H   H3113     1.0  0.82427  0.64722  0.82400  1.0000
  S   S697      1.0  0.82598  0.58962  0.51776  1.0000
  H   H3114     1.0  0.75377  0.61539  0.65995  1.0000
  C   C2606     1.0  0.94734  0.50202  0.73997  1.0000
  H   H3115     1.0  0.91459  0.62195  0.83562  1.0000
  C   C2607     1.0  0.77457  0.50529  0.63191  1.0000
  N   N173      1.0  0.78591  0.52247  0.62076  1.0000
  H   H3116     1.0  0.75115  0.56711  0.81355  1.0000
  H   H3117     1.0  0.78341  0.48998  0.62788  1.0000
  H   H3118     1.0  0.77156  0.60314  0.74584  1.0000
  C   C2608     1.0  0.80664  0.51753  0.62649  1.0000
  C   C2609     1.0  0.80814  0.51573  0.64758  1.0000
  C   C2610     1.0  0.82576  0.51413  0.61170  1.0000
  C   C2611     1.0  0.82745  0.51126  0.65344  1.0000
  C   C2612     1.0  0.84501  0.50933  0.61780  1.0000
  C   C2613     1.0  0.84586  0.50810  0.63856  1.0000
  H   H3119     1.0  0.89735  0.64768  0.73136  1.0000
  H   H3120     1.0  0.84691  0.34639  0.94829  1.0000
  H   H3121     1.0  0.85352  0.63280  0.87074  1.0000
  H   H3122     1.0  0.88789  0.58403  0.59561  1.0000
  H   H3123     1.0  0.75977  0.64200  0.80505  1.0000
  H   H3124     1.0  0.81116  0.61848  0.59152  1.0000
  H   H3125     1.0  0.80301  0.65225  0.88073  1.0000
  S   S698      1.0  0.75423  0.60353  0.83401  1.0000
  H   H3126     1.0  0.77121  0.52945  0.59406  1.0000
  H   H3127     1.0  0.79435  0.51795  0.65971  1.0000
  H   H3128     1.0  0.82635  0.51561  0.59522  1.0000
  H   H3129     1.0  0.82814  0.51050  0.66956  1.0000
  H   H3130     1.0  0.85945  0.50745  0.60621  1.0000
  H   H3131     1.0  0.86085  0.50518  0.64297  1.0000
  C   C2614     1.0  0.92051  0.62521  0.54477  1.0000
  H   H3132     1.0  0.75731  0.47633  0.50074  1.0000
  C   C2615     1.0  0.74798  0.43859  0.52211  1.0000
  C   C2616     1.0  0.81898  0.62654  0.59837  1.0000
  C   C2617     1.0  0.86863  0.65377  0.87729  1.0000
  C   C2618     1.0  0.77038  0.52217  0.75153  1.0000
  C   C2619     1.0  0.88946  0.60838  0.74828  1.0000
  C   C2620     1.0  0.88572  0.61656  0.76674  1.0000
  C   C2621     1.0  0.89536  0.58618  0.75056  1.0000
  C   C2622     1.0  0.88755  0.60327  0.78617  1.0000
  C   C2623     1.0  0.89745  0.57305  0.77003  1.0000
  C   C2624     1.0  0.89318  0.58156  0.78787  1.0000
  S   S699      1.0  0.90099  0.54847  0.97862  1.0000
  H   H3133     1.0  0.89778  0.57873  0.73744  1.0000
  S   S700      1.0  0.93896  0.37243  0.97752  1.0000
  H   H3134     1.0  0.97380  0.33102  0.91978  1.0000
  H   H3135     1.0  0.77518  0.45544  0.48942  1.0000
  H   H3136     1.0  0.95601  0.63092  0.78835  1.0000
  Fe  Fe352     1.0  0.81413  0.57651  0.78112  1.0000
  Fe  Fe353     1.0  0.79902  0.60555  0.50125  1.0000
  H   H3137     1.0  0.88066  0.63317  0.76679  1.0000
  C   C2625     1.0  0.93225  0.49843  0.73100  1.0000
  H   H3138     1.0  0.88391  0.60994  0.80004  1.0000
  H   H3139     1.0  0.90175  0.55617  0.77140  1.0000
  H   H3140     1.0  0.89366  0.57129  0.80313  1.0000
  H   H3141     1.0  0.94650  0.63846  0.52519  1.0000
  H   H3142     1.0  0.91936  0.63448  0.55610  1.0000
  S   S701      1.0  0.94684  0.48308  0.85063  1.0000
  N   N174      1.0  0.89086  0.60738  0.56704  1.0000
  C   C2626     1.0  0.98161  0.53309  0.68052  1.0000
  C   C2627     1.0  0.77927  0.55798  0.48948  1.0000
  H   H3143     1.0  0.91060  0.46227  0.91909  1.0000
  H   H3144     1.0  0.76147  0.43389  0.61630  1.0000
  H   H3145     1.0  0.91359  0.61957  0.80995  1.0000
  H   H3146     1.0  0.94542  0.60265  0.58549  1.0000
  C   C2628     1.0  0.77348  0.54236  0.62701  1.0000
  H   H3147     1.0  0.77371  0.33531  0.92496  1.0000
  H   H3148     1.0  0.86726  0.60217  0.72340  1.0000
  C   C2629     1.0  0.93641  0.53947  0.72796  1.0000
  C   C2630     1.0  0.92141  0.53587  0.71896  1.0000
  H   H3149     1.0  0.77364  0.52634  0.49900  1.0000
  C   C2631     1.0  0.98406  0.37408  0.87782  1.0000
  S   S702      1.0  0.98974  0.33829  0.95300  1.0000
  H   H3150     1.0  0.94850  0.61758  0.84557  1.0000
  H   H3151     1.0  0.84139  0.55743  0.94388  1.0000
  C   C2632     1.0  0.79626  0.54374  0.73414  1.0000
  N   N175      1.0  0.94454  0.61091  0.81726  1.0000
  C   C2633     1.0  0.95506  0.61414  0.79485  1.0000
  C   C2634     1.0  0.92302  0.62373  0.81901  1.0000
  C   C2635     1.0  0.95582  0.61933  0.82853  1.0000
  C   C2636     1.0  0.94399  0.58833  0.82536  1.0000
  C   C2637     1.0  0.95423  0.57570  0.84170  1.0000
  C   C2638     1.0  0.93362  0.57808  0.81629  1.0000
  C   C2639     1.0  0.95390  0.55426  0.84853  1.0000
  C   C2640     1.0  0.93336  0.55665  0.82324  1.0000
  C   C2641     1.0  0.94344  0.54479  0.83937  1.0000
  H   H3152     1.0  0.97467  0.46539  0.90136  1.0000
  C   C2642     1.0  0.97541  0.61971  0.97327  1.0000
  S   S703      1.0  0.80521  0.56371  0.81563  1.0000
  H   H3153     1.0  0.93277  0.47344  0.97193  1.0000
  C   C2643     1.0  0.91919  0.51536  0.72055  1.0000
  C   C2644     1.0  0.89003  0.48953  0.89258  1.0000
  H   H3154     1.0  0.95480  0.62517  0.67128  1.0000
  H   H3155     1.0  0.86020  0.52120  0.89628  1.0000
  Fe  Fe354     1.0  0.92453  0.57949  0.90222  1.0000
  S   S704      1.0  0.75313  0.50655  0.75080  1.0000
  C   C2645     1.0  0.91589  0.50261  0.90148  1.0000
  H   H3156     1.0  0.79203  0.64786  0.79706  1.0000
  C   C2646     1.0  0.96568  0.46707  0.91682  1.0000
  C   C2647     1.0  0.95703  0.45031  0.93025  1.0000
  H   H3157     1.0  0.90165  0.47638  0.88644  1.0000
  H   H3158     1.0  0.75883  0.50842  0.62809  1.0000
  S   S705      1.0  0.92479  0.59106  0.93090  1.0000
  H   H3159     1.0  0.95440  0.54005  0.65703  1.0000
  C   C2648     1.0  0.90684  0.61127  0.54760  1.0000
  C   C2649     1.0  0.96484  0.60572  0.69911  1.0000
  H   H3160     1.0  0.90251  0.62741  0.69540  1.0000
  C   C2650     1.0  0.85201  0.54461  0.93726  1.0000
  N   N176      1.0  0.89607  0.49498  0.91000  1.0000
  H   H3161     1.0  0.91371  0.51770  0.88991  1.0000
  C   C2651     1.0  0.92614  0.60249  0.51365  1.0000
  C   C2652     1.0  0.84926  0.53998  0.91922  1.0000
  H   H3162     1.0  0.83647  0.54929  0.91176  1.0000
  S   S706      1.0  0.81375  0.60739  0.82326  1.0000
  H   H3163     1.0  0.94712  0.50331  0.94786  1.0000
  Fe  Fe355     1.0  0.83227  0.62213  0.51348  1.0000
  C   C2653     1.0  0.90361  0.61609  0.71060  1.0000
  Fe  Fe356     1.0  0.95403  0.53810  0.91458  1.0000
  H   H3164     1.0  0.75829  0.46844  0.59374  1.0000
  H   H3165     1.0  0.79500  0.51015  0.59235  1.0000
  C   C2654     1.0  0.77290  0.52420  0.77097  1.0000
  S   S707      1.0  0.79462  0.60871  0.78213  1.0000
  C   C2655     1.0  0.79799  0.54664  0.75351  1.0000
  C   C2656     1.0  0.89965  0.47532  0.92603  1.0000
  H   H3166     1.0  0.89580  0.50875  0.94535  1.0000
  C   C2657     1.0  0.88268  0.51670  0.93792  1.0000
  S   S708      1.0  0.77560  0.61148  0.53061  1.0000
  H   H3167     1.0  0.77141  0.39614  0.61765  1.0000
  H   H3168     1.0  0.95717  0.61249  0.95479  1.0000
  H   H3169     1.0  0.75136  0.62040  0.49490  1.0000
  H   H3170     1.0  0.90126  0.58828  0.53279  1.0000
  S   S709      1.0  0.91923  0.54762  0.91998  1.0000
  S   S710      1.0  0.95673  0.54593  0.94387  1.0000
  Fe  Fe357     1.0  0.78632  0.64177  0.52476  1.0000
  C   C2658     1.0  0.87082  0.60635  0.56239  1.0000
  H   H3171     1.0  0.87216  0.59319  0.55468  1.0000
  C   C2659     1.0  0.93515  0.64466  0.60853  1.0000
  H   H3172     1.0  0.78197  0.55548  0.61994  1.0000
  H   H3173     1.0  0.94131  0.55282  0.67865  1.0000
  H   H3174     1.0  0.78719  0.55637  0.50207  1.0000
  H   H3175     1.0  0.91422  0.58677  0.58345  1.0000
  H   H3176     1.0  0.91495  0.50899  0.82602  1.0000
  C   C2660     1.0  0.81115  0.64535  0.86668  1.0000
  H   H3177     1.0  0.91133  0.54901  0.71110  1.0000
  C   C2661     1.0  0.96075  0.60933  0.67908  1.0000
  H   H3178     1.0  0.99193  0.51027  0.94166  1.0000
  C   C2662     1.0  0.86682  0.64269  0.63572  1.0000
  C   C2663     1.0  0.88368  0.64463  0.72712  1.0000
  S   S711      1.0  0.93098  0.65760  0.69269  1.0000
  C   C2664     1.0  0.85334  0.64916  0.86956  1.0000
  C   C2665     1.0  0.83702  0.65447  0.59521  1.0000
  H   H3179     1.0  0.89946  0.62384  0.58631  1.0000
  C   C2666     1.0  0.83489  0.64950  0.83308  1.0000
  H   H3180     1.0  0.97454  0.40214  0.84389  1.0000
  H   H3181     1.0  0.90073  0.57364  0.57257  1.0000
  H   H3182     1.0  0.92298  0.64080  0.81299  1.0000
  C   C2667     1.0  0.99037  0.41124  0.96402  1.0000
  H   H3183     1.0  0.93055  0.48252  0.73233  1.0000
  H   H3184     1.0  0.84431  0.63383  0.83843  1.0000
  H   H3185     1.0  0.87697  0.51192  0.83976  1.0000
  H   H3186     1.0  0.94277  0.52679  0.98409  1.0000
  H   H3187     1.0  0.98242  0.37697  0.83720  1.0000
  N   N177      1.0  0.97383  0.55413  0.66819  1.0000
  C   C2668     1.0  0.99065  0.32701  0.91614  1.0000
  H   H3188     1.0  0.97742  0.36119  0.87609  1.0000
  H   H3189     1.0  0.86457  0.62110  0.55202  1.0000
  H   H3190     1.0  0.95950  0.43573  0.92512  1.0000
  C   C2669     1.0  0.78702  0.52494  0.59794  1.0000
  C   C2670     1.0  0.83342  0.33709  0.98108  1.0000
  C   C2671     1.0  0.91045  0.59967  0.53163  1.0000
  H   H3191     1.0  0.95744  0.48888  0.74792  1.0000
  C   C2672     1.0  0.83065  0.62989  0.62828  1.0000
  C   C2673     1.0  0.93634  0.62769  0.52688  1.0000
  S   S712      1.0  0.96850  0.52766  0.74894  1.0000
  C   C2674     1.0  0.75691  0.39584  0.63002  1.0000
  H   H3192     1.0  0.93787  0.55540  0.72686  1.0000
  H   H3193     1.0  0.79917  0.64166  0.86021  1.0000
  C   C2675     1.0  0.89878  0.58709  0.58021  1.0000
  C   C2676     1.0  0.98980  0.59870  0.94649  1.0000
  H   H3194     1.0  0.85866  0.60373  0.57693  1.0000
  H   H3195     1.0  0.92533  0.54913  0.81611  1.0000
  S   S713      1.0  0.98775  0.58891  0.92543  1.0000
  H   H3196     1.0  0.97050  0.52922  0.69561  1.0000
  H   H3197     1.0  0.97054  0.38686  0.88154  1.0000
  C   C2677     1.0  0.97535  0.56842  0.69936  1.0000
  H   H3198     1.0  0.78625  0.33348  0.94640  1.0000
  H   H3199     1.0  0.76731  0.57781  0.72750  1.0000
  H   H3200     1.0  0.88477  0.46994  0.93387  1.0000
  C   C2678     1.0  0.88599  0.62390  0.57962  1.0000
  S   S714      1.0  0.75470  0.51510  0.68910  1.0000
  H   H3201     1.0  0.97774  0.41972  0.86687  1.0000
  H   H3202     1.0  0.95121  0.61862  0.49734  1.0000
  H   H3203     1.0  0.75740  0.59239  0.78119  1.0000
  H   H3204     1.0  0.94667  0.60979  0.78490  1.0000
  C   C2679     1.0  0.75183  0.33618  0.97606  1.0000
  H   H3205     1.0  0.91880  0.61596  0.71426  1.0000
  H   H3206     1.0  0.77192  0.50314  0.64922  1.0000
  H   H3207     1.0  0.86094  0.63049  0.64897  1.0000
  C   C2680     1.0  0.86653  0.65214  0.51670  1.0000
  C   C2681     1.0  0.97115  0.57159  0.67898  1.0000
  H   H3208     1.0  0.81419  0.60615  0.62875  1.0000
  H   H3209     1.0  0.75821  0.54729  0.62197  1.0000
  C   C2682     1.0  0.75876  0.46431  0.49141  1.0000
  H   H3210     1.0  0.98320  0.57188  0.63684  1.0000
  H   H3211     1.0  0.88009  0.64109  0.88406  1.0000
  H   H3212     1.0  0.98347  0.52032  0.67199  1.0000
  H   H3213     1.0  0.87814  0.63445  0.62377  1.0000
  C   C2683     1.0  0.77129  0.33911  0.94069  1.0000
  H   H3214     1.0  0.97491  0.58242  0.72499  1.0000
  H   H3215     1.0  0.75680  0.40553  0.64127  1.0000
  H   H3216     1.0  0.97969  0.41436  0.95352  1.0000
  C   C2684     1.0  0.88642  0.65635  0.51419  1.0000
  H   H3217     1.0  0.88263  0.65432  0.71117  1.0000
  C   C2685     1.0  0.74468  0.56673  0.80048  1.0000
  C   C2686     1.0  0.97206  0.58529  0.70925  1.0000
  H   H3218     1.0  0.74883  0.62137  0.75637  1.0000
  H   H3219     1.0  0.76806  0.35656  0.93842  1.0000
  C   C2687     1.0  0.98649  0.42318  0.97928  1.0000
  C   C2688     1.0  0.98834  0.38940  0.84080  1.0000
  C   C2689     1.0  0.98891  0.55738  0.64791  1.0000
  C   C2690     1.0  0.75553  0.61194  0.74393  1.0000
  N   N178      1.0  0.84976  0.65807  0.62656  1.0000
  H   H3220     1.0  0.75055  0.38848  0.59388  1.0000
  H   H3221     1.0  0.77664  0.41818  0.49195  1.0000
  C   C2691     1.0  0.74822  0.45819  0.59372  1.0000
  C   C2692     1.0  0.74628  0.63775  0.80290  1.0000
  C   C2693     1.0  0.74817  0.58129  0.78162  1.0000
  S   S715      1.0  0.99202  0.63710  0.75645  1.0000
  C   C2694     1.0  0.99195  0.65408  0.78975  1.0000
  H   H3222     1.0  0.99154  0.36830  0.89175  1.0000
  H   H3223     1.0  0.99110  0.44748  0.87300  1.0000
  S   S716      1.0  0.74250  0.57661  0.66191  1.0000
  H   H3224     1.0  0.99185  0.54416  0.63967  1.0000
  C   C2695     1.0  0.86817  0.34725  0.98879  1.0000
  H   H3225     1.0  0.82135  0.77329  0.47911  1.0000
  C   C2696     1.0  0.85596  0.70734  0.47819  1.0000
  H   H3226     1.0  0.96647  0.93555  0.26515  1.0000
  H   H3227     1.0  0.82796  0.75655  0.46040  1.0000
  H   H3228     1.0  0.87084  0.71196  0.47466  1.0000
  H   H3229     1.0  0.97729  0.91721  0.36008  1.0000
  C   C2697     1.0  0.89764  0.97001  0.44128  1.0000
  C   C2698     1.0  0.97034  0.82857  0.43110  1.0000
  S   S717      1.0  0.93558  0.93803  0.47756  1.0000
  H   H3230     1.0  0.98876  0.91768  0.22542  1.0000
  H   H3231     1.0  0.86839  0.98452  0.47183  1.0000
  H   H3232     1.0  0.75320  0.98357  0.00151  1.0000
  H   H3233     1.0  0.98341  0.97622  0.24229  1.0000
  C   C2699     1.0  0.96322  0.97158  0.42305  1.0000
  H   H3234     1.0  0.93890  0.98346  0.18542  1.0000
  H   H3235     1.0  0.98047  0.86635  0.40038  1.0000
  Fe  Fe358     1.0  0.94610  0.86538  0.46361  1.0000
  S   S718      1.0  0.91785  0.86320  0.45343  1.0000
  H   H3236     1.0  0.95428  0.93477  0.24475  1.0000
  N   N179      1.0  0.99097  0.88458  0.36964  1.0000
  S   S719      1.0  0.90037  0.91316  0.45704  1.0000
  H   H3237     1.0  0.95219  0.95937  0.25232  1.0000
  C   C2700     1.0  0.78776  0.98925  0.25390  1.0000
  Fe  Fe359     1.0  0.92107  0.89486  0.43317  1.0000
  S   S720      1.0  0.91919  0.90257  0.39926  1.0000
  S   S721      1.0  0.95104  0.89552  0.44132  1.0000
  C   C2701     1.0  0.85627  0.68777  0.47431  1.0000
  C   C2702     1.0  0.86391  0.85041  0.47990  1.0000
  H   H3238     1.0  0.85359  0.98015  0.22012  1.0000
  H   H3239     1.0  0.86382  0.74807  0.46828  1.0000
  H   H3240     1.0  0.89999  0.96338  0.45767  1.0000
  C   C2703     1.0  0.96285  0.94429  0.24957  1.0000
  Fe  Fe360     1.0  0.93016  0.91113  0.46692  1.0000
  H   H3241     1.0  0.93334  0.98074  0.47837  1.0000
  C   C2704     1.0  0.97887  0.82156  0.41213  1.0000
  H   H3242     1.0  0.97742  0.91699  0.46898  1.0000
  H   H3243     1.0  0.96916  0.89433  0.39657  1.0000
  N   N180      1.0  0.98210  0.94791  0.23375  1.0000
  H   H3244     1.0  0.80581  0.75463  0.48170  1.0000
  S   S722      1.0  0.96772  0.97270  0.29903  1.0000
  C   C2705     1.0  0.85338  0.83625  0.47685  1.0000
  H   H3245     1.0  0.87580  0.85635  0.46735  1.0000
  S   S723      1.0  0.95316  0.98552  0.35571  1.0000
  H   H3246     1.0  0.83847  0.66476  0.47645  1.0000
  C   C2706     1.0  0.94485  0.95835  0.45810  1.0000
  H   H3247     1.0  0.89094  0.95884  0.43651  1.0000
  H   H3248     1.0  0.97160  0.96903  0.40759  1.0000
  C   C2707     1.0  0.94159  0.97816  0.46289  1.0000
  C   C2708     1.0  0.98353  0.83040  0.44329  1.0000
  H   H3249     1.0  0.94381  0.96414  0.21998  1.0000
  C   C2709     1.0  0.81913  0.69203  0.48779  1.0000
  H   H3250     1.0  0.96866  0.81986  0.40287  1.0000
  H   H3251     1.0  0.96074  0.87727  0.38546  1.0000
  H   H3252     1.0  0.84834  0.98766  0.25565  1.0000
  H   H3253     1.0  0.85638  0.97826  0.45404  1.0000
  H   H3254     1.0  0.96607  0.89929  0.35268  1.0000
  H   H3255     1.0  0.98417  0.86027  0.35820  1.0000
  C   C2710     1.0  0.85644  0.74743  0.48516  1.0000
  C   C2711     1.0  0.95462  0.97785  0.18838  1.0000
  S   S724      1.0  0.97334  0.83873  0.46724  1.0000
  C   C2712     1.0  0.95564  0.95504  0.43813  1.0000
  C   C2713     1.0  0.97813  0.95943  0.21276  1.0000
  H   H3256     1.0  0.95824  0.93979  0.43429  1.0000
  C   C2714     1.0  0.92720  0.92633  0.38711  1.0000
  C   C2715     1.0  0.93155  0.93223  0.36519  1.0000
  C   C2716     1.0  0.93954  0.95045  0.35539  1.0000
  C   C2717     1.0  0.94251  0.96310  0.36755  1.0000
  C   C2718     1.0  0.93741  0.95757  0.38940  1.0000
  C   C2719     1.0  0.93006  0.93906  0.39922  1.0000
  H   H3257     1.0  0.92911  0.92250  0.35581  1.0000
  H   H3258     1.0  0.94315  0.95476  0.33849  1.0000
  H   H3259     1.0  0.93961  0.96739  0.39869  1.0000
  H   H3260     1.0  0.92662  0.93464  0.41615  1.0000
  H   H3261     1.0  0.91346  0.97016  0.43131  1.0000
  H   H3262     1.0  0.76371  0.98914  0.23838  1.0000
  C   C2720     1.0  0.99172  0.97547  0.17623  1.0000
  C   C2721     1.0  0.83792  0.68018  0.47902  1.0000
  C   C2722     1.0  0.86473  0.98983  0.45582  1.0000
  C   C2723     1.0  0.97153  0.98236  0.17242  1.0000
  H   H3263     1.0  0.85735  0.83124  0.46201  1.0000
  S   S725      1.0  0.82439  0.81124  0.48872  1.0000
  H   H3264     1.0  0.95360  0.83209  0.43646  1.0000
  H   H3265     1.0  0.98747  0.95191  0.45932  1.0000
  C   C2724     1.0  0.95774  0.96661  0.20831  1.0000
  H   H3266     1.0  0.77962  0.98225  0.26917  1.0000
  Fe  Fe361     1.0  0.97595  0.98011  0.32613  1.0000
  C   C2725     1.0  0.97476  0.88050  0.38894  1.0000
  C   C2726     1.0  0.82216  0.75704  0.47734  1.0000
  C   C2727     1.0  0.98094  0.90212  0.35462  1.0000
  H   H3267     1.0  0.77452  0.98063  0.01381  1.0000
  Fe  Fe362     1.0  0.89985  0.88152  0.47826  1.0000
  H   H3268     1.0  0.74682  0.98820  0.16146  1.0000
  H   H3269     1.0  0.87092  0.67804  0.46826  1.0000
  C   C2728     1.0  0.83700  0.72003  0.48677  1.0000
  H   H3270     1.0  0.85489  0.76342  0.48811  1.0000
  H   H3271     1.0  0.99077  0.90437  0.33857  1.0000
  H   H3272     1.0  0.96892  0.99133  0.15712  1.0000
  C   C2729     1.0  0.95913  0.99163  0.42757  1.0000
  N   N181      1.0  0.88395  0.99120  0.43927  1.0000
  H   H3273     1.0  0.91628  0.99119  0.25512  1.0000
  Fe  Fe363     1.0  0.81207  0.75776  0.82659  1.0000
  S   S726      1.0  0.80251  0.75958  0.79646  1.0000
  S   S727      1.0  0.84576  0.74770  0.82939  1.0000
  Fe  Fe364     1.0  0.76790  0.77208  0.84941  1.0000
  N   N182      1.0  0.80024  0.87008  0.59685  1.0000
  Fe  Fe365     1.0  0.77670  0.74427  0.81735  1.0000
  Fe  Fe366     1.0  0.78136  0.78971  0.80311  1.0000
  S   S728      1.0  0.77557  0.81777  0.77735  1.0000
  S   S729      1.0  0.78774  0.74003  0.84720  1.0000
  S   S730      1.0  0.79327  0.78959  0.83133  1.0000
  H   H3274     1.0  0.75092  0.70107  0.60110  1.0000
  H   H3275     1.0  0.83273  0.69122  0.76805  1.0000
  S   S731      1.0  0.75715  0.84593  0.92372  1.0000
  S   S732      1.0  0.80916  0.78685  0.54638  1.0000
  H   H3276     1.0  0.85557  0.70706  0.86600  1.0000
  H   H3277     1.0  0.83020  0.72156  0.81161  1.0000
  C   C2730     1.0  0.78406  0.69947  0.79897  1.0000
  N   N183      1.0  0.83586  0.74117  0.49038  1.0000
  H   H3278     1.0  0.93852  0.83148  0.52441  1.0000
  S   S733      1.0  0.94314  0.68511  0.76756  1.0000
  H   H3279     1.0  0.82507  0.74960  0.58115  1.0000
  H   H3280     1.0  0.82108  0.77231  0.70595  1.0000
  C   C2731     1.0  0.81776  0.87857  0.58183  1.0000
  H   H3281     1.0  0.83603  0.87548  0.60544  1.0000
  Fe  Fe367     1.0  0.93943  0.70480  0.73571  1.0000
  S   S734      1.0  0.94136  0.73887  0.72654  1.0000
  S   S735      1.0  0.91063  0.69436  0.73510  1.0000
  S   S736      1.0  0.90064  0.72505  0.61689  1.0000
  H   H3282     1.0  0.89807  0.77654  0.73027  1.0000
  S   S737      1.0  0.97039  0.94397  0.57208  1.0000
  S   S738      1.0  0.94907  0.93264  0.63088  1.0000
  C   C2732     1.0  0.75122  0.83387  0.83056  1.0000
  H   H3283     1.0  0.95444  0.75030  0.65925  1.0000
  Fe  Fe368     1.0  0.86277  0.84206  0.69166  1.0000
  S   S739      1.0  0.85317  0.81568  0.68415  1.0000
  S   S740      1.0  0.86179  0.84021  0.72560  1.0000
  Fe  Fe369     1.0  0.87063  0.86519  0.64631  1.0000
  S   S741      1.0  0.86149  0.84071  0.63529  1.0000
  S   S742      1.0  0.87877  0.89218  0.62024  1.0000
  Fe  Fe370     1.0  0.83525  0.84143  0.66331  1.0000
  S   S743      1.0  0.80309  0.84464  0.65808  1.0000
  Fe  Fe371     1.0  0.88038  0.81766  0.65714  1.0000
  S   S744      1.0  0.90122  0.78816  0.64834  1.0000
  S   S745      1.0  0.84271  0.86789  0.67266  1.0000
  S   S746      1.0  0.89176  0.84193  0.66625  1.0000
  Fe  Fe372     1.0  0.78092  0.80740  0.56127  1.0000
  S   S747      1.0  0.76503  0.71863  0.81062  1.0000
  C   C2733     1.0  0.90943  0.70698  0.63819  1.0000
  H   H3284     1.0  0.89654  0.91310  0.56333  1.0000
  H   H3285     1.0  0.88145  0.67814  0.88179  1.0000
  C   C2734     1.0  0.98655  0.78490  0.56233  1.0000
  H   H3286     1.0  0.86278  0.77710  0.65162  1.0000
  S   S748      1.0  0.75453  0.77464  0.82138  1.0000
  C   C2735     1.0  0.78567  0.83004  0.67595  1.0000
  C   C2736     1.0  0.76618  0.83217  0.67126  1.0000
  C   C2737     1.0  0.82427  0.77828  0.73479  1.0000
  C   C2738     1.0  0.81409  0.66762  0.78184  1.0000
  C   C2739     1.0  0.77588  0.80517  0.70812  1.0000
  C   C2740     1.0  0.79062  0.81653  0.69441  1.0000
  H   H3287     1.0  0.76223  0.84261  0.65703  1.0000
  H   H3288     1.0  0.83892  0.85457  0.52981  1.0000
  H   H3289     1.0  0.77934  0.79502  0.72261  1.0000
  H   H3290     1.0  0.80560  0.81504  0.69823  1.0000
  C   C2741     1.0  0.92795  0.92292  0.62907  1.0000
  C   C2742     1.0  0.91968  0.92969  0.61087  1.0000
  C   C2743     1.0  0.90386  0.92081  0.60877  1.0000
  C   C2744     1.0  0.89651  0.90485  0.62465  1.0000
  C   C2745     1.0  0.90433  0.89843  0.64314  1.0000
  C   C2746     1.0  0.92001  0.90753  0.64537  1.0000
  H   H3291     1.0  0.76757  0.95786  0.84546  1.0000
  H   H3292     1.0  0.89738  0.92626  0.59476  1.0000
  H   H3293     1.0  0.89849  0.88634  0.65563  1.0000
  H   H3294     1.0  0.92619  0.90240  0.65960  1.0000
  C   C2747     1.0  0.90003  0.70931  0.65878  1.0000
  C   C2748     1.0  0.78608  0.68069  0.55201  1.0000
  H   H3295     1.0  0.88714  0.72229  0.66160  1.0000
  Fe  Fe373     1.0  0.91628  0.67260  0.76529  1.0000
  C   C2749     1.0  0.93095  0.75215  0.70426  1.0000
  C   C2750     1.0  0.92202  0.74176  0.69429  1.0000
  C   C2751     1.0  0.91253  0.75297  0.67736  1.0000
  C   C2752     1.0  0.91247  0.77440  0.66995  1.0000
  C   C2753     1.0  0.92160  0.78474  0.67975  1.0000
  C   C2754     1.0  0.93090  0.77360  0.69683  1.0000
  H   H3296     1.0  0.92222  0.72518  0.69969  1.0000
  H   H3297     1.0  0.90506  0.74509  0.67012  1.0000
  H   H3298     1.0  0.92167  0.80129  0.67408  1.0000
  H   H3299     1.0  0.93778  0.78170  0.70449  1.0000
  H   H3300     1.0  0.85986  0.74089  0.57978  1.0000
  C   C2755     1.0  0.87151  0.68665  0.53063  1.0000
  H   H3301     1.0  0.92853  0.92654  0.56576  1.0000
  S   S749      1.0  0.76006  0.78480  0.56680  1.0000
  C   C2756     1.0  0.84337  0.78308  0.57817  1.0000
  H   H3302     1.0  0.85682  0.78958  0.57856  1.0000
  H   H3303     1.0  0.92482  0.82207  0.62016  1.0000
  Fe  Fe374     1.0  0.95822  0.95626  0.60167  1.0000
  Fe  Fe375     1.0  0.94041  0.67922  0.56373  1.0000
  H   H3304     1.0  0.76933  0.86504  0.59906  1.0000
  C   C2757     1.0  0.83429  0.66703  0.64365  1.0000
  S   S750      1.0  0.87396  0.70941  0.53780  1.0000
  C   C2758     1.0  0.90823  0.89841  0.56104  1.0000
  C   C2759     1.0  0.79944  0.82439  0.76331  1.0000
  C   C2760     1.0  0.81522  0.82356  0.77370  1.0000
  C   C2761     1.0  0.83424  0.82897  0.76213  1.0000
  C   C2762     1.0  0.83761  0.83475  0.74020  1.0000
  C   C2763     1.0  0.82177  0.83557  0.72992  1.0000
  C   C2764     1.0  0.80276  0.83038  0.74145  1.0000
  H   H3305     1.0  0.81273  0.81896  0.79062  1.0000
  H   H3306     1.0  0.84640  0.82851  0.77014  1.0000
  H   H3307     1.0  0.82413  0.84021  0.71304  1.0000
  H   H3308     1.0  0.79088  0.83041  0.73337  1.0000
  H   H3309     1.0  0.78688  0.86135  0.57511  1.0000
  C   C2765     1.0  0.76780  0.80403  0.88613  1.0000
  C   C2766     1.0  0.77052  0.81874  0.89632  1.0000
  C   C2767     1.0  0.75164  0.82092  0.68492  1.0000
  H   H3310     1.0  0.77888  0.90759  0.92180  1.0000
  C   C2768     1.0  0.74861  0.79777  0.89084  1.0000
  H   H3311     1.0  0.78059  0.79747  0.87476  1.0000
  H   H3312     1.0  0.78534  0.82362  0.89261  1.0000
  H   H3313     1.0  0.93362  0.68878  0.61875  1.0000
  C   C2769     1.0  0.79202  0.88193  0.61409  1.0000
  C   C2770     1.0  0.80318  0.70376  0.78670  1.0000
  C   C2771     1.0  0.81802  0.68791  0.77772  1.0000
  H   H3314     1.0  0.80651  0.71925  0.78392  1.0000
  C   C2772     1.0  0.85829  0.72583  0.81800  1.0000
  C   C2773     1.0  0.87981  0.71824  0.81650  1.0000
  C   C2774     1.0  0.88968  0.70031  0.80796  1.0000
  C   C2775     1.0  0.87792  0.68982  0.80130  1.0000
  C   C2776     1.0  0.85656  0.69772  0.80242  1.0000
  C   C2777     1.0  0.84677  0.71578  0.81056  1.0000
  H   H3315     1.0  0.88880  0.72607  0.82215  1.0000
  H   H3316     1.0  0.90625  0.69430  0.80708  1.0000
  H   H3317     1.0  0.84761  0.68984  0.79695  1.0000
  C   C2778     1.0  0.75416  0.82696  0.91144  1.0000
  N   N184      1.0  0.74376  0.86891  0.72703  1.0000
  C   C2779     1.0  0.75717  0.82586  0.60253  1.0000
  H   H3318     1.0  0.76329  0.88752  0.70307  1.0000
  C   C2780     1.0  0.90597  0.81307  0.54498  1.0000
  C   C2781     1.0  0.91224  0.80069  0.56373  1.0000
  C   C2782     1.0  0.88655  0.82758  0.54738  1.0000
  C   C2783     1.0  0.89983  0.80259  0.58353  1.0000
  C   C2784     1.0  0.87430  0.82947  0.56725  1.0000
  C   C2785     1.0  0.88089  0.81694  0.58528  1.0000
  C   C2786     1.0  0.77236  0.68923  0.53818  1.0000
  H   H3319     1.0  0.80494  0.68583  0.49200  1.0000
  S   S751      1.0  0.93551  0.98391  0.58820  1.0000
  C   C2787     1.0  0.75258  0.82194  0.62445  1.0000
  H   H3320     1.0  0.86752  0.68258  0.61948  1.0000
  S   S752      1.0  0.74411  0.78001  0.87805  1.0000
  H   H3321     1.0  0.92104  0.82215  0.49082  1.0000
  H   H3322     1.0  0.92681  0.78937  0.56318  1.0000
  H   H3323     1.0  0.88047  0.83768  0.53413  1.0000
  H   H3324     1.0  0.90492  0.79290  0.59765  1.0000
  H   H3325     1.0  0.85960  0.84076  0.56858  1.0000
  H   H3326     1.0  0.87130  0.81827  0.60065  1.0000
  H   H3327     1.0  0.75785  0.86644  0.69477  1.0000
  H   H3328     1.0  0.93720  0.66065  0.60495  1.0000
  H   H3329     1.0  0.79911  0.68746  0.85509  1.0000
  C   C2788     1.0  0.83526  0.88013  0.58898  1.0000
  C   C2789     1.0  0.97365  0.76099  0.54072  1.0000
  C   C2790     1.0  0.95869  0.84605  0.55415  1.0000
  H   H3330     1.0  0.90203  0.88984  0.55260  1.0000
  C   C2791     1.0  0.83557  0.89214  0.54607  1.0000
  C   C2792     1.0  0.90712  0.69464  0.67578  1.0000
  N   N185      1.0  0.98333  0.86639  0.61421  1.0000
  S   S753      1.0  0.76436  0.67302  0.52626  1.0000
  C   C2793     1.0  0.92216  0.78857  0.52176  1.0000
  H   H3331     1.0  0.90864  0.84134  0.50651  1.0000
  C   C2794     1.0  0.76515  0.71102  0.53357  1.0000
  C   C2795     1.0  0.98288  0.88437  0.59604  1.0000
  C   C2796     1.0  0.88897  0.67331  0.52140  1.0000
  H   H3332     1.0  0.83590  0.89657  0.52931  1.0000
  C   C2797     1.0  0.92327  0.67744  0.67204  1.0000
  H   H3333     1.0  0.80793  0.77009  0.59251  1.0000
  H   H3334     1.0  0.86562  0.89917  0.54270  1.0000
  N   N186      1.0  0.74848  0.92082  0.91438  1.0000
  C   C2798     1.0  0.80806  0.67853  0.84266  1.0000
  H   H3335     1.0  0.87068  0.66957  0.59843  1.0000
  H   H3336     1.0  0.97579  0.93868  0.49243  1.0000
  C   C2799     1.0  0.78733  0.71561  0.55464  1.0000
  H   H3337     1.0  0.74775  0.68619  0.84603  1.0000
  H   H3338     1.0  0.79840  0.80088  0.64841  1.0000
  C   C2800     1.0  0.93808  0.91115  0.56244  1.0000
  C   C2801     1.0  0.83234  0.83550  0.51191  1.0000
  C   C2802     1.0  0.95681  0.88316  0.52369  1.0000
  H   H3339     1.0  0.82938  0.79615  0.57851  1.0000
  H   H3340     1.0  0.96312  0.88596  0.63554  1.0000
  H   H3341     1.0  0.84677  0.77820  0.56282  1.0000
  H   H3342     1.0  0.87349  0.75344  0.59046  1.0000
  S   S754      1.0  0.78276  0.81830  0.58918  1.0000
  H   H3343     1.0  0.81587  0.68932  0.82924  1.0000
  H   H3344     1.0  0.76050  0.88891  0.89241  1.0000
  H   H3345     1.0  0.97262  0.70576  0.60777  1.0000
  C   C2803     1.0  0.85482  0.69082  0.86722  1.0000
  H   H3346     1.0  0.94104  0.88006  0.61816  1.0000
  C   C2804     1.0  0.83946  0.68636  0.85944  1.0000
  C   C2805     1.0  0.94622  0.86367  0.61736  1.0000
  H   H3347     1.0  0.93920  0.90023  0.57778  1.0000
  N   N187      1.0  0.91931  0.81050  0.52419  1.0000
  Fe  Fe376     1.0  0.78766  0.76559  0.54933  1.0000
  H   H3348     1.0  0.77592  0.88764  0.57999  1.0000
  C   C2806     1.0  0.83171  0.77109  0.71604  1.0000
  H   H3349     1.0  0.80788  0.78516  0.73930  1.0000
  C   C2807     1.0  0.84912  0.66515  0.52650  1.0000
  H   H3350     1.0  0.93947  0.92620  0.52230  1.0000
  H   H3351     1.0  0.82772  0.79629  0.66583  1.0000
  H   H3352     1.0  0.75457  0.88821  0.74157  1.0000
  H   H3353     1.0  0.86727  0.73643  0.49501  1.0000
  C   C2808     1.0  0.76272  0.90454  0.92658  1.0000
  S   S755      1.0  0.77980  0.78008  0.51764  1.0000
  C   C2809     1.0  0.75691  0.92236  0.89158  1.0000
  C   C2810     1.0  0.96488  0.76093  0.56195  1.0000
  H   H3354     1.0  0.75558  0.95647  0.88265  1.0000
  H   H3355     1.0  0.90440  0.67645  0.51913  1.0000
  H   H3356     1.0  0.75439  0.83533  0.73649  1.0000
  H   H3357     1.0  0.98907  0.82402  0.61077  1.0000
  H   H3358     1.0  0.76539  0.73248  0.59687  1.0000
  Fe  Fe377     1.0  0.96293  0.66050  0.74965  1.0000
  C   C2811     1.0  0.98949  0.93053  0.49889  1.0000
  H   H3359     1.0  0.77636  0.92560  0.83092  1.0000
  H   H3360     1.0  0.83364  0.66249  0.52815  1.0000
  C   C2812     1.0  0.75077  0.87236  0.74489  1.0000
  C   C2813     1.0  0.97310  0.83257  0.61339  1.0000
  C   C2814     1.0  0.74554  0.94078  0.92152  1.0000
  H   H3361     1.0  0.89965  0.69624  0.69170  1.0000
  C   C2815     1.0  0.91057  0.82449  0.50615  1.0000
  C   C2816     1.0  0.85870  0.85711  0.49896  1.0000
  H   H3362     1.0  0.75654  0.82603  0.84550  1.0000
  C   C2817     1.0  0.78238  0.87119  0.58722  1.0000
  H   H3363     1.0  0.78687  0.89899  0.60784  1.0000
  H   H3364     1.0  0.83109  0.78329  0.76180  1.0000
  H   H3365     1.0  0.83795  0.69270  0.54021  1.0000
  C   C2818     1.0  0.83788  0.77697  0.74780  1.0000
  C   C2819     1.0  0.81860  0.71169  0.49156  1.0000
  H   H3366     1.0  0.82888  0.69978  0.85260  1.0000
  C   C2820     1.0  0.75924  0.94176  0.87748  1.0000
  S   S756      1.0  0.90976  0.73668  0.55669  1.0000
  H   H3367     1.0  0.85184  0.76194  0.78523  1.0000
  H   H3368     1.0  0.85636  0.78836  0.77545  1.0000
  H   H3369     1.0  0.86905  0.76313  0.62029  1.0000
  H   H3370     1.0  0.85887  0.75759  0.69533  1.0000
  C   C2821     1.0  0.86389  0.77146  0.77693  1.0000
  H   H3371     1.0  0.95404  0.91379  0.55446  1.0000
  C   C2822     1.0  0.83020  0.78969  0.65207  1.0000
  C   C2823     1.0  0.76619  0.94279  0.85588  1.0000
  Fe  Fe378     1.0  0.91550  0.71425  0.58651  1.0000
  C   C2824     1.0  0.85291  0.76274  0.71014  1.0000
  C   C2825     1.0  0.85947  0.76800  0.74258  1.0000
  C   C2826     1.0  0.85159  0.68243  0.53323  1.0000
  C   C2827     1.0  0.85242  0.89355  0.55362  1.0000
  H   H3372     1.0  0.88053  0.79695  0.74227  1.0000
  H   H3373     1.0  0.87510  0.76843  0.78748  1.0000
  H   H3374     1.0  0.96283  0.70068  0.64289  1.0000
  H   H3375     1.0  0.96812  0.89631  0.59801  1.0000
  N   N188      1.0  0.87428  0.76602  0.75619  1.0000
  C   C2828     1.0  0.88900  0.78029  0.74555  1.0000
  C   C2829     1.0  0.86662  0.76130  0.72313  1.0000
  H   H3376     1.0  0.90054  0.77927  0.75517  1.0000
  Fe  Fe379     1.0  0.90372  0.70906  0.54753  1.0000
  S   S757      1.0  0.87201  0.87439  0.50340  1.0000
  H   H3377     1.0  0.82006  0.82993  0.52426  1.0000
  C   C2830     1.0  0.85862  0.74793  0.59350  1.0000
  H   H3378     1.0  0.88295  0.75513  0.71775  1.0000
  C   C2831     1.0  0.76209  0.90419  0.88271  1.0000
  C   C2832     1.0  0.86943  0.67458  0.87603  1.0000
  H   H3379     1.0  0.93636  0.86375  0.57487  1.0000
  H   H3380     1.0  0.88995  0.98669  0.52811  1.0000
  C   C2833     1.0  0.88630  0.74408  0.76019  1.0000
  H   H3381     1.0  0.89677  0.73945  0.74577  1.0000
  C   C2834     1.0  0.93100  0.85220  0.61925  1.0000
  C   C2835     1.0  0.75633  0.80746  0.70331  1.0000
  S   S758      1.0  0.94984  0.70354  0.57499  1.0000
  C   C2836     1.0  0.94527  0.73999  0.62723  1.0000
  S   S759      1.0  0.79854  0.73181  0.56331  1.0000
  H   H3382     1.0  0.80462  0.68716  0.57046  1.0000
  S   S760      1.0  0.96591  0.74636  0.52663  1.0000
  C   C2837     1.0  0.82179  0.75734  0.59481  1.0000
  H   H3383     1.0  0.92955  0.77698  0.53409  1.0000
  N   N189      1.0  0.84005  0.76526  0.59599  1.0000
  C   C2838     1.0  0.77978  0.67948  0.80197  1.0000
  Fe  Fe380     1.0  0.94375  0.72449  0.54449  1.0000
  S   S761      1.0  0.98389  0.97404  0.59572  1.0000
  H   H3384     1.0  0.94854  0.80430  0.53454  1.0000
  H   H3385     1.0  0.80371  0.88029  0.62370  1.0000
  H   H3386     1.0  0.89674  0.74178  0.77135  1.0000
  H   H3387     1.0  0.87565  0.73273  0.76698  1.0000
  S   S762      1.0  0.77225  0.82619  0.53099  1.0000
  C   C2839     1.0  0.81850  0.88469  0.55984  1.0000
  C   C2840     1.0  0.84295  0.84956  0.51499  1.0000
  C   C2841     1.0  0.83663  0.77275  0.61575  1.0000
  H   H3388     1.0  0.95049  0.81354  0.50701  1.0000
  H   H3389     1.0  0.76354  0.88839  0.92462  1.0000
  C   C2842     1.0  0.84992  0.77895  0.64399  1.0000
  N   N190      1.0  0.82330  0.65995  0.85081  1.0000
  C   C2843     1.0  0.85325  0.77079  0.62597  1.0000
  H   H3390     1.0  0.80346  0.78694  0.61722  1.0000
  H   H3391     1.0  0.76167  0.73678  0.73289  1.0000
  H   H3392     1.0  0.89519  0.82153  0.50582  1.0000
  H   H3393     1.0  0.81431  0.83832  0.59340  1.0000
  H   H3394     1.0  0.83618  0.72948  0.52319  1.0000
  C   C2844     1.0  0.81368  0.79225  0.64224  1.0000
  C   C2845     1.0  0.96589  0.71304  0.64926  1.0000
  C   C2846     1.0  0.97109  0.77314  0.57256  1.0000
  H   H3395     1.0  0.91985  0.91385  0.51912  1.0000
  H   H3396     1.0  0.93193  0.74046  0.64081  1.0000
  H   H3397     1.0  0.98165  0.83183  0.53041  1.0000
  C   C2847     1.0  0.76910  0.90539  0.86109  1.0000
  C   C2848     1.0  0.79365  0.69384  0.56014  1.0000
  C   C2849     1.0  0.81679  0.78403  0.62433  1.0000
  C   C2850     1.0  0.77108  0.92467  0.84769  1.0000
  H   H3398     1.0  0.97461  0.93895  0.52871  1.0000
  H   H3399     1.0  0.94351  0.75595  0.61713  1.0000
  H   H3400     1.0  0.84698  0.68834  0.60532  1.0000
  H   H3401     1.0  0.81720  0.74564  0.60922  1.0000
  C   C2851     1.0  0.97017  0.86458  0.51897  1.0000
  H   H3402     1.0  0.98156  0.66786  0.78317  1.0000
  H   H3403     1.0  0.80364  0.72024  0.49841  1.0000
  Fe  Fe381     1.0  0.94949  0.97269  0.55805  1.0000
  N   N191      1.0  0.96565  0.73335  0.63393  1.0000
  Fe  Fe382     1.0  0.79899  0.80335  0.51636  1.0000
  H   H3404     1.0  0.91324  0.93347  0.53472  1.0000
  C   C2852     1.0  0.83841  0.66530  0.86015  1.0000
  H   H3405     1.0  0.96216  0.80485  0.61414  1.0000
  C   C2853     1.0  0.83752  0.82885  0.49280  1.0000
  S   S763      1.0  0.90666  0.68786  0.57851  1.0000
  C   C2854     1.0  0.98273  0.73086  0.61537  1.0000
  H   H3406     1.0  0.93255  0.78584  0.50649  1.0000
  H   H3407     1.0  0.82668  0.75725  0.51627  1.0000
  H   H3408     1.0  0.77602  0.86082  0.71140  1.0000
  H   H3409     1.0  0.76490  0.67612  0.81095  1.0000
  C   C2855     1.0  0.94006  0.81512  0.52256  1.0000
  C   C2856     1.0  0.98385  0.71585  0.60338  1.0000
  H   H3410     1.0  0.82042  0.84566  0.61463  1.0000
  H   H3411     1.0  0.98122  0.70707  0.65417  1.0000
  H   H3412     1.0  0.86522  0.88884  0.58111  1.0000
  C   C2857     1.0  0.93670  0.83099  0.61837  1.0000
  H   H3413     1.0  0.77284  0.89128  0.85470  1.0000
  H   H3414     1.0  0.76478  0.81410  0.63317  1.0000
  H   H3415     1.0  0.85813  0.73507  0.60771  1.0000
  C   C2858     1.0  0.94338  0.88350  0.54374  1.0000
  H   H3416     1.0  0.90862  0.88906  0.57721  1.0000
  C   C2859     1.0  0.92529  0.91963  0.53050  1.0000
  H   H3417     1.0  0.79518  0.84051  0.61718  1.0000
  C   C2860     1.0  0.80791  0.84771  0.60588  1.0000
  C   C2861     1.0  0.76091  0.87104  0.70828  1.0000
  S   S764      1.0  0.93717  0.69908  0.53198  1.0000
  C   C2862     1.0  0.77260  0.72421  0.54184  1.0000
  H   H3418     1.0  0.76701  0.74099  0.53816  1.0000
  N   N192      1.0  0.92897  0.90286  0.54920  1.0000
  H   H3419     1.0  0.96425  0.77317  0.58889  1.0000
  C   C2863     1.0  0.92604  0.69028  0.63457  1.0000
  H   H3420     1.0  0.97740  0.86166  0.64791  1.0000
  C   C2864     1.0  0.97830  0.87462  0.63380  1.0000
  H   H3421     1.0  0.92546  0.94177  0.59837  1.0000
  H   H3422     1.0  0.84268  0.66799  0.58495  1.0000
  H   H3423     1.0  0.77851  0.87609  0.62541  1.0000
  Fe  Fe383     1.0  0.75381  0.80133  0.53509  1.0000
  H   H3424     1.0  0.76195  0.71040  0.76751  1.0000
  S   S765      1.0  0.93026  0.96804  0.53769  1.0000
  H   H3425     1.0  0.80619  0.88373  0.55277  1.0000
  S   S766      1.0  0.88954  0.66664  0.79187  1.0000
  H   H3426     1.0  0.95330  0.75153  0.57017  1.0000
  C   C2865     1.0  0.97102  0.84606  0.53412  1.0000
  H   H3427     1.0  0.95984  0.83172  0.56607  1.0000
  C   C2866     1.0  0.94519  0.86449  0.55900  1.0000
  C   C2867     1.0  0.93285  0.67542  0.65146  1.0000
  C   C2868     1.0  0.82695  0.74187  0.51277  1.0000
  C   C2869     1.0  0.85223  0.88762  0.57508  1.0000
  H   H3428     1.0  0.91464  0.85973  0.62168  1.0000
  H   H3429     1.0  0.82083  0.67811  0.63757  1.0000
  C   C2870     1.0  0.96771  0.85411  0.61490  1.0000
  H   H3430     1.0  0.90695  0.78454  0.52255  1.0000
  H   H3431     1.0  0.94302  0.72921  0.61832  1.0000
  H   H3432     1.0  0.95717  0.89700  0.51130  1.0000
  S   S767      1.0  0.96187  0.68141  0.71797  1.0000
  H   H3433     1.0  0.76514  0.86077  0.74826  1.0000
  H   H3434     1.0  0.98008  0.86450  0.50348  1.0000
  C   C2871     1.0  0.95772  0.82128  0.61522  1.0000
  Fe  Fe384     1.0  0.93339  0.66937  0.71991  1.0000
  H   H3435     1.0  0.95356  0.71453  0.66372  1.0000
  H   H3436     1.0  0.81067  0.73940  0.51760  1.0000
  H   H3437     1.0  0.96557  0.76524  0.63503  1.0000
  C   C2872     1.0  0.85909  0.67540  0.61177  1.0000
  H   H3438     1.0  0.74587  0.69824  0.75962  1.0000
  H   H3439     1.0  0.98478  0.87897  0.58120  1.0000
  C   C2873     1.0  0.98846  0.77348  0.53023  1.0000
  H   H3440     1.0  0.79067  0.66396  0.55669  1.0000
  H   H3441     1.0  0.84135  0.67566  0.65126  1.0000
  C   C2874     1.0  0.92147  0.99157  0.52107  1.0000
  H   H3442     1.0  0.76128  0.84539  0.82175  1.0000
  H   H3443     1.0  0.75747  0.90403  0.94377  1.0000
  H   H3444     1.0  0.74478  0.83883  0.57435  1.0000
  H   H3445     1.0  0.75409  0.71773  0.52331  1.0000
  H   H3446     1.0  0.98205  0.74507  0.65074  1.0000
  H   H3447     1.0  0.79638  0.67391  0.83664  1.0000
  C   C2875     1.0  0.79498  0.66350  0.79392  1.0000
  H   H3448     1.0  0.75451  0.82142  0.82130  1.0000
  H   H3449     1.0  0.75565  0.74574  0.76736  1.0000
  H   H3450     1.0  0.98669  0.92512  0.64795  1.0000
  S   S768      1.0  0.92803  0.88095  0.49024  1.0000
  H   H3451     1.0  0.76042  0.94648  0.91771  1.0000
  C   C2876     1.0  0.96712  0.74920  0.64511  1.0000
  C   C2877     1.0  0.98848  0.93043  0.51991  1.0000
  C   C2878     1.0  0.74906  0.73275  0.60380  1.0000
  H   H3452     1.0  0.99019  0.88323  0.63425  1.0000
  H   H3453     1.0  0.94550  0.66226  0.64852  1.0000
  H   H3454     1.0  0.74417  0.72388  0.72706  1.0000
  C   C2879     1.0  0.74532  0.71083  0.76777  1.0000
  C   C2880     1.0  0.74493  0.73611  0.73515  1.0000
  H   H3455     1.0  0.74359  0.76399  0.60784  1.0000
  H   H3456     1.0  0.84595  0.65887  0.82183  1.0000
